REMARK  Name = ZINC49590283
REMARK  6 active torsions:
REMARK  status: ('A' for Active; 'I' for Inactive)
REMARK    1  A    between atoms: C_1  and  C_2
REMARK    2  A    between atoms: C_5  and  N_8
REMARK    3  A    between atoms: C_10  and  C_15
REMARK    4  A    between atoms: C_15  and  N_17
REMARK    5  A    between atoms: N_24  and  C_27
REMARK    6  A    between atoms: C_27  and  C_28
REMARK                            x       y       z     vdW  Elec       q    Type
REMARK                         _______ _______ _______ _____ _____    ______ ____
ROOT
ATOM      1  N   UNL     1      -2.332  -7.763   0.709  0.00  0.00    -0.156 NA
ATOM      2  C   UNL     1      -3.635  -7.936   0.942  0.00  0.00    +0.163 A 
ATOM      3  N   UNL     1      -4.522  -7.054   1.474  0.00  0.00    -0.339 N 
ATOM      4  C   UNL     1      -5.829  -7.424   1.633  0.00  0.00    +0.024 A 
ATOM      5  C   UNL     1      -6.124  -8.673   1.236  0.00  0.00    -0.004 A 
ATOM      6  S   UNL     1      -4.579  -9.297   0.642  0.00  0.00    -0.059 S 
ATOM      7  C   UNL     1      -7.459  -9.339   1.298  0.00  0.00    -0.033 C 
ATOM      8  N   UNL     1      -8.326  -8.558   2.200  0.00  0.00    +0.386 N 
ATOM      9  C   UNL     1      -8.277  -7.140   1.821  0.00  0.00    -0.072 C 
ATOM     10  C   UNL     1      -6.924  -6.535   2.209  0.00  0.00    +0.035 C 
ATOM     11  H   UNL     1      -4.230  -6.168   1.738  0.00  0.00    +0.167 HD
ATOM     12  H   UNL     1      -8.005  -8.664   3.150  0.00  0.00    -0.081 HD
ENDROOT
BRANCH   1  13
ATOM     13  C   UNL     1      -1.751  -6.610   1.014  0.00  0.00    +0.243 C 
ATOM     14  O   UNL     1      -2.406  -5.710   1.505  0.00  0.00    -0.273 OA
BRANCH  13  17
ATOM     15  N   UNL     1       0.059  -4.170  -0.021  0.00  0.00    -0.271 N 
ATOM     16  C   UNL     1       0.176  -5.003   1.182  0.00  0.00    +0.127 C 
ATOM     17  C   UNL     1      -0.280  -6.415   0.751  0.00  0.00    +0.103 C 
ATOM     18  C   UNL     1       0.013  -6.391  -0.767  0.00  0.00    +0.110 C 
ATOM     19  C   UNL     1      -0.034  -4.923  -1.130  0.00  0.00    +0.221 C 
ATOM     20  O   UNL     1      -0.139  -4.490  -2.258  0.00  0.00    -0.275 OA
BRANCH  15  25
ATOM     21  C   UNL     1      -0.018   1.503   0.010  0.00  0.00    +0.044 C 
ATOM     22  C   UNL     1       0.002  -0.004   0.002  0.00  0.00    -0.050 A 
ATOM     23  C   UNL     1       0.020  -0.687  -1.200  0.00  0.00    +0.005 A 
ATOM     24  C   UNL     1       0.039  -2.068  -1.211  0.00  0.00    +0.024 A 
ATOM     25  C   UNL     1       0.040  -2.771  -0.013  0.00  0.00    +0.036 A 
ATOM     26  C   UNL     1       0.022  -2.082   1.192  0.00  0.00    +0.024 A 
ATOM     27  C   UNL     1       0.009  -0.701   1.197  0.00  0.00    +0.005 A 
ENDBRANCH  15  25
ENDBRANCH  13  17
ENDBRANCH   1  13
BRANCH   8  28
ATOM     28  C   UNL     1      -9.708  -9.046   2.093  0.00  0.00    -0.043 C 
BRANCH  28  29
ATOM     29  C   UNL     1      -9.781 -10.464   2.598  0.00  0.00    -0.064 A 
ATOM     30  C   UNL     1      -9.581 -11.518   1.727  0.00  0.00    +0.002 A 
ATOM     31  C   UNL     1      -9.648 -12.819   2.190  0.00  0.00    +0.000 A 
ATOM     32  C   UNL     1      -9.915 -13.065   3.524  0.00  0.00    +0.000 A 
ATOM     33  C   UNL     1     -10.114 -12.011   4.395  0.00  0.00    +0.000 A 
ATOM     34  C   UNL     1     -10.042 -10.710   3.933  0.00  0.00    +0.002 A 
ENDBRANCH  28  29
ENDBRANCH   8  28
TORSDOF 5
