REMARK  Name = ZINC30819384
REMARK  11 active torsions:
REMARK  status: ('A' for Active; 'I' for Inactive)
REMARK    1  A    between atoms: C_1  and  C_2
REMARK    2  A    between atoms: C_3  and  C_35
REMARK    3  A    between atoms: C_5  and  C_7
REMARK    4  A    between atoms: C_8  and  N_34
REMARK    5  A    between atoms: N_9  and  C_13
REMARK    6  A    between atoms: C_13  and  C_14
REMARK    7  A    between atoms: C_14  and  C_33
REMARK    8  A    between atoms: C_18  and  C_32
REMARK    9  A    between atoms: C_27  and  C_29
REMARK   10  A    between atoms: C_29  and  C_30
REMARK   11  A    between atoms: C_29  and  C_31
REMARK                            x       y       z     vdW  Elec       q    Type
REMARK                         _______ _______ _______ _____ _____    ______ ____
ROOT
ATOM      1  C   UNL     1       4.719  -2.811  -0.457  0.00  0.00    -0.014 C 
ATOM      2  C   UNL     1       5.390  -3.125   0.881  0.00  0.00    +0.008 C 
ATOM      3  C   UNL     1       5.978  -1.835   1.458  0.00  0.00    +0.001 C 
ATOM      4  C   UNL     1       4.849  -0.832   1.697  0.00  0.00    +0.011 C 
ATOM      5  C   UNL     1       4.153  -0.505   0.373  0.00  0.00    -0.003 C 
ATOM      6  C   UNL     1       3.613  -1.783  -0.262  0.00  0.00    +0.007 C 
ATOM      7  C   UNL     1       2.505  -2.343   0.632  0.00  0.00    +0.009 C 
ATOM      8  C   UNL     1       1.295  -1.414   0.532  0.00  0.00    +0.036 C 
ATOM      9  C   UNL     1       1.705   0.021   0.736  0.00  0.00    -0.043 A 
ATOM     10  C   UNL     1       3.013   0.444   0.655  0.00  0.00    -0.038 A 
ATOM     11  C   UNL     1       3.319   1.784   0.840  0.00  0.00    +0.005 A 
ATOM     12  C   UNL     1       2.322   2.699   1.113  0.00  0.00    +0.004 A 
ATOM     13  C   UNL     1       1.009   2.276   1.199  0.00  0.00    -0.045 A 
ATOM     14  C   UNL     1       0.703   0.944   1.010  0.00  0.00    +0.007 A 
ATOM     15  C   UNL     1       5.151   0.156  -0.580  0.00  0.00    +0.016 C 
ATOM     16  C   UNL     1       4.122  -4.094  -1.038  0.00  0.00    +0.013 C 
ENDROOT
BRANCH  13  17
ATOM     17  C   UNL     1      -0.087   3.268   1.493  0.00  0.00    +0.013 C 
ATOM     18  C   UNL     1       0.172   3.927   2.849  0.00  0.00    +0.012 C 
ATOM     19  C   UNL     1      -0.111   4.339   0.401  0.00  0.00    +0.012 C 
ENDBRANCH  13  17
BRANCH   1  20
ATOM     20  C   UNL     1       5.761  -2.255  -1.430  0.00  0.00    +0.093 C 
BRANCH  20  23
ATOM     21  C   UNL     1       4.498  -2.637  -4.875  0.00  0.00    +0.085 C 
ATOM     22  C   UNL     1       5.144  -3.082  -3.726  0.00  0.00    +0.081 C 
ATOM     23  N   UNL     1       5.166  -2.123  -2.761  0.00  0.00    -0.376 NA
ATOM     24  C   UNL     1       4.493  -0.930  -3.292  0.00  0.00    +0.167 C 
ATOM     25  C   UNL     1       4.066  -1.313  -4.694  0.00  0.00    +0.184 C 
ATOM     26  O   UNL     1       3.473  -0.618  -5.496  0.00  0.00    -0.290 OA
ATOM     27  H   UNL     1       5.669  -2.643  -1.933  0.00  0.00    +0.128 HD
BRANCH  21  32
ATOM     28  C   UNL     1       4.838  -6.657  -7.797  0.00  0.00    +0.066 C 
ATOM     29  C   UNL     1       4.407  -5.238  -7.525  0.00  0.00    +0.049 A 
ATOM     30  C   UNL     1       3.748  -4.535  -8.479  0.00  0.00    +0.010 A 
ATOM     31  S   UNL     1       3.501  -2.979  -7.633  0.00  0.00    -0.072 S 
ATOM     32  C   UNL     1       4.301  -3.434  -6.101  0.00  0.00    +0.115 A 
ATOM     33  N   UNL     1       4.675  -4.679  -6.365  0.00  0.00    -0.244 NA
ATOM     34  C   UNL     1       3.338  -4.949  -9.869  0.00  0.00    +0.053 C 
ENDBRANCH  21  32
BRANCH  22  35
ATOM     35  N   UNL     1       5.685  -4.327  -3.584  0.00  0.00    -0.347 N 
ATOM     36  H   UNL     1       6.181  -4.606  -2.643  0.00  0.00    +0.143 HD
ATOM     37  H   UNL     1       5.626  -5.050  -4.410  0.00  0.00    +0.143 HD
ENDBRANCH  22  35
ENDBRANCH  20  23
ENDBRANCH   1  20
TORSDOF 5
