REMARK  Name = ZINC43746310
REMARK  6 active torsions:
REMARK  status: ('A' for Active; 'I' for Inactive)
REMARK    1  A    between atoms: C_1  and  C_2
REMARK    2  A    between atoms: C_7  and  C_37
REMARK    3  A    between atoms: C_20  and  C_22
REMARK    4  A    between atoms: C_22  and  N_23
REMARK    5  A    between atoms: C_26  and  C_29
REMARK    6  A    between atoms: C_26  and  O_36
REMARK                            x       y       z     vdW  Elec       q    Type
REMARK                         _______ _______ _______ _____ _____    ______ ____
ROOT
ATOM      1  C   UNL     1       0.137   2.029   0.051  0.00  0.00    +0.010 C 
ATOM      2  C   UNL     1       0.092   0.504  -0.068  0.00  0.00    +0.021 C 
ATOM      3  C   UNL     1       0.827   0.063  -1.340  0.00  0.00    +0.006 C 
ATOM      4  C   UNL     1       0.868  -1.463  -1.418  0.00  0.00    +0.001 C 
ATOM      5  C   UNL     1       1.639  -2.036  -0.225  0.00  0.00    +0.010 C 
ATOM      6  C   UNL     1       0.914  -1.649   1.062  0.00  0.00    +0.003 C 
ATOM      7  C   UNL     1       0.800  -0.132   1.136  0.00  0.00    +0.104 C 
ATOM      8  C   UNL     1       0.691   0.516   2.502  0.00  0.00    +0.159 C 
ATOM      9  O   UNL     1       1.878   0.618   1.696  0.00  0.00    -0.363 OA
ATOM     10  C   UNL     1       0.855  -0.279   3.776  0.00  0.00    +0.073 C 
ATOM     11  C   UNL     1       0.974  -1.791   3.585  0.00  0.00    +0.183 C 
ATOM     12  C   UNL     1       1.573  -2.218   2.291  0.00  0.00    +0.054 C 
ATOM     13  O   UNL     1       1.844  -2.188   4.681  0.00  0.00    -0.461 OA
ATOM     14  C   UNL     1       2.837  -1.263   4.713  0.00  0.00    +0.309 C 
ATOM     15  O   UNL     1       4.017  -1.469   4.870  0.00  0.00    -0.251 OA
ATOM     16  C   UNL     1       2.171   0.072   4.500  0.00  0.00    +0.090 C 
ATOM     17  C   UNL     1      -0.509  -2.207   0.988  0.00  0.00    +0.014 C 
ENDROOT
BRANCH  16  18
ATOM     18  C   UNL     1       1.886   0.737   5.848  0.00  0.00    -0.064 C 
BRANCH  18  19
ATOM     19  N   UNL     1       3.151   1.162   6.462  0.00  0.00    +0.380 N 
ATOM     20  C   UNL     1       2.893   1.656   7.820  0.00  0.00    -0.076 C 
ATOM     21  C   UNL     1       4.216   2.024   8.493  0.00  0.00    +0.021 C 
ATOM     22  C   UNL     1       4.913   3.116   7.676  0.00  0.00    +0.088 C 
ATOM     23  C   UNL     1       5.110   2.617   6.241  0.00  0.00    +0.021 C 
ATOM     24  C   UNL     1       3.753   2.227   5.651  0.00  0.00    -0.076 C 
ATOM     25  H   UNL     1       3.783   0.377   6.507  0.00  0.00    -0.082 HD
BRANCH  22  26
ATOM     26  C   UNL     1       6.253   3.428   8.290  0.00  0.00    -0.016 A 
ATOM     27  C   UNL     1       6.952   2.442   8.961  0.00  0.00    +0.008 A 
ATOM     28  C   UNL     1       8.181   2.728   9.525  0.00  0.00    +0.020 A 
ATOM     29  C   UNL     1       8.712   4.001   9.417  0.00  0.00    +0.041 A 
ATOM     30  C   UNL     1       8.012   4.987   8.745  0.00  0.00    +0.020 A 
ATOM     31  C   UNL     1       6.786   4.698   8.177  0.00  0.00    +0.008 A 
ATOM     32 CL   UNL     1      10.256   4.360  10.125  0.00  0.00    -0.084 Cl
ENDBRANCH  22  26
BRANCH  22  33
ATOM     33  O   UNL     1       4.104   4.294   7.665  0.00  0.00    -0.384 OA
ATOM     34  H   UNL     1       4.485   5.028   7.164  0.00  0.00    +0.211 HD
ENDBRANCH  22  33
ENDBRANCH  18  19
ENDBRANCH  16  18
TORSDOF 4
