REMARK  Name = ZINC22418382
REMARK  9 active torsions:
REMARK  status: ('A' for Active; 'I' for Inactive)
REMARK    1  A    between atoms: C_1  and  N_2
REMARK    2  A    between atoms: N_2  and  C_3
REMARK    3  A    between atoms: N_2  and  C_4
REMARK    4  A    between atoms: C_7  and  C_10
REMARK    5  A    between atoms: C_10  and  C_12
REMARK    6  A    between atoms: C_10  and  N_25
REMARK    7  A    between atoms: C_12  and  N_13
REMARK    8  A    between atoms: N_16  and  C_17
REMARK    9  A    between atoms: C_17  and  C_18
REMARK                            x       y       z     vdW  Elec       q    Type
REMARK                         _______ _______ _______ _____ _____    ______ ____
ROOT
ATOM      1  C   UNL     1      -1.366   2.083  -5.810  0.00  0.00    -0.020 C 
ENDROOT
BRANCH   1   5
ATOM      2  C   UNL     1      -0.415   0.613  -9.709  0.00  0.00    +0.029 A 
ATOM      3  C   UNL     1       0.049   1.858  -9.302  0.00  0.00    +0.023 A 
ATOM      4  C   UNL     1      -0.260   2.329  -8.041  0.00  0.00    +0.004 A 
ATOM      5  C   UNL     1      -1.031   1.565  -7.185  0.00  0.00    -0.059 A 
ATOM      6  C   UNL     1      -1.490   0.323  -7.585  0.00  0.00    +0.004 A 
ATOM      7  C   UNL     1      -1.189  -0.152  -8.846  0.00  0.00    +0.023 A 
BRANCH   2   9
ATOM      8  C   UNL     1       0.714   0.942 -11.891  0.00  0.00    +0.129 C 
ATOM      9  N   UNL     1      -0.103   0.133 -10.983  0.00  0.00    -0.336 N 
ATOM     10  C   UNL     1      -0.594  -1.179 -11.411  0.00  0.00    +0.129 C 
ENDBRANCH   2   9
ENDBRANCH   1   5
BRANCH   1  11
ATOM     11  N   UNL     1      -2.759   1.745  -5.486  0.00  0.00    +0.385 N 
ATOM     12  C   UNL     1      -3.117   2.216  -4.123  0.00  0.00    -0.078 C 
ATOM     13  C   UNL     1      -4.665   2.265  -4.161  0.00  0.00    -0.020 C 
ATOM     14  C   UNL     1      -4.961   2.762  -5.595  0.00  0.00    -0.020 C 
ATOM     15  C   UNL     1      -3.697   2.423  -6.406  0.00  0.00    -0.078 C 
ATOM     16  H   UNL     1      -2.829   0.651  -5.572  0.00  0.00    -0.081 HD
ENDBRANCH   1  11
BRANCH   1  17
ATOM     17  C   UNL     1      -0.433   1.441  -4.781  0.00  0.00    +0.095 C 
BRANCH  17  18
ATOM     18  N   UNL     1       0.942   1.882  -5.028  0.00  0.00    -0.301 N 
ATOM     19  C   UNL     1       1.928   1.518  -4.184  0.00  0.00    +0.300 C 
ATOM     20  O   UNL     1       1.676   0.824  -3.218  0.00  0.00    -0.253 OA
ATOM     21  N   UNL     1       3.193   1.924  -4.411  0.00  0.00    -0.295 N 
ATOM     22  H   UNL     1       1.170   2.510  -5.902  0.00  0.00    +0.150 HD
ATOM     23  H   UNL     1       3.421   2.552  -5.285  0.00  0.00    +0.151 HD
BRANCH  21  24
ATOM     24  C   UNL     1       4.265   1.528  -3.494  0.00  0.00    +0.141 C 
BRANCH  24  25
ATOM     25  C   UNL     1       5.572   2.108  -3.969  0.00  0.00    -0.030 A 
ATOM     26  C   UNL     1       6.372   1.388  -4.837  0.00  0.00    +0.006 A 
ATOM     27  C   UNL     1       7.569   1.922  -5.278  0.00  0.00    +0.020 A 
ATOM     28  C   UNL     1       7.971   3.171  -4.841  0.00  0.00    +0.041 A 
ATOM     29  C   UNL     1       7.173   3.888  -3.967  0.00  0.00    +0.020 A 
ATOM     30  C   UNL     1       5.974   3.356  -3.532  0.00  0.00    +0.006 A 
ATOM     31 CL   UNL     1       9.477   3.839  -5.388  0.00  0.00    -0.084 Cl
ENDBRANCH  24  25
ENDBRANCH  21  24
ENDBRANCH  17  18
ENDBRANCH   1  17
TORSDOF 7
