REMARK  Name = ZINC38650134
REMARK  10 active torsions:
REMARK  status: ('A' for Active; 'I' for Inactive)
REMARK    1  A    between atoms: C_1  and  O_2
REMARK    2  A    between atoms: O_2  and  C_3
REMARK    3  A    between atoms: C_7  and  C_9
REMARK    4  A    between atoms: C_14  and  O_23
REMARK    5  A    between atoms: C_18  and  N_22
REMARK    6  A    between atoms: C_19  and  C_20
REMARK    7  A    between atoms: O_23  and  C_24
REMARK    8  A    between atoms: C_24  and  C_26
REMARK    9  A    between atoms: C_26  and  O_27
REMARK   10  A    between atoms: O_27  and  C_28
REMARK                            x       y       z     vdW  Elec       q    Type
REMARK                         _______ _______ _______ _____ _____    ______ ____
ROOT
ATOM      1  C   UNL     1       1.393  -4.117   2.274  0.00  0.00    +0.098 C 
ATOM      2  C   UNL     1       2.834  -4.554   2.259  0.00  0.00    +0.008 A 
ATOM      3  C   UNL     1       3.513  -4.617   1.055  0.00  0.00    +0.012 A 
ATOM      4  C   UNL     1       4.835  -5.016   1.022  0.00  0.00    +0.047 A 
ATOM      5  C   UNL     1       5.486  -5.357   2.199  0.00  0.00    +0.135 A 
ATOM      6  C   UNL     1       4.809  -5.295   3.406  0.00  0.00    +0.093 A 
ATOM      7  C   UNL     1       3.480  -4.893   3.438  0.00  0.00    +0.138 A 
ATOM      8  O   UNL     1       2.831  -4.838   4.627  0.00  0.00    -0.441 OA
ATOM      9  C   UNL     1       1.488  -4.836   4.658  0.00  0.00    +0.199 C 
ATOM     10  C   UNL     1       0.750  -4.503   3.576  0.00  0.00    +0.098 C 
ENDROOT
BRANCH   1  15
ATOM     11  C   UNL     1       0.592  -0.698   0.877  0.00  0.00    +0.120 A 
ATOM     12  C   UNL     1       1.203   0.129   1.808  0.00  0.00    +0.045 A 
ATOM     13  C   UNL     1       1.871  -0.420   2.885  0.00  0.00    +0.004 A 
ATOM     14  C   UNL     1       1.932  -1.794   3.035  0.00  0.00    +0.005 A 
ATOM     15  C   UNL     1       1.325  -2.620   2.108  0.00  0.00    -0.031 A 
ATOM     16  C   UNL     1       0.650  -2.076   1.032  0.00  0.00    +0.050 A 
BRANCH  11  18
ATOM     17  C   UNL     1      -0.085   1.265  -0.280  0.00  0.00    +0.277 C 
ATOM     18  O   UNL     1      -0.066  -0.160  -0.183  0.00  0.00    -0.495 OA
ENDBRANCH  11  18
ENDBRANCH   1  15
BRANCH   9  19
ATOM     19  N   UNL     1       0.848  -5.183   5.822  0.00  0.00    -0.328 N 
ATOM     20  H   UNL     1       1.365  -5.424   6.606  0.00  0.00    +0.145 HD
ATOM     21  H   UNL     1      -0.121  -5.186   5.860  0.00  0.00    +0.145 HD
ENDBRANCH   9  19
BRANCH  10  22
ATOM     22  C   UNL     1      -0.678  -4.519   3.676  0.00  0.00    +0.101 C 
ATOM     23  N   UNL     1      -1.812  -4.531   3.755  0.00  0.00    -0.191 NA
ENDBRANCH  10  22
BRANCH   5  24
ATOM     24  O   UNL     1       6.787  -5.751   2.168  0.00  0.00    -0.423 OA
BRANCH  24  25
ATOM     25  C   UNL     1       7.063  -7.035   2.444  0.00  0.00    +0.350 C 
ATOM     26  O   UNL     1       6.164  -7.825   2.608  0.00  0.00    -0.247 OA
BRANCH  25  27
ATOM     27  C   UNL     1       8.495  -7.492   2.550  0.00  0.00    +0.349 C 
BRANCH  27  28
ATOM     28  O   UNL     1       8.529  -8.889   2.849  0.00  0.00    -0.481 OA
BRANCH  28  29
ATOM     29  C   UNL     1       9.755  -9.463   2.979  0.00  0.00    +0.121 A 
ATOM     30  C   UNL     1      10.900  -8.695   2.827  0.00  0.00    +0.047 A 
ATOM     31  C   UNL     1      12.145  -9.281   2.960  0.00  0.00    +0.019 A 
ATOM     32  C   UNL     1      12.249 -10.631   3.243  0.00  0.00    +0.018 A 
ATOM     33  C   UNL     1      11.107 -11.398   3.394  0.00  0.00    +0.019 A 
ATOM     34  C   UNL     1       9.861 -10.815   3.269  0.00  0.00    +0.047 A 
ATOM     35 BR   UNL     1      13.953 -11.429   3.424  0.00  0.00    -0.050 Br
ENDBRANCH  28  29
ENDBRANCH  27  28
ENDBRANCH  25  27
ENDBRANCH  24  25
ENDBRANCH   5  24
TORSDOF 9
