REMARK  Name = ZINC21583954
REMARK  6 active torsions:
REMARK  status: ('A' for Active; 'I' for Inactive)
REMARK    1  A    between atoms: C_1  and  C_2
REMARK    2  A    between atoms: C_2  and  C_3
REMARK    3  A    between atoms: C_9  and  C_13
REMARK    4  A    between atoms: C_13  and  N_14
REMARK    5  A    between atoms: N_17  and  C_20
REMARK    6  A    between atoms: C_20  and  C_21
REMARK                            x       y       z     vdW  Elec       q    Type
REMARK                         _______ _______ _______ _____ _____    ______ ____
ROOT
ATOM      1  N   UNL     1       4.754  -3.545  -5.798  0.00  0.00    +0.385 N 
ATOM      2  C   UNL     1       5.809  -2.610  -5.386  0.00  0.00    -0.063 C 
ATOM      3  C   UNL     1       6.981  -3.394  -4.789  0.00  0.00    +0.066 C 
ATOM      4  N   UNL     1       7.500  -4.333  -5.793  0.00  0.00    -0.298 NA
ATOM      5  C   UNL     1       6.447  -5.259  -6.235  0.00  0.00    +0.066 C 
ATOM      6  C   UNL     1       5.280  -4.460  -6.819  0.00  0.00    -0.063 C 
ATOM      7  H   UNL     1       4.444  -4.075  -4.998  0.00  0.00    -0.081 HD
ENDROOT
BRANCH   1   8
ATOM      8  C   UNL     1       3.623  -2.791  -6.354  0.00  0.00    -0.022 C 
BRANCH   8  15
ATOM      9  C   UNL     1       0.707  -0.490  -1.238  0.00  0.00    +0.102 A 
ATOM     10  N   UNL     1       1.247   0.202  -2.195  0.00  0.00    -0.159 NA
ATOM     11  N   UNL     1       1.866  -0.410  -3.280  0.00  0.00    -0.171 N 
ATOM     12  C   UNL     1       2.466   0.203  -4.343  0.00  0.00    +0.275 A 
ATOM     13  O   UNL     1       2.497   1.422  -4.408  0.00  0.00    -0.266 OA
ATOM     14  C   UNL     1       3.043  -0.566  -5.353  0.00  0.00    +0.093 A 
ATOM     15  C   UNL     1       3.005  -1.942  -5.273  0.00  0.00    +0.033 A 
ATOM     16  N   UNL     1       2.412  -2.507  -4.224  0.00  0.00    -0.228 NA
ATOM     17  C   UNL     1       1.873  -1.778  -3.280  0.00  0.00    +0.199 A 
ATOM     18  S   UNL     1       1.024  -2.167  -1.765  0.00  0.00    -0.033 S 
BRANCH   9  20
ATOM     19  C   UNL     1      -0.019   1.526   0.010  0.00  0.00    +0.011 C 
ATOM     20  C   UNL     1       0.002  -0.004   0.002  0.00  0.00    +0.061 C 
ENDBRANCH   9  20
ENDBRANCH   8  15
ENDBRANCH   1   8
BRANCH   4  21
ATOM     21  C   UNL     1       8.663  -5.066  -5.277  0.00  0.00    +0.180 C 
BRANCH  21  22
ATOM     22  C   UNL     1       9.315  -5.830  -6.401  0.00  0.00    +0.230 C 
ATOM     23  O   UNL     1       8.854  -5.771  -7.521  0.00  0.00    -0.274 OA
ATOM     24  N   UNL     1      10.408  -6.580  -6.160  0.00  0.00    -0.296 N 
ATOM     25  C   UNL     1      10.981  -6.673  -4.808  0.00  0.00    +0.136 C 
ATOM     26  C   UNL     1      11.172  -8.155  -4.464  0.00  0.00    +0.179 C 
ATOM     27  O   UNL     1      11.911  -8.789  -5.511  0.00  0.00    -0.377 OA
ATOM     28  C   UNL     1      11.252  -8.781  -6.780  0.00  0.00    +0.179 C 
ATOM     29  C   UNL     1      11.061  -7.336  -7.241  0.00  0.00    +0.136 C 
ENDBRANCH  21  22
ENDBRANCH   4  21
TORSDOF 5
