REMARK  Name = ZINC04916427
REMARK  8 active torsions:
REMARK  status: ('A' for Active; 'I' for Inactive)
REMARK    1  A    between atoms: C_1  and  C_2
REMARK    2  A    between atoms: C_2  and  C_3
REMARK    3  A    between atoms: C_3  and  C_5
REMARK    4  A    between atoms: C_3  and  O_6
REMARK    5  A    between atoms: O_6  and  C_7
REMARK    6  A    between atoms: C_12  and  C_13
REMARK    7  A    between atoms: C_24  and  C_26
REMARK    8  A    between atoms: C_24  and  C_27
REMARK                            x       y       z     vdW  Elec       q    Type
REMARK                         _______ _______ _______ _____ _____    ______ ____
ROOT
ATOM      1  C   UNL     1       2.030  -1.607   3.377  0.00  0.00    +0.066 C 
ATOM      2  C   UNL     1       2.120  -3.102   3.684  0.00  0.00    +0.109 C 
ATOM      3  C   UNL     1       3.538  -3.440   4.072  0.00  0.00    +0.218 C 
ATOM      4  O   UNL     1       4.019  -4.503   3.741  0.00  0.00    -0.275 OA
ATOM      5  N   UNL     1       4.267  -2.565   4.783  0.00  0.00    -0.289 N 
ATOM      6  C   UNL     1       3.781  -1.325   5.110  0.00  0.00    +0.018 C 
ATOM      7  C   UNL     1       2.697  -0.823   4.484  0.00  0.00    +0.020 C 
ATOM      8  C   UNL     1       2.163   0.428   4.835  0.00  0.00    +0.162 C 
ATOM      9  O   UNL     1       1.168   0.835   4.268  0.00  0.00    -0.292 OA
ATOM     10  C   UNL     1       2.805   1.272   5.904  0.00  0.00    +0.086 C 
ATOM     11  C   UNL     1       4.303   0.954   5.951  0.00  0.00    -0.023 C 
ATOM     12  C   UNL     1       4.474  -0.546   6.201  0.00  0.00    +0.058 C 
ATOM     13  C   UNL     1       4.952   1.329   4.617  0.00  0.00    +0.011 C 
ATOM     14  C   UNL     1       4.961   1.745   7.083  0.00  0.00    +0.011 C 
ATOM     15  H   UNL     1       5.159  -2.816   5.072  0.00  0.00    +0.155 HD
ENDROOT
BRANCH   1  21
ATOM     16  C   UNL     1       2.014  -0.764   1.016  0.00  0.00    +0.125 A 
ATOM     17  C   UNL     1       2.656  -0.496  -0.184  0.00  0.00    +0.046 A 
ATOM     18  C   UNL     1       3.999  -0.788  -0.328  0.00  0.00    +0.004 A 
ATOM     19  C   UNL     1       4.702  -1.347   0.723  0.00  0.00    +0.001 A 
ATOM     20  C   UNL     1       4.065  -1.615   1.920  0.00  0.00    +0.008 A 
ATOM     21  C   UNL     1       2.723  -1.320   2.070  0.00  0.00    +0.002 A 
BRANCH  16  22
ATOM     22  O   UNL     1       0.693  -0.477   1.160  0.00  0.00    -0.489 OA
BRANCH  22  23
ATOM     23  C   UNL     1       0.000  -0.013  -0.000  0.00  0.00    +0.170 C 
ATOM     24  C   UNL     1       0.194   1.499  -0.139  0.00  0.00    +0.052 C 
BRANCH  23  26
ATOM     25  C   UNL     1      -1.696  -1.841   0.151  0.00  0.00    +0.007 C 
ATOM     26  C   UNL     1      -1.492  -0.325   0.138  0.00  0.00    +0.041 C 
ENDBRANCH  23  26
ENDBRANCH  22  23
ENDBRANCH  16  22
ENDBRANCH   1  21
TORSDOF 4
