REMARK  Name = ZINC12804886
REMARK  5 active torsions:
REMARK  status: ('A' for Active; 'I' for Inactive)
REMARK    1  A    between atoms: C_4  and  C_7
REMARK    2  A    between atoms: C_7  and  C_9
REMARK    3  A    between atoms: C_7  and  O_12
REMARK    4  A    between atoms: O_12  and  C_13
REMARK    5  A    between atoms: C_13  and  C_15
REMARK                            x       y       z     vdW  Elec       q    Type
REMARK                         _______ _______ _______ _____ _____    ______ ____
ROOT
ATOM      1  C   UNL     1      -0.014   1.212   0.009  0.00  0.00    +0.347 C 
ATOM      2  O   UNL     1       0.002  -0.004   0.002  0.00  0.00    -0.244 OA
ENDROOT
BRANCH   1   3
ATOM      3  C   UNL     1      -1.290   1.926   0.019  0.00  0.00    +0.097 A 
ATOM      4  C   UNL     1      -2.580   1.409   0.016  0.00  0.00    +0.030 A 
ATOM      5  C   UNL     1      -3.651   2.261   0.031  0.00  0.00    +0.005 A 
ATOM      6  C   UNL     1      -3.351   3.633   0.039  0.00  0.00    +0.030 A 
ATOM      7  S   UNL     1      -1.591   3.690   0.029  0.00  0.00    -0.081 S 
ATOM      8  C   UNL     1      -4.387   4.657   0.058  0.00  0.00    +0.031 A 
ATOM      9  C   UNL     1      -4.160   5.998  -0.210  0.00  0.00    +0.012 A 
ATOM     10  C   UNL     1      -5.216   6.889  -0.184  0.00  0.00    +0.001 A 
ATOM     11  C   UNL     1      -6.494   6.443   0.108  0.00  0.00    +0.004 A 
ATOM     12  C   UNL     1      -6.731   5.109   0.385  0.00  0.00    +0.046 A 
ATOM     13  C   UNL     1      -5.687   4.201   0.373  0.00  0.00    +0.129 A 
ATOM     14  O   UNL     1      -5.888   2.894   0.660  0.00  0.00    -0.487 OA
ATOM     15  C   UNL     1      -5.124   1.867   0.031  0.00  0.00    +0.265 C 
ENDBRANCH   1   3
BRANCH   1  16
ATOM     16  O   UNL     1       1.145   1.903   0.001  0.00  0.00    -0.443 OA
BRANCH  16  17
ATOM     17  C   UNL     1       2.354   1.141  -0.014  0.00  0.00    +0.292 C 
BRANCH  17  21
ATOM     18  C   UNL     1       5.437   3.322   1.982  0.00  0.00    +0.000 A 
ATOM     19  C   UNL     1       5.390   1.944   2.080  0.00  0.00    +0.000 A 
ATOM     20  C   UNL     1       4.393   1.238   1.434  0.00  0.00    +0.008 A 
ATOM     21  C   UNL     1       3.442   1.910   0.690  0.00  0.00    +0.002 A 
ATOM     22  C   UNL     1       3.491   3.288   0.587  0.00  0.00    +0.008 A 
ATOM     23  C   UNL     1       4.487   3.994   1.236  0.00  0.00    +0.000 A 
ENDBRANCH  17  21
BRANCH  17  24
ATOM     24  C   UNL     1       2.765   0.881  -1.440  0.00  0.00    +0.256 C 
ATOM     25  O   UNL     1       2.142   1.381  -2.352  0.00  0.00    -0.272 OA
ATOM     26  N   UNL     1       3.826   0.092  -1.703  0.00  0.00    -0.326 N 
ATOM     27  H   UNL     1       4.324  -0.308  -0.973  0.00  0.00    +0.145 HD
ATOM     28  H   UNL     1       4.091  -0.076  -2.621  0.00  0.00    +0.145 HD
ENDBRANCH  17  24
ENDBRANCH  16  17
ENDBRANCH   1  16
TORSDOF 5
