REMARK  Name = ZINC39655093
REMARK  5 active torsions:
REMARK  status: ('A' for Active; 'I' for Inactive)
REMARK    1  A    between atoms: C_5  and  C_7
REMARK    2  A    between atoms: C_10  and  C_12
REMARK    3  A    between atoms: C_16  and  C_25
REMARK    4  A    between atoms: N_27  and  C_28
REMARK    5  A    between atoms: C_28  and  C_29
REMARK                            x       y       z     vdW  Elec       q    Type
REMARK                         _______ _______ _______ _____ _____    ______ ____
ROOT
ATOM      1  C   UNL     1       2.223  -5.364  -1.365  0.00  0.00    +0.282 C 
ATOM      2  O   UNL     1       1.910  -6.496  -1.043  0.00  0.00    -0.267 OA
ATOM      3  N   UNL     1       3.062  -5.166  -2.400  0.00  0.00    -0.294 N 
ATOM      4  C   UNL     1       3.644  -3.884  -2.865  0.00  0.00    +0.121 C 
ATOM      5  C   UNL     1       5.097  -4.235  -3.256  0.00  0.00    +0.100 C 
ATOM      6  C   UNL     1       5.069  -5.742  -3.563  0.00  0.00    -0.004 C 
ATOM      7  C   UNL     1       3.616  -6.180  -3.328  0.00  0.00    +0.115 C 
ATOM      8  C   UNL     1       5.999  -6.492  -2.615  0.00  0.00    -0.010 C 
ATOM      9  C   UNL     1       5.997  -7.980  -2.977  0.00  0.00    -0.082 C 
ATOM     10  N   UNL     1       6.441  -8.148  -4.366  0.00  0.00    +0.379 N 
ATOM     11  C   UNL     1       5.490  -7.501  -5.278  0.00  0.00    -0.082 C 
ATOM     12  C   UNL     1       5.470  -5.993  -5.013  0.00  0.00    -0.010 C 
ATOM     13  H   UNL     1       7.352  -7.728  -4.479  0.00  0.00    -0.086 HD
ATOM     14  H   UNL     1       6.498  -9.132  -4.583  0.00  0.00    -0.086 HD
ENDROOT
BRANCH   1  18
ATOM     15  C   UNL     1       1.235  -2.150  -0.038  0.00  0.00    +0.139 A 
ATOM     16  C   UNL     1       0.623  -2.961   0.875  0.00  0.00    +0.051 A 
ATOM     17  C   UNL     1       0.906  -4.280   0.507  0.00  0.00    +0.055 A 
ATOM     18  C   UNL     1       1.687  -4.218  -0.626  0.00  0.00    +0.190 A 
ATOM     19  O   UNL     1       1.869  -2.918  -0.940  0.00  0.00    -0.450 OA
BRANCH  15  24
ATOM     20  C   UNL     1      -0.048   1.379  -0.025  0.00  0.00    +0.001 A 
ATOM     21  C   UNL     1       1.135   2.097  -0.037  0.00  0.00    +0.003 A 
ATOM     22  C   UNL     1       2.351   1.439  -0.049  0.00  0.00    +0.039 A 
ATOM     23  C   UNL     1       2.393   0.057  -0.049  0.00  0.00    +0.134 A 
ATOM     24  C   UNL     1       1.200  -0.674  -0.037  0.00  0.00    +0.052 A 
ATOM     25  C   UNL     1      -0.023  -0.000  -0.025  0.00  0.00    +0.014 A 
ATOM     26  F   UNL     1       3.581  -0.585  -0.061  0.00  0.00    -0.205 F 
ENDBRANCH  15  24
ENDBRANCH   1  18
BRANCH   5  27
ATOM     27  C   UNL     1       6.032  -3.948  -2.109  0.00  0.00    +0.219 C 
ATOM     28  O   UNL     1       5.614  -3.951  -0.970  0.00  0.00    -0.275 OA
ATOM     29  N   UNL     1       7.333  -3.690  -2.349  0.00  0.00    -0.308 N 
ATOM     30  H   UNL     1       7.653  -3.616  -3.261  0.00  0.00    +0.149 HD
BRANCH  29  31
ATOM     31  C   UNL     1       8.264  -3.520  -1.230  0.00  0.00    +0.178 C 
BRANCH  31  32
ATOM     32  C   UNL     1       9.618  -3.121  -1.760  0.00  0.00    +0.122 A 
ATOM     33  C   UNL     1      10.080  -1.863  -1.869  0.00  0.00    +0.046 A 
ATOM     34  C   UNL     1      11.384  -1.951  -2.410  0.00  0.00    +0.041 A 
ATOM     35  C   UNL     1      11.640  -3.259  -2.598  0.00  0.00    +0.195 A 
ATOM     36  O   UNL     1      10.569  -3.963  -2.197  0.00  0.00    -0.466 OA
ENDBRANCH  31  32
ENDBRANCH  29  31
ENDBRANCH   5  27
TORSDOF 5
