REMARK  Name = ZINC43221003
REMARK  5 active torsions:
REMARK  status: ('A' for Active; 'I' for Inactive)
REMARK    1  A    between atoms: C_6  and  C_7
REMARK    2  A    between atoms: N_15  and  C_18
REMARK    3  A    between atoms: C_24  and  C_26
REMARK    4  A    between atoms: C_24  and  C_28
REMARK    5  A    between atoms: C_26  and  O_27
REMARK                            x       y       z     vdW  Elec       q    Type
REMARK                         _______ _______ _______ _____ _____    ______ ____
ROOT
ATOM      1  C   UNL     1      -1.293  -0.775   0.010  0.00  0.00    -0.027 C 
ATOM      2  C   UNL     1      -1.528  -1.393   1.379  0.00  0.00    +0.077 C 
ATOM      3  C   UNL     1      -0.710  -2.725   1.177  0.00  0.00    +0.088 C 
ATOM      4  C   UNL     1      -0.554  -3.182   2.535  0.00  0.00    +0.225 C 
ATOM      5  O   UNL     1      -0.527  -4.328   2.929  0.00  0.00    -0.275 OA
ATOM      6  N   UNL     1      -0.443  -2.038   3.286  0.00  0.00    -0.239 N 
ATOM      7  C   UNL     1      -0.801  -0.903   2.592  0.00  0.00    +0.225 C 
ATOM      8  O   UNL     1      -0.575   0.249   2.893  0.00  0.00    -0.275 OA
ATOM      9  C   UNL     1      -1.214  -3.199  -0.124  0.00  0.00    +0.071 C 
ATOM     10  N   UNL     1      -1.216  -1.924  -0.942  0.00  0.00    +0.397 N 
ATOM     11  H   UNL     1      -2.020  -1.915  -1.553  0.00  0.00    -0.083 HD
ATOM     12  H   UNL     1      -0.370  -1.859  -1.489  0.00  0.00    -0.083 HD
ENDROOT
BRANCH   1  18
ATOM     13  C   UNL     1       1.197  -0.663  -0.217  0.00  0.00    +0.003 A 
ATOM     14  C   UNL     1       2.385   0.043  -0.225  0.00  0.00    +0.015 A 
ATOM     15  C   UNL     1       2.378   1.411  -0.013  0.00  0.00    +0.018 A 
ATOM     16  C   UNL     1       1.182   2.070   0.206  0.00  0.00    +0.015 A 
ATOM     17  C   UNL     1      -0.006   1.362   0.213  0.00  0.00    +0.003 A 
ATOM     18  C   UNL     1       0.002  -0.004   0.002  0.00  0.00    -0.061 A 
ATOM     19 BR   UNL     1       4.003   2.378  -0.023  0.00  0.00    -0.050 Br
ENDBRANCH   1  18
BRANCH   6  20
ATOM     20  C   UNL     1      -0.000  -2.023   4.682  0.00  0.00    +0.084 C 
ATOM     21  C   UNL     1      -1.105  -1.433   5.561  0.00  0.00    +0.023 C 
ATOM     22  C   UNL     1      -0.643  -1.417   7.019  0.00  0.00    +0.002 C 
ATOM     23  C   UNL     1       0.621  -0.563   7.145  0.00  0.00    +0.000 C 
ATOM     24  C   UNL     1       1.725  -1.154   6.267  0.00  0.00    +0.002 C 
ATOM     25  C   UNL     1       1.263  -1.169   4.808  0.00  0.00    +0.023 C 
ENDBRANCH   6  20
BRANCH   9  26
ATOM     26  C   UNL     1      -2.602  -3.769   0.016  0.00  0.00    +0.348 C 
ATOM     27  O   UNL     1      -3.528  -3.279  -0.608  0.00  0.00    -0.248 OA
ATOM     28  O   UNL     1      -2.799  -4.721   0.752  0.00  0.00    -0.248 OA
ENDBRANCH   9  26
BRANCH   9  29
ATOM     29  C   UNL     1      -0.261  -4.227  -0.735  0.00  0.00    +0.155 C 
BRANCH  29  30
ATOM     30  O   UNL     1      -0.715  -4.580  -2.043  0.00  0.00    -0.396 OA
ATOM     31  H   UNL     1      -0.157  -5.229  -2.492  0.00  0.00    +0.209 HD
ENDBRANCH  29  30
ENDBRANCH   9  29
TORSDOF 5
