REMARK  Name = ZINC35605790
REMARK  3 active torsions:
REMARK  status: ('A' for Active; 'I' for Inactive)
REMARK    1  A    between atoms: C_1  and  N_2
REMARK    2  A    between atoms: C_7  and  C_9
REMARK    3  A    between atoms: N_17  and  C_19
REMARK                            x       y       z     vdW  Elec       q    Type
REMARK                         _______ _______ _______ _____ _____    ______ ____
ROOT
ATOM      1  C   UNL     1      -0.018   1.461   0.010  0.00  0.00    +0.127 C 
ATOM      2  N   UNL     1       0.002  -0.004   0.002  0.00  0.00    -0.332 N 
ATOM      3  C   UNL     1       0.621  -0.694   1.032  0.00  0.00    +0.124 A 
ATOM      4  C   UNL     1       0.652  -2.092   1.032  0.00  0.00    -0.003 A 
ATOM      5  C   UNL     1       1.280  -2.733   2.074  0.00  0.00    +0.046 A 
ATOM      6  N   UNL     1       1.830  -2.009   3.042  0.00  0.00    -0.236 NA
ATOM      7  C   UNL     1       1.785  -0.693   3.015  0.00  0.00    +0.134 A 
ATOM      8  N   UNL     1       1.200  -0.038   2.032  0.00  0.00    -0.217 NA
ATOM      9  C   UNL     1       1.358  -4.235   2.139  0.00  0.00    +0.037 C 
ATOM     10  C   UNL     1       0.337  -4.846   1.177  0.00  0.00    -0.073 C 
ATOM     11  N   UNL     1       0.504  -4.225  -0.145  0.00  0.00    +0.381 N 
ATOM     12  C   UNL     1       0.003  -2.847  -0.094  0.00  0.00    -0.038 C 
ATOM     13  C   UNL     1      -0.255  -4.987  -1.145  0.00  0.00    -0.096 C 
ATOM     14  H   UNL     1      -0.418  -0.491  -0.724  0.00  0.00    +0.147 HD
ATOM     15  H   UNL     1       1.482  -4.219  -0.394  0.00  0.00    -0.082 HD
ENDROOT
BRANCH   7  16
ATOM     16  C   UNL     1       2.425   0.086   4.136  0.00  0.00    +0.053 C 
ATOM     17  C   UNL     1       1.367   0.952   4.826  0.00  0.00    -0.008 C 
ATOM     18  C   UNL     1       2.037   1.798   5.910  0.00  0.00    -0.082 C 
ATOM     19  N   UNL     1       3.057   2.661   5.302  0.00  0.00    +0.379 N 
ATOM     20  C   UNL     1       4.112   1.837   4.700  0.00  0.00    -0.082 C 
ATOM     21  C   UNL     1       3.521   0.992   3.569  0.00  0.00    -0.008 C 
ATOM     22  H   UNL     1       2.630   3.233   4.588  0.00  0.00    -0.086 HD
ATOM     23  H   UNL     1       3.459   3.256   6.011  0.00  0.00    -0.086 HD
ENDBRANCH   7  16
TORSDOF 1
