REMARK  Name = ZINC09034863
REMARK  6 active torsions:
REMARK  status: ('A' for Active; 'I' for Inactive)
REMARK    1  A    between atoms: C_1  and  C_2
REMARK    2  A    between atoms: C_2  and  C_3
REMARK    3  A    between atoms: C_2  and  C_4
REMARK    4  A    between atoms: C_19  and  C_21
REMARK    5  A    between atoms: N_26  and  S_28
REMARK    6  A    between atoms: S_28  and  C_31
REMARK                            x       y       z     vdW  Elec       q    Type
REMARK                         _______ _______ _______ _____ _____    ______ ____
ROOT
ATOM      1  C   UNL     1      -0.014   1.540  -0.009  0.00  0.00    -0.018 A 
ATOM      2  C   UNL     1       1.165   2.240  -0.016  0.00  0.00    +0.006 A 
ATOM      3  C   UNL     1       1.184   3.627  -0.004  0.00  0.00    +0.001 A 
ATOM      4  C   UNL     1      -0.012   4.321   0.017  0.00  0.00    +0.017 A 
ATOM      5  C   UNL     1      -1.197   3.628   0.024  0.00  0.00    +0.041 A 
ATOM      6  C   UNL     1      -1.255   2.216   0.006  0.00  0.00    +0.084 A 
ATOM      7  N   UNL     1      -2.496   1.681   0.021  0.00  0.00    -0.224 NA
ATOM      8  C   UNL     1      -3.582   2.420   0.041  0.00  0.00    +0.162 A 
ATOM      9  S   UNL     1      -2.915   4.078   0.049  0.00  0.00    -0.052 S 
ATOM     10  N   UNL     1      -4.902   2.018   0.053  0.00  0.00    -0.307 N 
ATOM     11  C   UNL     1      -5.194   1.136  -1.085  0.00  0.00    +0.126 C 
ATOM     12  C   UNL     1      -6.610   0.569  -0.936  0.00  0.00    +0.126 C 
ATOM     13  N   UNL     1      -7.546   1.690  -0.762  0.00  0.00    -0.298 N 
ATOM     14  C   UNL     1      -7.246   2.693   0.270  0.00  0.00    +0.126 C 
ATOM     15  C   UNL     1      -5.805   3.177   0.074  0.00  0.00    +0.126 C 
ATOM     16  C   UNL     1      -8.650   1.795  -1.529  0.00  0.00    +0.220 C 
ATOM     17  O   UNL     1      -9.455   2.676  -1.315  0.00  0.00    -0.275 OA
ENDROOT
BRANCH  16  18
ATOM     18  C   UNL     1      -8.884   0.817  -2.651  0.00  0.00    +0.091 C 
ATOM     19  C   UNL     1      -8.145   1.293  -3.905  0.00  0.00    +0.015 C 
ATOM     20  C   UNL     1      -8.355   0.283  -5.036  0.00  0.00    +0.018 C 
ATOM     21  C   UNL     1      -9.849   0.190  -5.361  0.00  0.00    +0.109 C 
ATOM     22  N   UNL     1     -10.583  -0.125  -4.128  0.00  0.00    -0.175 NA
ATOM     23  C   UNL     1     -10.384   0.730  -2.950  0.00  0.00    +0.122 C 
BRANCH  22  24
ATOM     24  S   UNL     1     -11.614  -1.419  -4.067  0.00  0.00    +0.067 S 
ATOM     25  O   UNL     1     -11.189  -2.326  -5.075  0.00  0.00    -0.152 OA
ATOM     26  O   UNL     1     -11.716  -1.794  -2.700  0.00  0.00    -0.152 OA
BRANCH  24  27
ATOM     27  C   UNL     1     -13.206  -0.839  -4.550  0.00  0.00    +0.143 A 
ATOM     28  C   UNL     1     -13.755  -0.783  -5.788  0.00  0.00    +0.036 A 
ATOM     29  C   UNL     1     -15.036  -0.284  -5.932  0.00  0.00    +0.010 A 
ATOM     30  C   UNL     1     -15.706   0.134  -4.830  0.00  0.00    +0.047 A 
ATOM     31  S   UNL     1     -14.519  -0.180  -3.535  0.00  0.00    -0.077 S 
ENDBRANCH  24  27
ENDBRANCH  22  24
ENDBRANCH  16  18
BRANCH   1  33
ATOM     32  C   UNL     1       0.730  -0.452  -1.285  0.00  0.00    +0.012 C 
ATOM     33  C   UNL     1       0.014   0.033  -0.023  0.00  0.00    +0.015 C 
ATOM     34  C   UNL     1       0.759  -0.474   1.213  0.00  0.00    +0.012 C 
ENDBRANCH   1  33
TORSDOF 4
