REMARK  Name = ZINC17113321
REMARK  11 active torsions:
REMARK  status: ('A' for Active; 'I' for Inactive)
REMARK    1  A    between atoms: C_1  and  C_2
REMARK    2  A    between atoms: C_2  and  C_3
REMARK    3  A    between atoms: C_2  and  C_4
REMARK    4  A    between atoms: C_4  and  C_5
REMARK    5  A    between atoms: C_9  and  S_11
REMARK    6  A    between atoms: S_11  and  C_12
REMARK    7  A    between atoms: C_12  and  C_13
REMARK    8  A    between atoms: C_18  and  C_21
REMARK    9  A    between atoms: C_21  and  C_22
REMARK   10  A    between atoms: N_30  and  C_35
REMARK   11  A    between atoms: N_33  and  C_34
REMARK                            x       y       z     vdW  Elec       q    Type
REMARK                         _______ _______ _______ _____ _____    ______ ____
ROOT
ATOM      1  C   UNL     1      -2.800   4.027   4.885  0.00  0.00    +0.133 A 
ATOM      2  N   UNL     1      -2.640   2.742   4.627  0.00  0.00    -0.214 NA
ATOM      3  C   UNL     1      -2.014   2.350   3.526  0.00  0.00    +0.154 A 
ATOM      4  C   UNL     1      -1.523   3.327   2.640  0.00  0.00    +0.114 A 
ATOM      5  C   UNL     1      -1.716   4.681   2.954  0.00  0.00    +0.115 A 
ATOM      6  N   UNL     1      -2.359   4.976   4.086  0.00  0.00    -0.225 NA
ATOM      7  C   UNL     1      -0.827   2.887   1.427  0.00  0.00    +0.268 A 
ATOM      8  O   UNL     1      -0.381   3.695   0.633  0.00  0.00    -0.267 OA
ATOM      9  N   UNL     1      -0.698   1.558   1.213  0.00  0.00    -0.263 N 
ATOM     10  C   UNL     1      -1.184   0.664   2.089  0.00  0.00    +0.333 A 
ATOM     11  O   UNL     1      -1.038  -0.519   1.853  0.00  0.00    -0.246 OA
ATOM     12  N   UNL     1      -1.825   1.020   3.217  0.00  0.00    -0.281 N 
ATOM     13  C   UNL     1      -2.327  -0.015   4.124  0.00  0.00    +0.155 C 
ATOM     14  C   UNL     1      -0.013   1.086   0.008  0.00  0.00    +0.157 C 
ENDROOT
BRANCH   1  15
ATOM     15  C   UNL     1      -3.519   4.424   6.149  0.00  0.00    +0.079 C 
BRANCH  15  17
ATOM     16  C   UNL     1      -5.763   4.826   7.173  0.00  0.00    +0.007 C 
ATOM     17  C   UNL     1      -5.018   4.545   5.866  0.00  0.00    -0.010 C 
ATOM     18  C   UNL     1      -5.261   5.693   4.884  0.00  0.00    +0.007 C 
ENDBRANCH  15  17
ENDBRANCH   1  15
BRANCH   5  19
ATOM     19  S   UNL     1      -1.126   5.953   1.887  0.00  0.00    -0.096 S 
BRANCH  19  20
ATOM     20  C   UNL     1      -1.664   7.413   2.812  0.00  0.00    +0.171 C 
BRANCH  20  21
ATOM     21  C   UNL     1      -1.257   8.658   2.067  0.00  0.00    +0.226 C 
ATOM     22  O   UNL     1      -0.661   8.567   1.014  0.00  0.00    -0.275 OA
ATOM     23  N   UNL     1      -1.554   9.872   2.570  0.00  0.00    -0.301 N 
ATOM     24  C   UNL     1      -2.281   9.999   3.841  0.00  0.00    +0.108 C 
ATOM     25  C   UNL     1      -1.472  10.910   4.777  0.00  0.00    +0.023 C 
ATOM     26  C   UNL     1      -1.200  12.241   4.074  0.00  0.00    -0.004 C 
ATOM     27  C   UNL     1      -0.372  11.994   2.811  0.00  0.00    +0.023 C 
ATOM     28  C   UNL     1      -1.163  11.095   1.855  0.00  0.00    +0.108 C 
BRANCH  26  29
ATOM     29  C   UNL     1      -0.428  13.166   5.016  0.00  0.00    +0.038 C 
BRANCH  29  30
ATOM     30  C   UNL     1      -1.291  13.509   6.203  0.00  0.00    -0.047 A 
ATOM     31  C   UNL     1      -2.110  14.623   6.164  0.00  0.00    +0.003 A 
ATOM     32  C   UNL     1      -2.905  14.935   7.250  0.00  0.00    +0.000 A 
ATOM     33  C   UNL     1      -2.874  14.139   8.380  0.00  0.00    +0.000 A 
ATOM     34  C   UNL     1      -2.053  13.028   8.421  0.00  0.00    +0.000 A 
ATOM     35  C   UNL     1      -1.261  12.714   7.333  0.00  0.00    +0.003 A 
ENDBRANCH  29  30
ENDBRANCH  26  29
ENDBRANCH  20  21
ENDBRANCH  19  20
ENDBRANCH   5  19
TORSDOF 7
