REMARK  Name = ZINC67638202
REMARK  6 active torsions:
REMARK  status: ('A' for Active; 'I' for Inactive)
REMARK    1  A    between atoms: C_4  and  N_7
REMARK    2  A    between atoms: N_7  and  C_8
REMARK    3  A    between atoms: N_16  and  C_17
REMARK    4  A    between atoms: C_17  and  C_18
REMARK    5  A    between atoms: N_23  and  C_25
REMARK    6  A    between atoms: C_25  and  C_26
REMARK                            x       y       z     vdW  Elec       q    Type
REMARK                         _______ _______ _______ _____ _____    ______ ____
ROOT
ATOM      1  C   UNL     1       3.641  -2.114  -0.044  0.00  0.00    +0.089 C 
ATOM      2  C   UNL     1       4.984  -2.640  -0.617  0.00  0.00    +0.043 C 
ATOM      3  C   UNL     1       5.091  -4.027   0.065  0.00  0.00    +0.111 C 
ATOM      4  N   UNL     1       4.549  -3.823   1.421  0.00  0.00    -0.284 N 
ATOM      5  C   UNL     1       3.635  -2.668   1.396  0.00  0.00    +0.131 C 
ATOM      6  C   UNL     1       4.837  -4.573   2.503  0.00  0.00    +0.302 C 
ATOM      7  O   UNL     1       4.328  -4.312   3.576  0.00  0.00    -0.253 OA
ATOM      8  N   UNL     1       5.690  -5.611   2.396  0.00  0.00    -0.299 N 
ATOM      9  H   UNL     1       6.096  -5.819   1.540  0.00  0.00    +0.150 HD
ENDROOT
BRANCH   1  10
ATOM     10  N   UNL     1       3.620  -0.649  -0.036  0.00  0.00    -0.339 N 
ATOM     11  H   UNL     1       4.452  -0.152  -0.042  0.00  0.00    +0.146 HD
BRANCH  10  15
ATOM     12  C   UNL     1      -0.017   1.379   0.010  0.00  0.00    +0.000 A 
ATOM     13  C   UNL     1       1.169   2.089   0.002  0.00  0.00    +0.002 A 
ATOM     14  C   UNL     1       2.377   1.420  -0.013  0.00  0.00    +0.023 A 
ATOM     15  C   UNL     1       2.400   0.031  -0.021  0.00  0.00    +0.027 A 
ATOM     16  C   UNL     1       1.206  -0.680  -0.013  0.00  0.00    +0.023 A 
ATOM     17  C   UNL     1       0.002  -0.004   0.002  0.00  0.00    +0.002 A 
ENDBRANCH  10  15
ENDBRANCH   1  10
BRANCH   8  18
ATOM     18  C   UNL     1       6.004  -6.426   3.572  0.00  0.00    +0.107 C 
BRANCH  18  19
ATOM     19  C   UNL     1       6.989  -7.529   3.180  0.00  0.00    -0.011 C 
ATOM     20  C   UNL     1       8.320  -6.900   2.759  0.00  0.00    +0.001 C 
ATOM     21  C   UNL     1       9.322  -8.014   2.444  0.00  0.00    -0.018 C 
ATOM     22  C   UNL     1       9.471  -8.920   3.668  0.00  0.00    -0.078 C 
ATOM     23  N   UNL     1       8.170  -9.511   4.005  0.00  0.00    +0.383 N 
ATOM     24  C   UNL     1       7.223  -8.454   4.377  0.00  0.00    -0.073 C 
ATOM     25  H   UNL     1       7.813 -10.014   3.206  0.00  0.00    -0.081 HD
BRANCH  23  26
ATOM     26  C   UNL     1       8.332 -10.440   5.131  0.00  0.00    -0.036 C 
BRANCH  26  27
ATOM     27  C   UNL     1       9.199 -11.598   4.708  0.00  0.00    -0.027 A 
ATOM     28  C   UNL     1      10.546 -11.728   4.784  0.00  0.00    +0.009 A 
ATOM     29  C   UNL     1      11.133 -12.894   4.330  0.00  0.00    +0.008 A 
ATOM     30  C   UNL     1      10.345 -13.872   3.821  0.00  0.00    +0.045 A 
ATOM     31  S   UNL     1       8.718 -13.156   3.982  0.00  0.00    -0.103 S 
ENDBRANCH  26  27
ENDBRANCH  23  26
ENDBRANCH  18  19
ENDBRANCH   8  18
TORSDOF 6
