REMARK  Name = ZINC08751453
REMARK  12 active torsions:
REMARK  status: ('A' for Active; 'I' for Inactive)
REMARK    1  A    between atoms: C_1  and  C_2
REMARK    2  A    between atoms: C_7  and  N_8
REMARK    3  A    between atoms: C_9  and  C_11
REMARK    4  A    between atoms: C_11  and  N_12
REMARK    5  A    between atoms: C_13  and  C_15
REMARK    6  A    between atoms: C_15  and  C_16
REMARK    7  A    between atoms: C_16  and  C_17
REMARK    8  A    between atoms: C_18  and  C_30
REMARK    9  A    between atoms: N_22  and  C_27
REMARK   10  A    between atoms: C_25  and  C_26
REMARK   11  A    between atoms: C_27  and  C_28
REMARK   12  A    between atoms: C_27  and  C_29
REMARK                            x       y       z     vdW  Elec       q    Type
REMARK                         _______ _______ _______ _____ _____    ______ ____
ROOT
ATOM      1  N   UNL     1      -3.632  -2.135  -2.583  0.00  0.00    -0.307 N 
ATOM      2  C   UNL     1      -3.048  -1.787  -1.419  0.00  0.00    +0.214 C 
ATOM      3  O   UNL     1      -3.562  -2.098  -0.365  0.00  0.00    -0.276 OA
ATOM      4  H   UNL     1      -3.221  -1.887  -3.425  0.00  0.00    +0.149 HD
ENDROOT
BRANCH   1   5
ATOM      5  C   UNL     1      -4.888  -2.890  -2.574  0.00  0.00    +0.200 C 
BRANCH   5   7
ATOM      6  N   UNL     1      -6.464  -3.834  -4.231  0.00  0.00    -0.284 N 
ATOM      7  C   UNL     1      -5.327  -3.151  -3.992  0.00  0.00    +0.234 C 
ATOM      8  O   UNL     1      -4.656  -2.746  -4.919  0.00  0.00    -0.274 OA
ATOM      9  H   UNL     1      -6.957  -4.227  -3.495  0.00  0.00    +0.155 HD
BRANCH   6  16
ATOM     10  C   UNL     1      -8.125  -6.065  -4.829  0.00  0.00    +0.046 C 
ATOM     11  C   UNL     1      -7.745  -5.051  -5.878  0.00  0.00    -0.028 A 
ATOM     12  C   UNL     1      -8.210  -5.186  -7.171  0.00  0.00    +0.020 A 
ATOM     13  C   UNL     1      -7.857  -4.260  -8.135  0.00  0.00    +0.018 A 
ATOM     14  C   UNL     1      -7.042  -3.191  -7.805  0.00  0.00    +0.017 A 
ATOM     15  C   UNL     1      -6.579  -3.047  -6.512  0.00  0.00    +0.024 A 
ATOM     16  C   UNL     1      -6.932  -3.977  -5.543  0.00  0.00    +0.036 A 
ATOM     17 BR   UNL     1      -8.489  -4.453  -9.907  0.00  0.00    -0.050 Br
ENDBRANCH   6  16
ENDBRANCH   5   7
ENDBRANCH   1   5
BRANCH   2  18
ATOM     18  C   UNL     1      -1.757  -1.010  -1.427  0.00  0.00    +0.100 C 
BRANCH  18  19
ATOM     19  C   UNL     1      -1.312  -0.746   0.012  0.00  0.00    +0.046 C 
BRANCH  19  20
ATOM     20  C   UNL     1      -0.020   0.031   0.004  0.00  0.00    -0.022 A 
ATOM     21  C   UNL     1      -0.040   1.401   0.002  0.00  0.00    -0.033 A 
ATOM     22  C   UNL     1       1.184   2.080  -0.005  0.00  0.00    +0.042 A 
ATOM     23  C   UNL     1       1.569   3.487  -0.009  0.00  0.00    +0.144 A 
ATOM     24  N   UNL     1       2.870   3.541  -0.015  0.00  0.00    -0.177 NA
ATOM     25  N   UNL     1       3.404   2.249  -0.016  0.00  0.00    -0.244 N 
ATOM     26  C   UNL     1       2.383   1.338  -0.010  0.00  0.00    +0.159 A 
ATOM     27  N   UNL     1       2.340   0.012  -0.008  0.00  0.00    -0.232 NA
ATOM     28  C   UNL     1       1.196  -0.638  -0.002  0.00  0.00    +0.044 A 
ATOM     29  C   UNL     1       1.206  -2.145   0.001  0.00  0.00    +0.066 C 
ATOM     30  C   UNL     1      -1.344   2.157   0.002  0.00  0.00    +0.045 C 
BRANCH  25  31
ATOM     31  C   UNL     1       4.832   1.922  -0.022  0.00  0.00    +0.103 C 
ATOM     32  C   UNL     1       5.485   2.510  -1.275  0.00  0.00    +0.032 C 
ATOM     33  C   UNL     1       5.496   2.512   1.223  0.00  0.00    +0.032 C 
ENDBRANCH  25  31
ENDBRANCH  19  20
ENDBRANCH  18  19
ENDBRANCH   2  18
TORSDOF 7
