REMARK  Name = ZINC38671101
REMARK  9 active torsions:
REMARK  status: ('A' for Active; 'I' for Inactive)
REMARK    1  A    between atoms: C_1  and  N_2
REMARK    2  A    between atoms: C_10  and  C_12
REMARK    3  A    between atoms: C_12  and  C_14
REMARK    4  A    between atoms: C_12  and  N_27
REMARK    5  A    between atoms: C_14  and  N_15
REMARK    6  A    between atoms: N_15  and  S_16
REMARK    7  A    between atoms: S_16  and  C_19
REMARK    8  A    between atoms: C_23  and  O_25
REMARK    9  A    between atoms: O_25  and  C_26
REMARK                            x       y       z     vdW  Elec       q    Type
REMARK                         _______ _______ _______ _____ _____    ______ ____
ROOT
ATOM      1  C   UNL     1       4.995  -2.572  -0.351  0.00  0.00    -0.022 C 
ENDROOT
BRANCH   1  11
ATOM      2  C   UNL     1       0.216   1.640   1.064  0.00  0.00    +0.129 C 
ATOM      3  N   UNL     1       0.191   0.188   0.866  0.00  0.00    -0.333 N 
ATOM      4  C   UNL     1      -1.069  -0.559   0.972  0.00  0.00    +0.105 C 
ATOM      5  C   UNL     1      -0.798  -1.821   1.802  0.00  0.00    +0.024 C 
ATOM      6  C   UNL     1       0.206  -2.697   1.052  0.00  0.00    +0.038 C 
ATOM      7  C   UNL     1       1.414  -1.892   0.653  0.00  0.00    -0.026 A 
ATOM      8  C   UNL     1       1.367  -0.508   0.566  0.00  0.00    +0.033 A 
ATOM      9  C   UNL     1       2.498   0.205   0.184  0.00  0.00    +0.023 A 
ATOM     10  C   UNL     1       3.669  -0.463  -0.112  0.00  0.00    +0.004 A 
ATOM     11  C   UNL     1       3.716  -1.843  -0.029  0.00  0.00    -0.059 A 
ATOM     12  C   UNL     1       2.594  -2.555   0.361  0.00  0.00    +0.007 A 
ENDBRANCH   1  11
BRANCH   1  13
ATOM     13  N   UNL     1       5.638  -1.944  -1.513  0.00  0.00    +0.385 N 
ATOM     14  C   UNL     1       4.709  -1.954  -2.650  0.00  0.00    -0.078 C 
ATOM     15  C   UNL     1       5.343  -1.229  -3.838  0.00  0.00    -0.019 C 
ATOM     16  C   UNL     1       6.641  -1.941  -4.230  0.00  0.00    -0.004 C 
ATOM     17  C   UNL     1       7.572  -1.989  -3.016  0.00  0.00    -0.019 C 
ATOM     18  C   UNL     1       6.856  -2.687  -1.858  0.00  0.00    -0.078 C 
ATOM     19  H   UNL     1       5.879  -0.990  -1.287  0.00  0.00    -0.081 HD
ENDBRANCH   1  13
BRANCH   1  20
ATOM     20  C   UNL     1       5.937  -2.505   0.852  0.00  0.00    +0.095 C 
BRANCH  20  21
ATOM     21  N   UNL     1       5.335  -3.213   1.984  0.00  0.00    -0.191 NA
ATOM     22  H   UNL     1       4.394  -3.445   1.966  0.00  0.00    +0.148 HD
BRANCH  21  23
ATOM     23  S   UNL     1       6.261  -3.615   3.297  0.00  0.00    +0.058 S 
ATOM     24  O   UNL     1       5.396  -4.259   4.222  0.00  0.00    -0.153 OA
ATOM     25  O   UNL     1       7.434  -4.238   2.790  0.00  0.00    -0.153 OA
BRANCH  23  26
ATOM     26  C   UNL     1       6.777  -2.109   4.052  0.00  0.00    +0.109 A 
ATOM     27  C   UNL     1       7.956  -1.506   3.656  0.00  0.00    +0.029 A 
ATOM     28  C   UNL     1       8.364  -0.324   4.246  0.00  0.00    +0.005 A 
ATOM     29  C   UNL     1       7.593   0.256   5.235  0.00  0.00    +0.046 A 
ATOM     30  C   UNL     1       6.410  -0.347   5.635  0.00  0.00    +0.122 A 
ATOM     31  C   UNL     1       6.000  -1.530   5.036  0.00  0.00    +0.074 A 
BRANCH  30  32
ATOM     32  O   UNL     1       5.650   0.222   6.607  0.00  0.00    -0.495 OA
ATOM     33  C   UNL     1       6.131   1.442   7.175  0.00  0.00    +0.277 C 
ENDBRANCH  30  32
ENDBRANCH  23  26
ENDBRANCH  21  23
ENDBRANCH  20  21
ENDBRANCH   1  20
TORSDOF 7
