REMARK  Name = ZINC36812557
REMARK  8 active torsions:
REMARK  status: ('A' for Active; 'I' for Inactive)
REMARK    1  A    between atoms: C_1  and  C_2
REMARK    2  A    between atoms: C_11  and  N_27
REMARK    3  A    between atoms: C_13  and  S_15
REMARK    4  A    between atoms: S_15  and  C_16
REMARK    5  A    between atoms: C_16  and  C_18
REMARK    6  A    between atoms: C_16  and  C_21
REMARK    7  A    between atoms: C_18  and  C_19
REMARK    8  A    between atoms: C_18  and  C_20
REMARK                            x       y       z     vdW  Elec       q    Type
REMARK                         _______ _______ _______ _____ _____    ______ ____
ROOT
ATOM      1  C   UNL     1      -0.886   1.321   1.131  0.00  0.00    +0.008 C 
ATOM      2  C   UNL     1      -0.613  -0.159   0.860  0.00  0.00    -0.009 C 
ATOM      3  C   UNL     1       0.183  -0.305  -0.441  0.00  0.00    +0.008 C 
ATOM      4  C   UNL     1       0.246  -1.777  -0.848  0.00  0.00    +0.037 C 
ATOM      5  C   UNL     1       0.765  -2.595   0.332  0.00  0.00    -0.025 A 
ATOM      6  C   UNL     1       0.728  -2.091   1.586  0.00  0.00    -0.004 A 
ATOM      7  S   UNL     1       1.417  -3.360   2.620  0.00  0.00    -0.073 S 
ATOM      8  C   UNL     1       1.755  -4.561   1.374  0.00  0.00    +0.115 A 
ATOM      9  C   UNL     1       1.316  -3.932   0.182  0.00  0.00    +0.051 A 
ATOM     10  C   UNL     1       1.461  -4.670  -1.029  0.00  0.00    +0.129 A 
ATOM     11  N   UNL     1       1.997  -5.882  -0.912  0.00  0.00    -0.207 NA
ATOM     12  C   UNL     1       2.386  -6.410   0.239  0.00  0.00    +0.192 A 
ATOM     13  N   UNL     1       2.277  -5.771   1.406  0.00  0.00    -0.214 NA
ATOM     14  C   UNL     1       0.210  -0.751   2.012  0.00  0.00    +0.046 C 
ENDROOT
BRANCH  10  15
ATOM     15  N   UNL     1       1.067  -4.157  -2.252  0.00  0.00    -0.343 N 
ATOM     16  H   UNL     1       1.409  -4.545  -3.073  0.00  0.00    +0.144 HD
ATOM     17  H   UNL     1       0.450  -3.410  -2.288  0.00  0.00    +0.144 HD
ENDBRANCH  10  15
BRANCH  12  18
ATOM     18  S   UNL     1       3.079  -8.030   0.229  0.00  0.00    -0.073 S 
BRANCH  18  19
ATOM     19  C   UNL     1       3.159  -8.463  -1.531  0.00  0.00    +0.143 C 
BRANCH  19  20
ATOM     20  C   UNL     1       4.141  -7.555  -2.227  0.00  0.00    +0.234 C 
ATOM     21  O   UNL     1       5.037  -7.035  -1.597  0.00  0.00    -0.274 OA
ATOM     22  N   UNL     1       4.023  -7.322  -3.549  0.00  0.00    -0.239 N 
ATOM     23  C   UNL     1       4.901  -6.511  -4.171  0.00  0.00    +0.303 C 
ATOM     24  O   UNL     1       5.799  -5.989  -3.540  0.00  0.00    -0.253 OA
ATOM     25  N   UNL     1       4.783  -6.277  -5.493  0.00  0.00    -0.313 N 
ATOM     26  H   UNL     1       3.306  -7.738  -4.052  0.00  0.00    +0.159 HD
ATOM     27  H   UNL     1       4.066  -6.694  -5.997  0.00  0.00    +0.146 HD
ATOM     28  H   UNL     1       5.415  -5.693  -5.941  0.00  0.00    +0.146 HD
ENDBRANCH  19  20
BRANCH  19  29
ATOM     29  C   UNL     1       3.615  -9.916  -1.679  0.00  0.00    +0.005 C 
ATOM     30  C   UNL     1       4.932 -10.116  -0.927  0.00  0.00    +0.009 C 
ATOM     31  C   UNL     1       2.548 -10.846  -1.097  0.00  0.00    +0.009 C 
ENDBRANCH  19  29
ENDBRANCH  18  19
ENDBRANCH  12  18
TORSDOF 5
