REMARK  Name = ZINC01880861
REMARK  10 active torsions:
REMARK  status: ('A' for Active; 'I' for Inactive)
REMARK    1  A    between atoms: C_1  and  C_2
REMARK    2  A    between atoms: C_5  and  N_8
REMARK    3  A    between atoms: C_17  and  S_18
REMARK    4  A    between atoms: S_18  and  C_19
REMARK    5  A    between atoms: C_19  and  C_20
REMARK    6  A    between atoms: N_22  and  N_23
REMARK    7  A    between atoms: C_24  and  C_25
REMARK    8  A    between atoms: C_26  and  C_37
REMARK    9  A    between atoms: N_28  and  C_31
REMARK   10  A    between atoms: C_29  and  C_30
REMARK                            x       y       z     vdW  Elec       q    Type
REMARK                         _______ _______ _______ _____ _____    ______ ____
ROOT
ATOM      1  N   UNL     1      -0.218  -4.159   0.001  0.00  0.00    -0.255 N 
ATOM      2  C   UNL     1      -0.174  -4.822   1.171  0.00  0.00    +0.268 A 
ATOM      3  O   UNL     1      -0.082  -4.213   2.224  0.00  0.00    -0.267 OA
ATOM      4  C   UNL     1      -0.238  -6.251   1.164  0.00  0.00    +0.076 A 
ATOM      5  C   UNL     1      -0.206  -7.166   2.307  0.00  0.00    -0.023 A 
ATOM      6  C   UNL     1      -0.282  -8.485   2.036  0.00  0.00    -0.004 A 
ATOM      7  S   UNL     1      -0.399  -8.588   0.271  0.00  0.00    -0.073 S 
ATOM      8  C   UNL     1      -0.344  -6.853  -0.101  0.00  0.00    +0.117 A 
ATOM      9  N   UNL     1      -0.382  -6.141  -1.222  0.00  0.00    -0.215 NA
ATOM     10  C   UNL     1      -0.327  -4.825  -1.187  0.00  0.00    +0.178 A 
ATOM     11  C   UNL     1      -0.269  -9.616   3.020  0.00  0.00    +0.043 C 
ATOM     12  C   UNL     1       0.218  -9.076   4.372  0.00  0.00    +0.005 C 
ATOM     13  C   UNL     1      -0.544  -7.786   4.689  0.00  0.00    +0.005 C 
ATOM     14  C   UNL     1      -0.092  -6.670   3.745  0.00  0.00    +0.037 C 
ENDROOT
BRANCH   1  19
ATOM     15  C   UNL     1       0.034   1.511   0.000  0.00  0.00    +0.044 C 
ATOM     16  C   UNL     1      -0.033   0.005   0.000  0.00  0.00    -0.050 A 
ATOM     17  C   UNL     1       1.133  -0.737  -0.034  0.00  0.00    +0.005 A 
ATOM     18  C   UNL     1       1.075  -2.117  -0.034  0.00  0.00    +0.026 A 
ATOM     19  C   UNL     1      -0.156  -2.759   0.001  0.00  0.00    +0.052 A 
ATOM     20  C   UNL     1      -1.325  -2.011   0.037  0.00  0.00    +0.026 A 
ATOM     21  C   UNL     1      -1.260  -0.631   0.041  0.00  0.00    +0.005 A 
ENDBRANCH   1  19
BRANCH  10  22
ATOM     22  S   UNL     1      -0.388  -3.913  -2.693  0.00  0.00    -0.078 S 
BRANCH  22  23
ATOM     23  C   UNL     1      -0.531  -5.189  -3.974  0.00  0.00    +0.174 C 
BRANCH  23  24
ATOM     24  C   UNL     1      -0.593  -4.535  -5.331  0.00  0.00    +0.242 C 
ATOM     25  O   UNL     1      -0.546  -3.326  -5.424  0.00  0.00    -0.273 OA
ATOM     26  N   UNL     1      -0.701  -5.293  -6.440  0.00  0.00    -0.206 N 
ATOM     27  H   UNL     1      -0.739  -6.259  -6.365  0.00  0.00    +0.177 HD
BRANCH  26  28
ATOM     28  N   UNL     1      -0.759  -4.685  -7.701  0.00  0.00    -0.188 NA
ATOM     29  C   UNL     1      -0.863  -5.414  -8.769  0.00  0.00    +0.142 C 
BRANCH  29  30
ATOM     30  C   UNL     1      -0.924  -4.774 -10.096  0.00  0.00    +0.038 A 
ATOM     31  C   UNL     1      -0.875  -3.387 -10.361  0.00  0.00    +0.069 A 
ATOM     32  N   UNL     1      -0.956  -3.216 -11.652  0.00  0.00    -0.171 NA
ATOM     33  N   UNL     1      -1.060  -4.468 -12.269  0.00  0.00    -0.236 N 
ATOM     34  C   UNL     1      -1.034  -5.418 -11.310  0.00  0.00    +0.051 A 
ATOM     35  C   UNL     1      -1.115  -6.907 -11.526  0.00  0.00    +0.066 C 
ATOM     36  C   UNL     1      -0.750  -2.295  -9.330  0.00  0.00    +0.068 C 
BRANCH  33  37
ATOM     37  C   UNL     1      -1.167  -4.697 -13.648  0.00  0.00    +0.066 A 
ATOM     38  C   UNL     1      -2.051  -5.654 -14.127  0.00  0.00    +0.028 A 
ATOM     39  C   UNL     1      -2.154  -5.878 -15.486  0.00  0.00    +0.002 A 
ATOM     40  C   UNL     1      -1.378  -5.149 -16.369  0.00  0.00    +0.000 A 
ATOM     41  C   UNL     1      -0.497  -4.195 -15.895  0.00  0.00    +0.002 A 
ATOM     42  C   UNL     1      -0.394  -3.962 -14.537  0.00  0.00    +0.028 A 
ENDBRANCH  33  37
ENDBRANCH  29  30
ENDBRANCH  26  28
ENDBRANCH  23  24
ENDBRANCH  22  23
ENDBRANCH  10  22
TORSDOF 7
