REMARK  Name = ZINC05087828
REMARK  6 active torsions:
REMARK  status: ('A' for Active; 'I' for Inactive)
REMARK    1  A    between atoms: C_1  and  C_2
REMARK    2  A    between atoms: C_2  and  O_3
REMARK    3  A    between atoms: O_3  and  C_4
REMARK    4  A    between atoms: C_7  and  N_10
REMARK    5  A    between atoms: C_12  and  N_17
REMARK    6  A    between atoms: N_23  and  C_26
REMARK                            x       y       z     vdW  Elec       q    Type
REMARK                         _______ _______ _______ _____ _____    ______ ____
ROOT
ATOM      1  N   UNL     1       2.967   3.459   1.777  0.00  0.00    -0.294 N 
ATOM      2  C   UNL     1       2.848   2.131   1.976  0.00  0.00    +0.303 C 
ATOM      3  O   UNL     1       3.365   1.613   2.947  0.00  0.00    -0.253 OA
ATOM      4  N   UNL     1       2.156   1.377   1.099  0.00  0.00    -0.283 N 
ATOM      5  C   UNL     1       1.426   1.997  -0.017  0.00  0.00    +0.128 C 
ATOM      6  C   UNL     1      -0.012   1.466  -0.012  0.00  0.00    +0.124 C 
ATOM      7  N   UNL     1       0.012  -0.003  -0.025  0.00  0.00    -0.325 N 
ATOM      8  C   UNL     1       0.647  -0.536   1.188  0.00  0.00    +0.124 C 
ATOM      9  C   UNL     1       2.112  -0.087   1.232  0.00  0.00    +0.128 C 
ATOM     10  H   UNL     1       2.496   3.883   1.043  0.00  0.00    +0.151 HD
ENDROOT
BRANCH   7  11
ATOM     11  C   UNL     1      -1.276  -0.523  -0.185  0.00  0.00    +0.065 A 
ATOM     12  C   UNL     1      -2.263  -0.240   0.749  0.00  0.00    +0.026 A 
ATOM     13  C   UNL     1      -3.535  -0.753   0.586  0.00  0.00    +0.002 A 
ATOM     14  C   UNL     1      -3.825  -1.555  -0.503  0.00  0.00    +0.003 A 
ATOM     15  C   UNL     1      -2.845  -1.844  -1.434  0.00  0.00    +0.040 A 
ATOM     16  C   UNL     1      -1.570  -1.331  -1.279  0.00  0.00    +0.144 A 
ATOM     17  F   UNL     1      -0.612  -1.614  -2.188  0.00  0.00    -0.204 F 
ENDBRANCH   7  11
BRANCH   1  20
ATOM     18  N   UNL     1       4.720   6.479   2.697  0.00  0.00    -0.270 N 
ATOM     19  C   UNL     1       3.447   5.759   2.570  0.00  0.00    +0.136 C 
ATOM     20  C   UNL     1       3.809   4.261   2.668  0.00  0.00    +0.101 C 
ATOM     21  C   UNL     1       5.279   4.260   2.191  0.00  0.00    +0.120 C 
ATOM     22  C   UNL     1       5.766   5.662   2.483  0.00  0.00    +0.222 C 
ATOM     23  O   UNL     1       6.930   6.000   2.519  0.00  0.00    -0.275 OA
BRANCH  18  27
ATOM     24  C   UNL     1       5.050  10.535   3.606  0.00  0.00    +0.121 A 
ATOM     25  C   UNL     1       3.806   9.921   3.618  0.00  0.00    +0.047 A 
ATOM     26  C   UNL     1       3.696   8.578   3.316  0.00  0.00    +0.027 A 
ATOM     27  C   UNL     1       4.830   7.842   3.002  0.00  0.00    +0.037 A 
ATOM     28  C   UNL     1       6.076   8.456   2.995  0.00  0.00    +0.027 A 
ATOM     29  C   UNL     1       6.184   9.800   3.292  0.00  0.00    +0.047 A 
BRANCH  24  30
ATOM     30  O   UNL     1       5.157  11.857   3.904  0.00  0.00    -0.492 OA
BRANCH  30  32
ATOM     31  C   UNL     1       6.390  13.910   4.232  0.00  0.00    +0.048 C 
ATOM     32  C   UNL     1       6.469  12.424   3.873  0.00  0.00    +0.225 C 
ENDBRANCH  30  32
ENDBRANCH  24  30
ENDBRANCH  18  27
ENDBRANCH   1  20
TORSDOF 5
