REMARK  Name = ZINC39946761
REMARK  14 active torsions:
REMARK  status: ('A' for Active; 'I' for Inactive)
REMARK    1  A    between atoms: C_1  and  C_2
REMARK    2  A    between atoms: C_4  and  C_12
REMARK    3  A    between atoms: N_13  and  N_14
REMARK    4  A    between atoms: C_15  and  C_25
REMARK    5  A    between atoms: N_20  and  C_21
REMARK    6  A    between atoms: C_21  and  C_22
REMARK    7  A    between atoms: C_22  and  O_23
REMARK    8  A    between atoms: O_23  and  C_24
REMARK    9  A    between atoms: C_27  and  O_35
REMARK   10  A    between atoms: C_28  and  O_33
REMARK   11  A    between atoms: C_29  and  O_31
REMARK   12  A    between atoms: O_31  and  C_32
REMARK   13  A    between atoms: O_33  and  C_34
REMARK   14  A    between atoms: O_35  and  C_36
REMARK                            x       y       z     vdW  Elec       q    Type
REMARK                         _______ _______ _______ _____ _____    ______ ____
ROOT
ATOM      1  N   UNL     1      -4.576  -0.758  -1.742  0.00  0.00    -0.195 N 
ATOM      2  C   UNL     1      -5.892  -1.343  -1.565  0.00  0.00    +0.141 C 
ATOM      3  C   UNL     1      -6.844  -1.060  -2.750  0.00  0.00    +0.106 C 
ATOM      4  S   UNL     1      -5.906   0.277  -3.603  0.00  0.00    -0.089 S 
ATOM      5  C   UNL     1      -4.299  -0.060  -2.902  0.00  0.00    +0.151 C 
ATOM      6  N   UNL     1      -3.133   0.275  -3.377  0.00  0.00    -0.364 N 
ATOM      7  H   UNL     1      -2.324  -0.026  -2.933  0.00  0.00    +0.161 HD
ENDROOT
BRANCH   2   8
ATOM      8  C   UNL     1      -5.743  -2.835  -1.411  0.00  0.00    -0.017 A 
ATOM      9  C   UNL     1      -4.827  -3.519  -2.187  0.00  0.00    +0.055 A 
ATOM     10  C   UNL     1      -4.687  -4.892  -2.049  0.00  0.00    +0.165 A 
ATOM     11  C   UNL     1      -5.470  -5.580  -1.130  0.00  0.00    +0.204 A 
ATOM     12  C   UNL     1      -6.391  -4.887  -0.351  0.00  0.00    +0.165 A 
ATOM     13  C   UNL     1      -6.520  -3.514  -0.492  0.00  0.00    +0.055 A 
BRANCH  12  14
ATOM     14  O   UNL     1      -7.159  -5.555   0.550  0.00  0.00    -0.491 OA
ATOM     15  C   UNL     1      -8.084  -4.779   1.315  0.00  0.00    +0.277 C 
ENDBRANCH  12  14
BRANCH  11  16
ATOM     16  O   UNL     1      -5.337  -6.927  -0.992  0.00  0.00    -0.488 OA
ATOM     17  C   UNL     1      -4.383  -7.390  -0.034  0.00  0.00    +0.277 C 
ENDBRANCH  11  16
BRANCH  10  18
ATOM     18  O   UNL     1      -3.786  -5.565  -2.813  0.00  0.00    -0.491 OA
ATOM     19  C   UNL     1      -3.015  -4.794  -3.738  0.00  0.00    +0.277 C 
ENDBRANCH  10  18
ENDBRANCH   2   8
BRANCH   1  21
ATOM     20  C   UNL     1      -3.900  -1.472   0.391  0.00  0.00    +0.137 C 
ATOM     21  N   UNL     1      -3.600  -0.895  -0.747  0.00  0.00    -0.185 NA
BRANCH  20  24
ATOM     22  C   UNL     1      -3.598  -3.797   2.530  0.00  0.00    +0.035 C 
ATOM     23  C   UNL     1      -3.059  -2.374   2.690  0.00  0.00    +0.109 C 
ATOM     24  C   UNL     1      -2.897  -1.723   1.335  0.00  0.00    +0.003 C 
ATOM     25  C   UNL     1      -1.539  -1.425   1.221  0.00  0.00    +0.005 A 
ATOM     26  C   UNL     1      -0.778  -0.819   0.199  0.00  0.00    +0.010 A 
ATOM     27  C   UNL     1       0.559  -0.652   0.364  0.00  0.00    +0.001 A 
ATOM     28  C   UNL     1       1.210  -1.068   1.528  0.00  0.00    +0.002 A 
ATOM     29  C   UNL     1       0.543  -1.658   2.549  0.00  0.00    +0.026 A 
ATOM     30  C   UNL     1      -0.858  -1.866   2.450  0.00  0.00    +0.043 A 
ATOM     31  N   UNL     1      -1.721  -2.406   3.289  0.00  0.00    -0.377 N 
ATOM     32  H   UNL     1      -1.506  -2.767   4.163  0.00  0.00    +0.160 HD
ENDBRANCH  20  24
ENDBRANCH   1  21
BRANCH   6  33
ATOM     33  C   UNL     1      -3.043   1.105  -4.581  0.00  0.00    +0.142 C 
BRANCH  33  34
ATOM     34  C   UNL     1      -1.571   1.350  -4.922  0.00  0.00    +0.180 C 
BRANCH  34  35
ATOM     35  O   UNL     1      -0.950   0.111  -5.270  0.00  0.00    -0.381 OA
ATOM     36  C   UNL     1       0.433   0.229  -5.608  0.00  0.00    +0.194 C 
ENDBRANCH  34  35
ENDBRANCH  33  34
ENDBRANCH   6  33
TORSDOF 9
