REMARK  Name = ZINC67543485
REMARK  8 active torsions:
REMARK  status: ('A' for Active; 'I' for Inactive)
REMARK    1  A    between atoms: C_1  and  N_2
REMARK    2  A    between atoms: N_2  and  C_3
REMARK    3  A    between atoms: C_4  and  C_6
REMARK    4  A    between atoms: C_6  and  C_8
REMARK    5  A    between atoms: C_6  and  N_15
REMARK    6  A    between atoms: C_8  and  C_9
REMARK    7  A    between atoms: N_18  and  C_19
REMARK    8  A    between atoms: C_24  and  N_25
REMARK                            x       y       z     vdW  Elec       q    Type
REMARK                         _______ _______ _______ _____ _____    ______ ____
ROOT
ATOM      1  N   UNL     1      -2.655  -3.001   0.407  0.00  0.00    -0.288 N 
ATOM      2  C   UNL     1      -3.177  -3.001   1.649  0.00  0.00    +0.305 C 
ATOM      3  O   UNL     1      -2.551  -2.517   2.572  0.00  0.00    -0.252 OA
ATOM      4  N   UNL     1      -4.393  -3.538   1.869  0.00  0.00    -0.268 N 
ATOM      5  H   UNL     1      -3.154  -3.388  -0.329  0.00  0.00    +0.151 HD
ATOM      6  H   UNL     1      -4.862  -3.989   1.149  0.00  0.00    +0.156 HD
ENDROOT
BRANCH   4   7
ATOM      7  C   UNL     1      -4.981  -3.446   3.137  0.00  0.00    +0.060 A 
ATOM      8  C   UNL     1      -4.769  -2.322   3.922  0.00  0.00    +0.025 A 
ATOM      9  C   UNL     1      -5.350  -2.234   5.172  0.00  0.00    +0.002 A 
ATOM     10  C   UNL     1      -6.143  -3.263   5.646  0.00  0.00    +0.002 A 
ATOM     11  C   UNL     1      -6.359  -4.387   4.871  0.00  0.00    +0.029 A 
ATOM     12  C   UNL     1      -5.785  -4.482   3.612  0.00  0.00    +0.087 A 
BRANCH  12  13
ATOM     13  N   UNL     1      -6.007  -5.619   2.821  0.00  0.00    -0.238 N 
ATOM     14  C   UNL     1      -6.849  -6.637   3.110  0.00  0.00    +0.114 A 
ATOM     15  C   UNL     1      -6.774  -7.532   2.098  0.00  0.00    +0.041 A 
ATOM     16  C   UNL     1      -5.858  -7.047   1.159  0.00  0.00    +0.135 A 
ATOM     17  N   UNL     1      -5.402  -5.897   1.589  0.00  0.00    -0.175 NA
ENDBRANCH  12  13
ENDBRANCH   4   7
BRANCH   1  18
ATOM     18  C   UNL     1      -1.333  -2.417   0.168  0.00  0.00    +0.165 C 
BRANCH  18  22
ATOM     19  C   UNL     1      -0.526   1.314  -0.097  0.00  0.00    +0.131 C 
ATOM     20  N   UNL     1      -0.380  -0.141  -0.005  0.00  0.00    -0.306 N 
ATOM     21  C   UNL     1       0.952  -0.736   0.132  0.00  0.00    +0.131 C 
ATOM     22  C   UNL     1      -1.471  -0.932  -0.046  0.00  0.00    +0.236 C 
ATOM     23  O   UNL     1      -2.563  -0.448  -0.255  0.00  0.00    -0.274 OA
ENDBRANCH  18  22
BRANCH  18  24
ATOM     24  C   UNL     1      -0.710  -3.056  -1.075  0.00  0.00    +0.067 C 
BRANCH  24  25
ATOM     25  C   UNL     1      -0.463  -4.520  -0.817  0.00  0.00    -0.045 A 
ATOM     26  C   UNL     1       0.741  -4.934  -0.279  0.00  0.00    +0.004 A 
ATOM     27  C   UNL     1       0.968  -6.277  -0.043  0.00  0.00    +0.000 A 
ATOM     28  C   UNL     1      -0.010  -7.206  -0.344  0.00  0.00    +0.000 A 
ATOM     29  C   UNL     1      -1.215  -6.792  -0.882  0.00  0.00    +0.000 A 
ATOM     30  C   UNL     1      -1.443  -5.449  -1.115  0.00  0.00    +0.004 A 
ENDBRANCH  24  25
ENDBRANCH  18  24
ENDBRANCH   1  18
TORSDOF 6
