REMARK  Name = ZINC04300553
REMARK  9 active torsions:
REMARK  status: ('A' for Active; 'I' for Inactive)
REMARK    1  A    between atoms: C_1  and  C_2
REMARK    2  A    between atoms: C_2  and  C_3
REMARK    3  A    between atoms: C_3  and  S_4
REMARK    4  A    between atoms: S_4  and  C_5
REMARK    5  A    between atoms: C_8  and  N_26
REMARK    6  A    between atoms: C_9  and  N_11
REMARK    7  A    between atoms: C_12  and  C_14
REMARK    8  A    between atoms: C_15  and  C_25
REMARK    9  A    between atoms: N_17  and  C_19
REMARK                            x       y       z     vdW  Elec       q    Type
REMARK                         _______ _______ _______ _____ _____    ______ ____
ROOT
ATOM      1  N   UNL     1      -3.530  -5.400   0.016  0.00  0.00    -0.278 N 
ATOM      2  C   UNL     1      -4.760  -4.857   0.121  0.00  0.00    +0.270 C 
ATOM      3  O   UNL     1      -4.894  -3.649   0.113  0.00  0.00    -0.268 OA
ATOM      4  H   UNL     1      -3.428  -6.363  -0.042  0.00  0.00    +0.155 HD
ENDROOT
BRANCH   1   9
ATOM      5  C   UNL     1      -1.337  -2.523  -0.664  0.00  0.00    +0.010 A 
ATOM      6  C   UNL     1      -0.158  -2.947  -0.060  0.00  0.00    +0.017 A 
ATOM      7  C   UNL     1      -0.106  -4.174   0.571  0.00  0.00    +0.036 A 
ATOM      8  C   UNL     1      -1.222  -4.989   0.595  0.00  0.00    +0.147 A 
ATOM      9  C   UNL     1      -2.402  -4.574  -0.010  0.00  0.00    +0.065 A 
ATOM     10  C   UNL     1      -2.459  -3.340  -0.641  0.00  0.00    +0.040 A 
BRANCH   8  11
ATOM     11  N   UNL     1      -1.161  -6.306   1.268  0.00  0.00    +0.058 N 
ATOM     12  O   UNL     1      -0.157  -6.634   1.876  0.00  0.00    -0.126 OA
ATOM     13  O   UNL     1      -2.114  -7.063   1.215  0.00  0.00    -0.126 OA
ENDBRANCH   8  11
BRANCH   5  14
ATOM     14  S   UNL     1      -1.404  -0.954  -1.464  0.00  0.00    -0.125 S 
BRANCH  14  15
ATOM     15  C   UNL     1       0.262  -0.274  -1.235  0.00  0.00    +0.074 C 
BRANCH  15  17
ATOM     16  C   UNL     1       1.749   1.680  -1.698  0.00  0.00    +0.004 C 
ATOM     17  C   UNL     1       0.344   1.106  -1.891  0.00  0.00    +0.008 C 
ENDBRANCH  15  17
ENDBRANCH  14  15
ENDBRANCH   5  14
ENDBRANCH   1   9
BRANCH   2  18
ATOM     18  C   UNL     1      -5.944  -5.731   0.247  0.00  0.00    +0.170 A 
ATOM     19  C   UNL     1      -7.278  -5.304   0.370  0.00  0.00    +0.093 A 
ATOM     20  N   UNL     1      -8.014  -6.388   0.451  0.00  0.00    -0.152 NA
ATOM     21  N   UNL     1      -7.143  -7.484   0.390  0.00  0.00    -0.149 N 
ATOM     22  N   UNL     1      -5.937  -7.052   0.270  0.00  0.00    -0.142 NA
ATOM     23  C   UNL     1      -7.769  -3.880   0.398  0.00  0.00    +0.070 C 
BRANCH  21  24
ATOM     24  C   UNL     1      -7.524  -8.832   0.448  0.00  0.00    +0.086 A 
ATOM     25  C   UNL     1      -8.863  -9.171   0.584  0.00  0.00    +0.029 A 
ATOM     26  C   UNL     1      -9.236 -10.500   0.637  0.00  0.00    +0.002 A 
ATOM     27  C   UNL     1      -8.275 -11.492   0.566  0.00  0.00    +0.000 A 
ATOM     28  C   UNL     1      -6.940 -11.157   0.435  0.00  0.00    +0.002 A 
ATOM     29  C   UNL     1      -6.561  -9.830   0.377  0.00  0.00    +0.029 A 
ENDBRANCH  21  24
ENDBRANCH   2  18
TORSDOF 7
