REMARK  Name = ZINC39683783
REMARK  6 active torsions:
REMARK  status: ('A' for Active; 'I' for Inactive)
REMARK    1  A    between atoms: C_1  and  C_2
REMARK    2  A    between atoms: C_2  and  C_4
REMARK    3  A    between atoms: C_2  and  N_8
REMARK    4  A    between atoms: N_6  and  C_7
REMARK    5  A    between atoms: C_9  and  C_11
REMARK    6  A    between atoms: C_22  and  C_24
REMARK                            x       y       z     vdW  Elec       q    Type
REMARK                         _______ _______ _______ _____ _____    ______ ____
ROOT
ATOM      1  C   UNL     1       0.785  -1.134   3.571  0.00  0.00    +0.100 C 
ATOM      2  C   UNL     1       1.186  -2.615   3.390  0.00  0.00    +0.121 C 
ATOM      3  N   UNL     1       1.008  -3.218   4.732  0.00  0.00    -0.296 N 
ATOM      4  C   UNL     1      -0.229  -2.592   5.257  0.00  0.00    +0.115 C 
ATOM      5  C   UNL     1      -0.144  -1.123   4.797  0.00  0.00    -0.004 C 
ATOM      6  C   UNL     1      -1.527  -0.612   4.407  0.00  0.00    -0.010 C 
ATOM      7  C   UNL     1      -2.415  -0.555   5.653  0.00  0.00    -0.082 C 
ATOM      8  N   UNL     1      -1.806   0.334   6.650  0.00  0.00    +0.379 N 
ATOM      9  C   UNL     1      -0.517  -0.215   7.088  0.00  0.00    -0.082 C 
ATOM     10  C   UNL     1       0.451  -0.257   5.903  0.00  0.00    -0.010 C 
ATOM     11  C   UNL     1       1.794  -4.129   5.338  0.00  0.00    +0.248 C 
ATOM     12  O   UNL     1       2.836  -4.477   4.817  0.00  0.00    -0.270 OA
ATOM     13  H   UNL     1      -1.662   1.245   6.242  0.00  0.00    -0.086 HD
ATOM     14  H   UNL     1      -2.422   0.418   7.445  0.00  0.00    -0.086 HD
ENDROOT
BRANCH  11  15
ATOM     15  C   UNL     1       1.391  -4.705   6.638  0.00  0.00    +0.055 A 
ATOM     16  C   UNL     1       0.042  -4.941   6.912  0.00  0.00    +0.014 A 
ATOM     17  C   UNL     1      -0.328  -5.479   8.126  0.00  0.00    +0.001 A 
ATOM     18  C   UNL     1       0.633  -5.786   9.073  0.00  0.00    +0.001 A 
ATOM     19  C   UNL     1       1.971  -5.556   8.810  0.00  0.00    +0.021 A 
ATOM     20  C   UNL     1       2.357  -5.023   7.595  0.00  0.00    +0.053 A 
ATOM     21 CL   UNL     1       4.037  -4.742   7.263  0.00  0.00    -0.083 Cl
ENDBRANCH  11  15
BRANCH   1  23
ATOM     22  N   UNL     1      -0.023   0.687   2.106  0.00  0.00    -0.304 N 
ATOM     23  C   UNL     1       0.052  -0.635   2.353  0.00  0.00    +0.219 C 
ATOM     24  O   UNL     1      -0.470  -1.425   1.594  0.00  0.00    -0.275 OA
ATOM     25  H   UNL     1       0.395   1.319   2.712  0.00  0.00    +0.149 HD
BRANCH  22  27
ATOM     26  C   UNL     1      -2.228   1.296   1.238  0.00  0.00    +0.038 C 
ATOM     27  C   UNL     1      -0.736   1.172   0.921  0.00  0.00    +0.156 C 
BRANCH  27  28
ATOM     28  C   UNL     1      -0.193   2.521   0.525  0.00  0.00    +0.233 C 
ATOM     29  O   UNL     1       0.701   3.028   1.169  0.00  0.00    -0.274 OA
ATOM     30  N   UNL     1      -0.702   3.164  -0.544  0.00  0.00    -0.317 N 
ATOM     31  C   UNL     1      -0.174   4.476  -0.929  0.00  0.00    +0.128 C 
ATOM     32  H   UNL     1      -1.417   2.759  -1.060  0.00  0.00    +0.148 HD
ENDBRANCH  27  28
ENDBRANCH  22  27
ENDBRANCH   1  23
TORSDOF 4
