REMARK  Name = ZINC04958077
REMARK  7 active torsions:
REMARK  status: ('A' for Active; 'I' for Inactive)
REMARK    1  A    between atoms: C_1  and  C_2
REMARK    2  A    between atoms: C_2  and  C_31
REMARK    3  A    between atoms: C_3  and  C_30
REMARK    4  A    between atoms: C_6  and  C_10
REMARK    5  A    between atoms: C_17  and  C_18
REMARK    6  A    between atoms: C_17  and  C_24
REMARK    7  A    between atoms: C_17  and  N_66
REMARK                            x       y       z     vdW  Elec       q    Type
REMARK                         _______ _______ _______ _____ _____    ______ ____
ROOT
ATOM      1  C   UNL     1       4.718  -0.117   0.664  0.00  0.00    +0.223 C 
ATOM      2  O   UNL     1       5.642   0.632   0.899  0.00  0.00    -0.275 OA
ATOM      3  N   UNL     1       3.451   0.339   0.714  0.00  0.00    -0.305 N 
ATOM      4  C   UNL     1       2.312  -0.575   0.537  0.00  0.00    +0.089 C 
ATOM      5  C   UNL     1       1.382   0.008  -0.532  0.00  0.00    -0.058 C 
ATOM      6  C   UNL     1       2.206   2.254  -0.137  0.00  0.00    -0.058 C 
ATOM      7  C   UNL     1       3.170   1.763   0.948  0.00  0.00    +0.089 C 
ATOM      8  N   UNL     1       1.010   1.384  -0.139  0.00  0.00    +0.389 N 
ATOM      9  H   UNL     1       0.612   1.364   0.807  0.00  0.00    -0.080 HD
ENDROOT
BRANCH   1  15
ATOM     10  C   UNL     1       7.291  -1.242  -0.781  0.00  0.00    +0.013 C 
ATOM     11  C   UNL     1       6.493  -2.000   0.282  0.00  0.00    -0.009 C 
ATOM     12  C   UNL     1       6.212  -3.486  -0.138  0.00  0.00    +0.032 C 
ATOM     13  C   UNL     1       5.205  -3.915   0.972  0.00  0.00    +0.016 C 
ATOM     14  C   UNL     1       4.398  -2.622   1.295  0.00  0.00    +0.018 C 
ATOM     15  C   UNL     1       4.987  -1.559   0.316  0.00  0.00    +0.060 C 
ATOM     16  C   UNL     1       4.532  -2.019  -1.103  0.00  0.00    +0.091 C 
ATOM     17  C   UNL     1       5.361  -3.274  -1.397  0.00  0.00    +0.141 C 
ATOM     18  O   UNL     1       5.340  -3.959  -2.391  0.00  0.00    -0.297 OA
ATOM     19  C   UNL     1       7.441  -4.382  -0.306  0.00  0.00    +0.019 C 
ATOM     20  C   UNL     1       7.151  -1.906   1.661  0.00  0.00    +0.013 C 
ENDBRANCH   1  15
BRANCH   8  21
ATOM     21  C   UNL     1      -0.002   1.920  -1.073  0.00  0.00    -0.007 C 
BRANCH  21  22
ATOM     22  C   UNL     1      -1.212   1.022  -1.050  0.00  0.00    -0.057 A 
ATOM     23  C   UNL     1      -1.701   0.552   0.154  0.00  0.00    +0.002 A 
ATOM     24  C   UNL     1      -2.813  -0.268   0.176  0.00  0.00    +0.000 A 
ATOM     25  C   UNL     1      -3.432  -0.625  -1.007  0.00  0.00    +0.000 A 
ATOM     26  C   UNL     1      -2.940  -0.159  -2.212  0.00  0.00    +0.000 A 
ATOM     27  C   UNL     1      -1.830   0.664  -2.234  0.00  0.00    +0.002 A 
ENDBRANCH  21  22
BRANCH  21  28
ATOM     28  C   UNL     1      -0.395   3.304  -0.626  0.00  0.00    -0.057 A 
ATOM     29  C   UNL     1      -0.627   3.558   0.713  0.00  0.00    +0.002 A 
ATOM     30  C   UNL     1      -0.983   4.829   1.123  0.00  0.00    +0.000 A 
ATOM     31  C   UNL     1      -1.116   5.844   0.194  0.00  0.00    +0.000 A 
ATOM     32  C   UNL     1      -0.888   5.589  -1.145  0.00  0.00    +0.000 A 
ATOM     33  C   UNL     1      -0.528   4.319  -1.556  0.00  0.00    +0.002 A 
ENDBRANCH  21  28
ENDBRANCH   8  21
TORSDOF 4
