REMARK  Name = ZINC18223024
REMARK  8 active torsions:
REMARK  status: ('A' for Active; 'I' for Inactive)
REMARK    1  A    between atoms: C_1  and  C_2
REMARK    2  A    between atoms: C_2  and  C_3
REMARK    3  A    between atoms: C_6  and  N_9
REMARK    4  A    between atoms: C_13  and  N_52
REMARK    5  A    between atoms: C_17  and  C_18
REMARK    6  A    between atoms: C_17  and  N_52
REMARK    7  A    between atoms: C_18  and  C_19
REMARK    8  A    between atoms: C_26  and  C_29
REMARK                            x       y       z     vdW  Elec       q    Type
REMARK                         _______ _______ _______ _____ _____    ______ ____
ROOT
ATOM      1  N   UNL     1       5.583   0.918   1.056  0.00  0.00    +0.387 N 
ATOM      2  H   UNL     1       5.965   0.014   1.358  0.00  0.00    -0.085 HD
ATOM      3  H   UNL     1       5.043   1.335   1.824  0.00  0.00    -0.085 HD
ENDROOT
BRANCH   1   8
ATOM      4  N   UNL     1       2.404   1.105  -0.014  0.00  0.00    -0.212 N 
ATOM      5  C   UNL     1       2.492  -0.228   0.077  0.00  0.00    +0.225 C 
ATOM      6  O   UNL     1       1.554  -0.989   0.179  0.00  0.00    -0.275 OA
ATOM      7  C   UNL     1       3.949  -0.635   0.031  0.00  0.00    +0.090 C 
ATOM      8  C   UNL     1       4.696   0.708  -0.104  0.00  0.00    +0.026 C 
ATOM      9  C   UNL     1       3.582   1.732  -0.125  0.00  0.00    +0.213 C 
ATOM     10  O   UNL     1       3.732   2.931  -0.225  0.00  0.00    -0.277 OA
BRANCH   4  14
ATOM     11  C   UNL     1      -1.236   3.135   0.028  0.00  0.00    -0.048 A 
ATOM     12  C   UNL     1      -0.355   3.276   1.085  0.00  0.00    +0.005 A 
ATOM     13  C   UNL     1       0.854   2.608   1.071  0.00  0.00    +0.024 A 
ATOM     14  C   UNL     1       1.180   1.787   0.000  0.00  0.00    +0.044 A 
ATOM     15  C   UNL     1       0.291   1.643  -1.056  0.00  0.00    +0.024 A 
ATOM     16  C   UNL     1      -0.915   2.316  -1.039  0.00  0.00    +0.005 A 
BRANCH  11  18
ATOM     17  C   UNL     1      -3.614   2.999   0.720  0.00  0.00    +0.009 C 
ATOM     18  C   UNL     1      -2.553   3.869   0.043  0.00  0.00    +0.032 C 
ENDBRANCH  11  18
ENDBRANCH   4  14
ENDBRANCH   1   8
BRANCH   1  19
ATOM     19  C   UNL     1       6.692   1.820   0.695  0.00  0.00    -0.077 C 
BRANCH  19  20
ATOM     20  C   UNL     1       7.594   2.019   1.915  0.00  0.00    +0.018 C 
BRANCH  20  21
ATOM     21  C   UNL     1       8.731   2.940   1.554  0.00  0.00    -0.024 A 
ATOM     22  C   UNL     1       9.958   2.574   1.152  0.00  0.00    +0.087 A 
ATOM     23  N   UNL     1      10.722   3.684   0.914  0.00  0.00    -0.360 N 
ATOM     24  H   UNL     1      11.644   3.672   0.614  0.00  0.00    +0.165 HD
ATOM     25  C   UNL     1       9.986   4.821   1.163  0.00  0.00    +0.047 A 
ATOM     26  C   UNL     1       8.705   4.405   1.570  0.00  0.00    +0.003 A 
ATOM     27  C   UNL     1       7.737   5.354   1.900  0.00  0.00    +0.013 A 
ATOM     28  C   UNL     1       8.035   6.685   1.814  0.00  0.00    -0.050 A 
ATOM     29  C   UNL     1       9.295   7.101   1.408  0.00  0.00    +0.005 A 
ATOM     30  C   UNL     1      10.268   6.180   1.084  0.00  0.00    +0.026 A 
ATOM     31  C   UNL     1       6.986   7.710   2.164  0.00  0.00    +0.044 C 
ENDBRANCH  20  21
ENDBRANCH  19  20
ENDBRANCH   1  19
TORSDOF 6
