REMARK  Name = ZINC21238126
REMARK  9 active torsions:
REMARK  status: ('A' for Active; 'I' for Inactive)
REMARK    1  A    between atoms: C_1  and  C_2
REMARK    2  A    between atoms: C_2  and  C_4
REMARK    3  A    between atoms: C_2  and  N_12
REMARK    4  A    between atoms: C_13  and  C_15
REMARK    5  A    between atoms: C_15  and  S_16
REMARK    6  A    between atoms: S_16  and  C_17
REMARK    7  A    between atoms: C_19  and  C_23
REMARK    8  A    between atoms: C_23  and  C_24
REMARK    9  A    between atoms: C_23  and  C_25
REMARK                            x       y       z     vdW  Elec       q    Type
REMARK                         _______ _______ _______ _____ _____    ______ ____
ROOT
ATOM      1  N   UNL     1       0.688  -0.476  -1.203  0.00  0.00    -0.308 N 
ATOM      2  C   UNL     1       0.006  -0.608  -2.358  0.00  0.00    +0.224 C 
ATOM      3  O   UNL     1      -1.175  -0.336  -2.400  0.00  0.00    -0.275 OA
ATOM      4  H   UNL     1       1.632  -0.695  -1.170  0.00  0.00    +0.149 HD
ENDROOT
BRANCH   1   6
ATOM      5  C   UNL     1      -0.019   1.526   0.010  0.00  0.00    +0.033 C 
ATOM      6  C   UNL     1       0.002  -0.004   0.002  0.00  0.00    +0.102 C 
BRANCH   6   7
ATOM      7  C   UNL     1       0.731  -0.503   1.223  0.00  0.00    -0.009 A 
ATOM      8  C   UNL     1       2.077  -0.808   1.148  0.00  0.00    +0.008 A 
ATOM      9  C   UNL     1       2.746  -1.266   2.267  0.00  0.00    +0.020 A 
ATOM     10  C   UNL     1       2.069  -1.419   3.464  0.00  0.00    +0.042 A 
ATOM     11  C   UNL     1       0.722  -1.114   3.540  0.00  0.00    +0.040 A 
ATOM     12  C   UNL     1       0.054  -0.651   2.420  0.00  0.00    +0.047 A 
ATOM     13 CL   UNL     1      -1.635  -0.262   2.516  0.00  0.00    -0.083 Cl
ATOM     14 CL   UNL     1       2.909  -1.995   4.869  0.00  0.00    -0.083 Cl
ENDBRANCH   6   7
ENDBRANCH   1   6
BRANCH   2  15
ATOM     15  C   UNL     1       0.712  -1.094  -3.598  0.00  0.00    +0.173 C 
BRANCH  15  16
ATOM     16  S   UNL     1      -0.466  -1.164  -4.976  0.00  0.00    -0.077 S 
BRANCH  16  17
ATOM     17  C   UNL     1       0.498  -1.742  -6.333  0.00  0.00    +0.185 A 
ATOM     18  N   UNL     1       1.780  -2.041  -6.301  0.00  0.00    -0.205 NA
ATOM     19  C   UNL     1       2.177  -2.445  -7.508  0.00  0.00    +0.154 A 
ATOM     20  H   UNL     1      -0.851  -1.833  -7.916  0.00  0.00    +0.191 HD
ATOM     21  N   UNL     1       1.160  -2.410  -8.327  0.00  0.00    -0.157 NA
ATOM     22  N   UNL     1       0.053  -1.962  -7.589  0.00  0.00    -0.254 N 
BRANCH  19  23
ATOM     23  C   UNL     1       3.576  -2.872  -7.870  0.00  0.00    +0.053 C 
ATOM     24  C   UNL     1       3.554  -4.318  -8.370  0.00  0.00    +0.015 C 
ATOM     25  C   UNL     1       4.119  -1.960  -8.972  0.00  0.00    +0.015 C 
ENDBRANCH  19  23
ENDBRANCH  16  17
ENDBRANCH  15  16
ENDBRANCH   2  15
TORSDOF 6
