REMARK  Name = ZINC64110863
REMARK  9 active torsions:
REMARK  status: ('A' for Active; 'I' for Inactive)
REMARK    1  A    between atoms: C_1  and  O_2
REMARK    2  A    between atoms: O_2  and  C_3
REMARK    3  A    between atoms: C_7  and  C_11
REMARK    4  A    between atoms: C_8  and  O_9
REMARK    5  A    between atoms: O_9  and  C_10
REMARK    6  A    between atoms: N_25  and  C_26
REMARK    7  A    between atoms: C_26  and  C_27
REMARK    8  A    between atoms: C_30  and  S_33
REMARK    9  A    between atoms: S_33  and  C_34
REMARK                            x       y       z     vdW  Elec       q    Type
REMARK                         _______ _______ _______ _____ _____    ______ ____
ROOT
ATOM      1  C   UNL     1       1.329  -4.110  -2.298  0.00  0.00    +0.117 C 
ATOM      2  C   UNL     1       2.543  -4.625  -1.520  0.00  0.00    +0.128 C 
ATOM      3  C   UNL     1       3.773  -4.124  -2.268  0.00  0.00    -0.035 C 
ATOM      4  C   UNL     1       4.515  -3.478  -1.379  0.00  0.00    -0.001 A 
ATOM      5  C   UNL     1       5.844  -2.853  -1.478  0.00  0.00    +0.010 A 
ATOM      6  C   UNL     1       6.309  -2.252  -0.351  0.00  0.00    +0.001 A 
ATOM      7  C   UNL     1       5.594  -2.210   0.850  0.00  0.00    +0.002 A 
ATOM      8  C   UNL     1       4.369  -2.763   1.032  0.00  0.00    +0.026 A 
ATOM      9  C   UNL     1       3.777  -3.429  -0.080  0.00  0.00    +0.043 A 
ATOM     10  N   UNL     1       2.626  -4.067  -0.172  0.00  0.00    -0.376 N 
ATOM     11  C   UNL     1       3.926  -4.314  -3.758  0.00  0.00    +0.049 C 
ATOM     12  C   UNL     1       2.592  -3.871  -4.387  0.00  0.00    +0.090 C 
ATOM     13  N   UNL     1       1.470  -4.522  -3.703  0.00  0.00    -0.289 NA
ATOM     14  H   UNL     1       1.951  -4.152   0.520  0.00  0.00    +0.160 HD
ENDROOT
BRANCH   1  19
ATOM     15  C   UNL     1       0.087  -0.593  -1.651  0.00  0.00    +0.162 A 
ATOM     16  C   UNL     1       1.176   0.159  -2.059  0.00  0.00    +0.049 A 
ATOM     17  C   UNL     1       2.309  -0.470  -2.541  0.00  0.00    +0.004 A 
ATOM     18  C   UNL     1       2.357  -1.850  -2.618  0.00  0.00    +0.009 A 
ATOM     19  C   UNL     1       1.273  -2.606  -2.212  0.00  0.00    +0.017 A 
ATOM     20  C   UNL     1       0.138  -1.982  -1.722  0.00  0.00    +0.166 A 
BRANCH  15  22
ATOM     21  C   UNL     1      -1.009   1.452  -1.131  0.00  0.00    +0.277 C 
ATOM     22  O   UNL     1      -1.028   0.024  -1.175  0.00  0.00    -0.491 OA
ENDBRANCH  15  22
BRANCH  20  23
ATOM     23  O   UNL     1      -0.927  -2.725  -1.317  0.00  0.00    -0.491 OA
ATOM     24  C   UNL     1      -1.914  -3.036  -2.303  0.00  0.00    +0.277 C 
ENDBRANCH  20  23
ENDBRANCH   1  19
BRANCH  13  25
ATOM     25  C   UNL     1       0.215  -4.320  -4.439  0.00  0.00    +0.123 C 
BRANCH  25  26
ATOM     26  C   UNL     1       0.316  -4.973  -5.794  0.00  0.00    +0.003 A 
ATOM     27  C   UNL     1       0.800  -4.268  -6.885  0.00  0.00    +0.120 A 
ATOM     28  N   UNL     1       0.876  -4.870  -8.060  0.00  0.00    -0.230 NA
ATOM     29  C   UNL     1       0.496  -6.132  -8.200  0.00  0.00    +0.188 A 
ATOM     30  N   UNL     1       0.030  -6.834  -7.177  0.00  0.00    -0.230 NA
ATOM     31  C   UNL     1      -0.067  -6.293  -5.974  0.00  0.00    +0.120 A 
BRANCH  29  32
ATOM     32  S   UNL     1       0.614  -6.895  -9.784  0.00  0.00    -0.089 S 
ATOM     33  C   UNL     1       0.000  -8.580  -9.507  0.00  0.00    +0.093 C 
ENDBRANCH  29  32
ENDBRANCH  25  26
ENDBRANCH  13  25
TORSDOF 6
