REMARK  Name = ZINC57475570
REMARK  8 active torsions:
REMARK  status: ('A' for Active; 'I' for Inactive)
REMARK    1  A    between atoms: C_5  and  C_7
REMARK    2  A    between atoms: N_11  and  C_15
REMARK    3  A    between atoms: C_15  and  C_16
REMARK    4  A    between atoms: C_16  and  N_17
REMARK    5  A    between atoms: C_18  and  C_20
REMARK    6  A    between atoms: C_20  and  O_21
REMARK    7  A    between atoms: O_21  and  C_22
REMARK    8  A    between atoms: C_26  and  N_28
REMARK                            x       y       z     vdW  Elec       q    Type
REMARK                         _______ _______ _______ _____ _____    ______ ____
ROOT
ATOM      1  C   UNL     1      -1.636  -6.159   0.425  0.00  0.00    +0.136 C 
ENDROOT
BRANCH   1   6
ATOM      2  C   UNL     1       1.255  -2.153  -0.021  0.00  0.00    +0.029 C 
ATOM      3  C   UNL     1       0.099  -2.855   0.088  0.00  0.00    +0.080 C 
ATOM      4  C   UNL     1      -0.110  -4.313   0.209  0.00  0.00    +0.260 C 
ATOM      5  O   UNL     1       0.824  -5.093   0.222  0.00  0.00    -0.269 OA
ATOM      6  N   UNL     1      -1.362  -4.725   0.303  0.00  0.00    -0.227 N 
ATOM      7  C   UNL     1      -2.394  -3.857   0.289  0.00  0.00    +0.286 C 
ATOM      8  O   UNL     1      -3.584  -4.096   0.366  0.00  0.00    -0.262 OA
ATOM      9  S   UNL     1      -1.589  -2.270   0.135  0.00  0.00    -0.026 S 
BRANCH   2  14
ATOM     10  C   UNL     1       0.119   1.347   0.701  0.00  0.00    +0.001 A 
ATOM     11  C   UNL     1       1.197   2.080   0.233  0.00  0.00    +0.001 A 
ATOM     12  C   UNL     1       2.293   1.440  -0.317  0.00  0.00    +0.020 A 
ATOM     13  C   UNL     1       2.320   0.062  -0.404  0.00  0.00    +0.048 A 
ATOM     14  C   UNL     1       1.235  -0.686   0.067  0.00  0.00    -0.005 A 
ATOM     15  C   UNL     1       0.130  -0.029   0.621  0.00  0.00    +0.009 A 
ATOM     16 CL   UNL     1       3.696  -0.739  -1.095  0.00  0.00    -0.083 Cl
ENDBRANCH   2  14
ENDBRANCH   1   6
BRANCH   1  17
ATOM     17  C   UNL     1      -1.660  -6.550   1.904  0.00  0.00    +0.123 C 
BRANCH  17  18
ATOM     18  N   UNL     1      -1.934  -7.984   2.026  0.00  0.00    -0.311 N 
ATOM     19  C   UNL     1      -2.002  -8.556   3.244  0.00  0.00    +0.251 C 
ATOM     20  O   UNL     1      -1.836  -7.884   4.240  0.00  0.00    -0.272 OA
ATOM     21  H   UNL     1      -2.067  -8.522   1.229  0.00  0.00    +0.149 HD
BRANCH  19  22
ATOM     22  C   UNL     1      -2.284 -10.031   3.369  0.00  0.00    +0.324 C 
BRANCH  22  23
ATOM     23  O   UNL     1      -2.306 -10.396   4.751  0.00  0.00    -0.483 OA
BRANCH  23  24
ATOM     24  C   UNL     1      -2.549 -11.702   5.040  0.00  0.00    +0.123 A 
ATOM     25  C   UNL     1      -2.756 -12.614   4.015  0.00  0.00    +0.046 A 
ATOM     26  C   UNL     1      -3.003 -13.940   4.312  0.00  0.00    +0.006 A 
ATOM     27  C   UNL     1      -3.043 -14.359   5.629  0.00  0.00    +0.033 A 
ATOM     28  C   UNL     1      -2.837 -13.453   6.652  0.00  0.00    +0.130 A 
ATOM     29  C   UNL     1      -2.585 -12.126   6.360  0.00  0.00    +0.078 A 
BRANCH  28  30
ATOM     30  N   UNL     1      -2.881 -13.905   8.061  0.00  0.00    +0.057 N 
ATOM     31  O   UNL     1      -3.097 -15.066   8.316  0.00  0.00    -0.126 OA
ATOM     32  O   UNL     1      -2.701 -13.112   8.956  0.00  0.00    -0.126 OA
ENDBRANCH  28  30
ENDBRANCH  23  24
ENDBRANCH  22  23
ENDBRANCH  19  22
ENDBRANCH  17  18
ENDBRANCH   1  17
TORSDOF 8
