REMARK  Name = ZINC09102537
REMARK  12 active torsions:
REMARK  status: ('A' for Active; 'I' for Inactive)
REMARK    1  A    between atoms: C_1  and  C_2
REMARK    2  A    between atoms: C_3  and  C_12
REMARK    3  A    between atoms: C_12  and  C_14
REMARK    4  A    between atoms: C_14  and  C_16
REMARK    5  A    between atoms: C_14  and  S_17
REMARK    6  A    between atoms: S_17  and  C_18
REMARK    7  A    between atoms: C_21  and  C_30
REMARK    8  A    between atoms: N_22  and  C_23
REMARK    9  A    between atoms: C_30  and  C_32
REMARK   10  A    between atoms: C_30  and  N_58
REMARK   11  A    between atoms: C_33  and  N_58
REMARK   12  A    between atoms: C_34  and  N_58
REMARK                            x       y       z     vdW  Elec       q    Type
REMARK                         _______ _______ _______ _____ _____    ______ ____
ROOT
ATOM      1  C   UNL     1       0.886   3.823   1.836  0.00  0.00    +0.197 A 
ATOM      2  N   UNL     1       1.799   2.938   2.162  0.00  0.00    -0.122 NA
ATOM      3  N   UNL     1       2.903   3.532   2.446  0.00  0.00    -0.135 NA
ATOM      4  C   UNL     1       2.760   4.822   2.330  0.00  0.00    +0.125 A 
ATOM      5  N   UNL     1       1.469   5.056   1.937  0.00  0.00    -0.275 N 
ENDROOT
BRANCH   5   6
ATOM      6  C   UNL     1       0.871   6.300   1.689  0.00  0.00    +0.050 A 
ATOM      7  C   UNL     1       1.321   7.092   0.642  0.00  0.00    +0.028 A 
ATOM      8  C   UNL     1       0.727   8.315   0.397  0.00  0.00    +0.022 A 
ATOM      9  C   UNL     1      -0.310   8.755   1.201  0.00  0.00    +0.041 A 
ATOM     10  C   UNL     1      -0.757   7.969   2.248  0.00  0.00    +0.022 A 
ATOM     11  C   UNL     1      -0.170   6.744   2.494  0.00  0.00    +0.028 A 
ATOM     12 CL   UNL     1      -1.051  10.295   0.894  0.00  0.00    -0.084 Cl
ENDBRANCH   5   6
BRANCH   4  13
ATOM     13  C   UNL     1       3.820   5.864   2.581  0.00  0.00    -0.003 C 
ATOM     14  C   UNL     1       4.030   6.025   4.088  0.00  0.00    -0.005 C 
BRANCH  13  17
ATOM     15  C   UNL     1       6.104   6.488   2.075  0.00  0.00    -0.096 C 
ATOM     16  C   UNL     1       5.552   4.173   2.522  0.00  0.00    -0.096 C 
ATOM     17  N   UNL     1       5.075   5.438   1.925  0.00  0.00    +0.382 N 
ATOM     18  H   UNL     1       4.894   5.288   0.926  0.00  0.00    -0.082 HD
ENDBRANCH  13  17
ENDBRANCH   4  13
BRANCH   1  19
ATOM     19  S   UNL     1      -0.779   3.487   1.366  0.00  0.00    -0.075 S 
BRANCH  19  20
ATOM     20  C   UNL     1      -0.776   1.680   1.471  0.00  0.00    +0.122 C 
ATOM     21  C   UNL     1       0.178   1.109   0.420  0.00  0.00    +0.028 C 
BRANCH  20  22
ATOM     22  C   UNL     1      -2.168   1.160   1.221  0.00  0.00    +0.178 C 
ATOM     23  O   UNL     1      -2.946   1.807   0.550  0.00  0.00    -0.291 OA
BRANCH  22  26
ATOM     24  C   UNL     1      -3.282   0.750   4.085  0.00  0.00    +0.064 C 
ATOM     25  C   UNL     1      -3.068  -0.310   3.034  0.00  0.00    +0.024 A 
ATOM     26  C   UNL     1      -2.569  -0.084   1.768  0.00  0.00    +0.046 A 
ATOM     27  C   UNL     1      -2.543  -1.398   1.097  0.00  0.00    +0.010 A 
ATOM     28  C   UNL     1      -2.146  -1.831  -0.165  0.00  0.00    +0.011 A 
ATOM     29  C   UNL     1      -2.243  -3.167  -0.490  0.00  0.00    +0.001 A 
ATOM     30  C   UNL     1      -2.728  -4.079   0.437  0.00  0.00    +0.002 A 
ATOM     31  C   UNL     1      -3.119  -3.664   1.691  0.00  0.00    +0.026 A 
ATOM     32  C   UNL     1      -3.029  -2.319   2.038  0.00  0.00    +0.047 A 
ATOM     33  N   UNL     1      -3.336  -1.620   3.188  0.00  0.00    -0.358 N 
ATOM     34  H   UNL     1      -3.695  -2.019   3.996  0.00  0.00    +0.166 HD
ENDBRANCH  22  26
ENDBRANCH  20  22
ENDBRANCH  19  20
ENDBRANCH   1  19
TORSDOF 7
