REMARK  Name = ZINC14459167
REMARK  9 active torsions:
REMARK  status: ('A' for Active; 'I' for Inactive)
REMARK    1  A    between atoms: C_1  and  C_2
REMARK    2  A    between atoms: C_2  and  C_3
REMARK    3  A    between atoms: C_3  and  N_4
REMARK    4  A    between atoms: N_4  and  S_5
REMARK    5  A    between atoms: S_5  and  C_8
REMARK    6  A    between atoms: C_21  and  C_24
REMARK    7  A    between atoms: C_27  and  O_32
REMARK    8  A    between atoms: C_28  and  O_30
REMARK    9  A    between atoms: O_30  and  C_31
REMARK                            x       y       z     vdW  Elec       q    Type
REMARK                         _______ _______ _______ _____ _____    ______ ____
ROOT
ATOM      1  C   UNL     1      -1.218   1.754   0.017  0.00  0.00    +0.106 A 
ATOM      2  C   UNL     1      -0.013   1.076   0.008  0.00  0.00    +0.030 A 
ATOM      3  C   UNL     1       1.172   1.785   0.001  0.00  0.00    +0.025 A 
ATOM      4  C   UNL     1       1.149   3.175   0.009  0.00  0.00    +0.031 A 
ATOM      5  C   UNL     1      -0.054   3.857   0.027  0.00  0.00    -0.018 A 
ATOM      6  C   UNL     1      -1.240   3.134   0.032  0.00  0.00    +0.034 A 
ATOM      7  C   UNL     1      -0.143   5.359   0.045  0.00  0.00    +0.049 C 
ATOM      8  C   UNL     1      -0.891   5.758   1.310  0.00  0.00    -0.023 C 
ATOM      9  C   UNL     1      -0.046   6.066   2.262  0.00  0.00    -0.030 C 
ATOM     10  C   UNL     1       1.383   5.922   1.771  0.00  0.00    +0.033 C 
ATOM     11  C   UNL     1       1.232   6.025   0.235  0.00  0.00    +0.029 C 
ATOM     12  C   UNL     1       2.338   5.267  -0.474  0.00  0.00    +0.105 C 
ATOM     13  N   UNL     1       2.360   3.877  -0.004  0.00  0.00    -0.336 N 
ATOM     14  H   UNL     1       3.185   3.459   0.288  0.00  0.00    +0.147 HD
ENDROOT
BRANCH  12  15
ATOM     15  C   UNL     1       2.091   5.290  -1.961  0.00  0.00    -0.023 A 
ATOM     16  C   UNL     1       1.179   4.416  -2.522  0.00  0.00    +0.009 A 
ATOM     17  C   UNL     1       0.948   4.434  -3.885  0.00  0.00    +0.049 A 
ATOM     18  C   UNL     1       1.630   5.330  -4.691  0.00  0.00    +0.158 A 
ATOM     19  C   UNL     1       2.548   6.210  -4.126  0.00  0.00    +0.162 A 
ATOM     20  C   UNL     1       2.771   6.191  -2.759  0.00  0.00    +0.054 A 
BRANCH  19  21
ATOM     21  O   UNL     1       3.221   7.092  -4.914  0.00  0.00    -0.491 OA
ATOM     22  C   UNL     1       4.147   7.965  -4.265  0.00  0.00    +0.277 C 
ENDBRANCH  19  21
BRANCH  18  23
ATOM     23  O   UNL     1       1.403   5.350  -6.032  0.00  0.00    -0.503 OA
ATOM     24  H   UNL     1       0.696   5.950  -6.302  0.00  0.00    +0.292 HD
ENDBRANCH  18  23
ENDBRANCH  12  15
BRANCH   1  25
ATOM     25  S   UNL     1      -2.732   0.853   0.017  0.00  0.00    +0.058 S 
ATOM     26  O   UNL     1      -3.720   1.718  -0.524  0.00  0.00    -0.153 OA
ATOM     27  O   UNL     1      -2.446  -0.421  -0.544  0.00  0.00    -0.153 OA
BRANCH  25  28
ATOM     28  N   UNL     1      -3.147   0.591   1.599  0.00  0.00    -0.190 NA
ATOM     29  H   UNL     1      -3.170  -0.313   1.951  0.00  0.00    +0.148 HD
BRANCH  28  30
ATOM     30  C   UNL     1      -3.478   1.724   2.466  0.00  0.00    +0.105 C 
BRANCH  30  32
ATOM     31  C   UNL     1      -4.518   2.396   4.636  0.00  0.00    +0.005 C 
ATOM     32  C   UNL     1      -4.173   1.213   3.730  0.00  0.00    +0.013 C 
ENDBRANCH  30  32
ENDBRANCH  28  30
ENDBRANCH  25  28
ENDBRANCH   1  25
TORSDOF 7
