REMARK  Name = ZINC39623220
REMARK  7 active torsions:
REMARK  status: ('A' for Active; 'I' for Inactive)
REMARK    1  A    between atoms: C_1  and  C_2
REMARK    2  A    between atoms: C_2  and  N_3
REMARK    3  A    between atoms: C_4  and  C_10
REMARK    4  A    between atoms: C_6  and  C_8
REMARK    5  A    between atoms: C_14  and  C_23
REMARK    6  A    between atoms: N_25  and  C_26
REMARK    7  A    between atoms: C_26  and  C_27
REMARK                            x       y       z     vdW  Elec       q    Type
REMARK                         _______ _______ _______ _____ _____    ______ ____
ROOT
ATOM      1  C   UNL     1      -1.432  -0.452  -2.905  0.00  0.00    +0.266 C 
ATOM      2  O   UNL     1      -1.781  -0.776  -4.024  0.00  0.00    -0.268 OA
ATOM      3  N   UNL     1      -2.322   0.094  -2.053  0.00  0.00    -0.295 N 
ATOM      4  C   UNL     1      -2.114   0.455  -0.631  0.00  0.00    +0.121 C 
ATOM      5  C   UNL     1      -2.871   1.790  -0.453  0.00  0.00    +0.100 C 
ATOM      6  C   UNL     1      -3.931   1.792  -1.567  0.00  0.00    -0.004 C 
ATOM      7  C   UNL     1      -3.728   0.474  -2.328  0.00  0.00    +0.115 C 
ATOM      8  C   UNL     1      -3.711   2.975  -2.505  0.00  0.00    -0.010 C 
ATOM      9  C   UNL     1      -4.810   2.988  -3.570  0.00  0.00    -0.082 C 
ATOM     10  N   UNL     1      -6.123   3.091  -2.920  0.00  0.00    +0.379 N 
ATOM     11  C   UNL     1      -6.366   1.903  -2.092  0.00  0.00    -0.082 C 
ATOM     12  C   UNL     1      -5.332   1.845  -0.964  0.00  0.00    -0.010 C 
ATOM     13  H   UNL     1      -6.145   3.915  -2.339  0.00  0.00    -0.086 HD
ATOM     14  H   UNL     1      -6.841   3.160  -3.625  0.00  0.00    -0.086 HD
ENDROOT
BRANCH   1  16
ATOM     15  N   UNL     1       0.958   0.281  -2.459  0.00  0.00    -0.258 N 
ATOM     16  C   UNL     1      -0.038  -0.655  -2.482  0.00  0.00    +0.138 A 
ATOM     17  C   UNL     1       0.529  -1.834  -2.027  0.00  0.00    +0.071 A 
ATOM     18  C   UNL     1       1.864  -1.520  -1.753  0.00  0.00    +0.075 A 
ATOM     19  N   UNL     1       2.045  -0.256  -2.037  0.00  0.00    -0.175 NA
ATOM     20  C   UNL     1       2.909  -2.471  -1.230  0.00  0.00    +0.069 C 
ATOM     21 BR   UNL     1      -0.320  -3.511  -1.820  0.00  0.00    -0.046 Br
BRANCH  15  23
ATOM     22  C   UNL     1       0.999   1.801  -4.375  0.00  0.00    +0.029 C 
ATOM     23  C   UNL     1       0.809   1.682  -2.861  0.00  0.00    +0.141 C 
ENDBRANCH  15  23
ENDBRANCH   1  16
BRANCH   5  24
ATOM     24  C   UNL     1      -3.530   1.843   0.901  0.00  0.00    +0.218 C 
ATOM     25  O   UNL     1      -3.837   0.816   1.467  0.00  0.00    -0.275 OA
ATOM     26  N   UNL     1      -3.776   3.033   1.485  0.00  0.00    -0.311 N 
ATOM     27  H   UNL     1      -3.601   3.856   1.002  0.00  0.00    +0.149 HD
BRANCH  26  28
ATOM     28  C   UNL     1      -4.310   3.084   2.848  0.00  0.00    +0.141 C 
BRANCH  28  29
ATOM     29  C   UNL     1      -4.495   4.521   3.262  0.00  0.00    -0.012 A 
ATOM     30  C   UNL     1      -3.550   5.137   4.061  0.00  0.00    +0.006 A 
ATOM     31  C   UNL     1      -3.720   6.456   4.441  0.00  0.00    +0.000 A 
ATOM     32  C   UNL     1      -4.834   7.159   4.021  0.00  0.00    +0.001 A 
ATOM     33  C   UNL     1      -5.779   6.544   3.222  0.00  0.00    +0.020 A 
ATOM     34  C   UNL     1      -5.607   5.226   2.837  0.00  0.00    +0.046 A 
ATOM     35 CL   UNL     1      -6.790   4.455   1.828  0.00  0.00    -0.083 Cl
ENDBRANCH  28  29
ENDBRANCH  26  28
ENDBRANCH   5  24
TORSDOF 5
