REMARK  Name = ZINC64093778
REMARK  6 active torsions:
REMARK  status: ('A' for Active; 'I' for Inactive)
REMARK    1  A    between atoms: C_7  and  C_10
REMARK    2  A    between atoms: C_10  and  C_11
REMARK    3  A    between atoms: C_11  and  N_12
REMARK    4  A    between atoms: C_13  and  C_15
REMARK    5  A    between atoms: N_21  and  C_24
REMARK    6  A    between atoms: C_24  and  C_25
REMARK                            x       y       z     vdW  Elec       q    Type
REMARK                         _______ _______ _______ _____ _____    ______ ____
ROOT
ATOM      1  C   UNL     1      -1.752  -6.557  -2.622  0.00  0.00    +0.082 C 
ATOM      2  C   UNL     1      -1.179  -7.921  -3.016  0.00  0.00    +0.020 C 
ATOM      3  C   UNL     1      -2.111  -7.175  -3.971  0.00  0.00    -0.021 C 
ATOM      4  C   UNL     1      -1.497  -6.553  -5.230  0.00  0.00    -0.011 C 
ATOM      5  C   UNL     1      -1.650  -7.545  -6.389  0.00  0.00    -0.078 C 
ATOM      6  N   UNL     1      -3.067  -7.889  -6.555  0.00  0.00    +0.380 N 
ATOM      7  C   UNL     1      -3.548  -8.633  -5.385  0.00  0.00    -0.078 C 
ATOM      8  C   UNL     1      -3.531  -7.720  -4.155  0.00  0.00    -0.011 C 
ATOM      9  H   UNL     1      -3.606  -7.043  -6.659  0.00  0.00    -0.082 HD
ENDROOT
BRANCH   1  11
ATOM     10  N   UNL     1      -0.458  -4.798  -1.460  0.00  0.00    -0.315 N 
ATOM     11  C   UNL     1      -0.811  -5.380  -2.623  0.00  0.00    +0.217 C 
ATOM     12  O   UNL     1      -0.371  -4.957  -3.671  0.00  0.00    -0.275 OA
ATOM     13  H   UNL     1      -0.810  -5.136  -0.622  0.00  0.00    +0.149 HD
BRANCH  10  14
ATOM     14  C   UNL     1       0.457  -3.653  -1.462  0.00  0.00    +0.108 C 
BRANCH  14  15
ATOM     15  C   UNL     1       0.691  -3.186  -0.024  0.00  0.00    +0.052 C 
BRANCH  15  22
ATOM     16  C   UNL     1      -0.016   1.348   0.009  0.00  0.00    +0.001 A 
ATOM     17  C   UNL     1       1.166   2.101   0.002  0.00  0.00    +0.002 A 
ATOM     18  C   UNL     1       2.391   1.535  -0.013  0.00  0.00    +0.026 A 
ATOM     19  C   UNL     1       2.529   0.120  -0.022  0.00  0.00    +0.043 A 
ATOM     20  N   UNL     1       3.587  -0.654  -0.037  0.00  0.00    -0.380 N 
ATOM     21  C   UNL     1       3.143  -2.053  -0.041  0.00  0.00    +0.144 C 
ATOM     22  C   UNL     1       1.631  -2.008  -0.025  0.00  0.00    -0.040 C 
ATOM     23  C   UNL     1       1.295  -0.698  -0.014  0.00  0.00    -0.001 A 
ATOM     24  C   UNL     1       0.002  -0.004   0.002  0.00  0.00    +0.010 A 
ATOM     25  H   UNL     1       4.509  -0.353  -0.045  0.00  0.00    +0.160 HD
ENDBRANCH  15  22
ENDBRANCH  14  15
ENDBRANCH  10  14
ENDBRANCH   1  11
BRANCH   6  26
ATOM     26  C   UNL     1      -3.228  -8.717  -7.758  0.00  0.00    -0.064 C 
BRANCH  26  27
ATOM     27  C   UNL     1      -4.716  -8.974  -8.004  0.00  0.00    +0.081 C 
ATOM     28  C   UNL     1      -4.892  -9.918  -9.203  0.00  0.00    +0.238 C 
ATOM     29  O   UNL     1      -4.332  -9.312 -10.368  0.00  0.00    -0.491 OA
ATOM     30  C   UNL     1      -4.724  -8.060 -10.703  0.00  0.00    +0.131 A 
ATOM     31  C   UNL     1      -4.593  -7.619 -12.012  0.00  0.00    +0.048 A 
ATOM     32  C   UNL     1      -4.986  -6.341 -12.354  0.00  0.00    +0.023 A 
ATOM     33  C   UNL     1      -5.514  -5.483 -11.401  0.00  0.00    +0.042 A 
ATOM     34  C   UNL     1      -5.655  -5.902 -10.094  0.00  0.00    +0.035 A 
ATOM     35  C   UNL     1      -5.264  -7.194  -9.739  0.00  0.00    +0.061 A 
ATOM     36  C   UNL     1      -5.415  -7.672  -8.351  0.00  0.00    +0.171 C 
ATOM     37  O   UNL     1      -6.065  -7.058  -7.530  0.00  0.00    -0.292 OA
ATOM     38 CL   UNL     1      -5.997  -3.878 -11.853  0.00  0.00    -0.084 Cl
ENDBRANCH  26  27
ENDBRANCH   6  26
TORSDOF 6
