REMARK  Name = ZINC54731232
REMARK  6 active torsions:
REMARK  status: ('A' for Active; 'I' for Inactive)
REMARK    1  A    between atoms: C_1  and  C_2
REMARK    2  A    between atoms: C_5  and  C_7
REMARK    3  A    between atoms: C_7  and  C_9
REMARK    4  A    between atoms: C_7  and  N_10
REMARK    5  A    between atoms: N_13  and  N_14
REMARK    6  A    between atoms: C_15  and  C_17
REMARK                            x       y       z     vdW  Elec       q    Type
REMARK                         _______ _______ _______ _____ _____    ______ ____
ROOT
ATOM      1  N   UNL     1       2.210  -4.147   0.855  0.00  0.00    -0.291 N 
ATOM      2  C   UNL     1       2.553  -5.328   1.406  0.00  0.00    +0.316 C 
ATOM      3  O   UNL     1       1.894  -6.323   1.171  0.00  0.00    -0.251 OA
ATOM      4  N   UNL     1       3.626  -5.407   2.217  0.00  0.00    -0.218 N 
ATOM      5  H   UNL     1       2.735  -3.354   1.042  0.00  0.00    +0.151 HD
ATOM      6  H   UNL     1       3.873  -6.257   2.614  0.00  0.00    +0.174 HD
ENDROOT
BRANCH   4   7
ATOM      7  N   UNL     1       4.385  -4.261   2.488  0.00  0.00    -0.228 N 
ATOM      8  C   UNL     1       5.458  -4.340   3.299  0.00  0.00    +0.276 C 
ATOM      9  O   UNL     1       5.768  -5.406   3.797  0.00  0.00    -0.267 OA
ATOM     10  H   UNL     1       4.138  -3.411   2.091  0.00  0.00    +0.173 HD
BRANCH   8  11
ATOM     11  C   UNL     1       6.253  -3.140   3.583  0.00  0.00    +0.104 A 
ATOM     12  C   UNL     1       7.373  -3.075   4.384  0.00  0.00    +0.047 A 
ATOM     13  C   UNL     1       7.810  -1.746   4.373  0.00  0.00    +0.036 A 
ATOM     14  C   UNL     1       6.968  -1.039   3.582  0.00  0.00    +0.098 A 
ATOM     15  N   UNL     1       6.020  -1.875   3.092  0.00  0.00    -0.356 N 
ATOM     16  H   UNL     1       5.298  -1.624   2.495  0.00  0.00    +0.166 HD
ATOM     17 BR   UNL     1       9.309  -1.060   5.299  0.00  0.00    -0.049 Br
ENDBRANCH   8  11
ENDBRANCH   4   7
BRANCH   1  18
ATOM     18  C   UNL     1       1.043  -4.062  -0.027  0.00  0.00    +0.108 C 
ATOM     19  C   UNL     1       1.452  -4.441  -1.452  0.00  0.00    +0.033 C 
BRANCH  18  24
ATOM     20  C   UNL     1      -0.018   1.503   0.010  0.00  0.00    +0.051 C 
ATOM     21  C   UNL     1       0.002  -0.004   0.002  0.00  0.00    -0.013 A 
ATOM     22  C   UNL     1      -1.039  -0.872   0.002  0.00  0.00    +0.011 A 
ATOM     23  C   UNL     1      -0.780  -2.230  -0.007  0.00  0.00    +0.013 A 
ATOM     24  C   UNL     1       0.507  -2.653  -0.016  0.00  0.00    +0.010 A 
ATOM     25  S   UNL     1       1.404  -1.109  -0.018  0.00  0.00    -0.097 S 
ENDBRANCH  18  24
ENDBRANCH   1  18
TORSDOF 4
