REMARK  Name = ZINC24887989
REMARK  11 active torsions:
REMARK  status: ('A' for Active; 'I' for Inactive)
REMARK    1  A    between atoms: C_1  and  C_2
REMARK    2  A    between atoms: C_5  and  S_8
REMARK    3  A    between atoms: S_8  and  N_11
REMARK    4  A    between atoms: N_11  and  C_12
REMARK    5  A    between atoms: C_12  and  C_14
REMARK    6  A    between atoms: C_12  and  C_17
REMARK    7  A    between atoms: C_14  and  C_15
REMARK    8  A    between atoms: C_14  and  C_16
REMARK    9  A    between atoms: C_22  and  C_25
REMARK   10  A    between atoms: C_25  and  N_26
REMARK   11  A    between atoms: C_30  and  C_33
REMARK                            x       y       z     vdW  Elec       q    Type
REMARK                         _______ _______ _______ _____ _____    ______ ____
ROOT
ATOM      1  C   UNL     1       1.877   9.950  -1.338  0.00  0.00    +0.238 C 
ATOM      2  O   UNL     1       1.458  10.124  -0.212  0.00  0.00    -0.274 OA
ATOM      3  N   UNL     1       1.929   8.706  -1.853  0.00  0.00    -0.263 N 
ATOM      4  C   UNL     1       1.503   7.622  -1.095  0.00  0.00    +0.165 A 
ATOM      5  N   UNL     1       1.481   6.343  -1.417  0.00  0.00    -0.231 NA
ATOM      6  C   UNL     1       1.037   5.433  -0.572  0.00  0.00    +0.034 A 
ATOM      7  C   UNL     1       0.610   5.839   0.649  0.00  0.00    +0.070 A 
ATOM      8  S   UNL     1       0.871   7.602   0.522  0.00  0.00    -0.060 S 
ATOM      9  H   UNL     1       2.308   8.549  -2.873  0.00  0.00    +0.157 HD
ENDROOT
BRANCH   1  10
ATOM     10  C   UNL     1       2.338  11.126  -2.159  0.00  0.00    +0.165 C 
BRANCH  10  11
ATOM     11  C   UNL     1       3.810  10.942  -2.532  0.00  0.00    +0.010 C 
ATOM     12  C   UNL     1       4.246  12.074  -3.465  0.00  0.00    +0.009 C 
ATOM     13  C   UNL     1       4.665  10.969  -1.263  0.00  0.00    +0.009 C 
ENDBRANCH  10  11
BRANCH  10  14
ATOM     14  N   UNL     1       2.182  12.358  -1.381  0.00  0.00    -0.178 NA
ATOM     15  H   UNL     1       2.611  12.428  -0.371  0.00  0.00    +0.149 HD
BRANCH  14  16
ATOM     16  S   UNL     1       1.158  13.547  -1.910  0.00  0.00    +0.059 S 
ATOM     17  O   UNL     1       1.206  14.585  -0.941  0.00  0.00    -0.153 OA
ATOM     18  O   UNL     1       1.466  13.769  -3.279  0.00  0.00    -0.153 OA
BRANCH  16  23
ATOM     19  C   UNL     1      -4.436  11.291  -1.743  0.00  0.00    +0.044 C 
ATOM     20  C   UNL     1      -3.039  11.855  -1.785  0.00  0.00    -0.050 A 
ATOM     21  C   UNL     1      -2.522  12.505  -0.680  0.00  0.00    +0.005 A 
ATOM     22  C   UNL     1      -1.241  13.022  -0.718  0.00  0.00    +0.029 A 
ATOM     23  C   UNL     1      -0.475  12.888  -1.861  0.00  0.00    +0.105 A 
ATOM     24  C   UNL     1      -0.994  12.242  -2.968  0.00  0.00    +0.029 A 
ATOM     25  C   UNL     1      -2.273  11.722  -2.928  0.00  0.00    +0.005 A 
ENDBRANCH  16  23
ENDBRANCH  14  16
ENDBRANCH  10  14
ENDBRANCH   1  10
BRANCH   6  26
ATOM     26  C   UNL     1       1.010   3.975  -0.953  0.00  0.00    -0.022 C 
BRANCH  26  27
ATOM     27  N   UNL     1      -0.230   3.682  -1.683  0.00  0.00    +0.384 N 
ATOM     28  C   UNL     1      -0.261   4.386  -2.972  0.00  0.00    -0.078 C 
ATOM     29  C   UNL     1      -1.623   4.176  -3.637  0.00  0.00    -0.018 C 
ATOM     30  C   UNL     1      -1.857   2.677  -3.847  0.00  0.00    -0.001 C 
ATOM     31  C   UNL     1      -1.772   1.961  -2.496  0.00  0.00    -0.031 C 
ATOM     32  C   UNL     1      -0.405   2.236  -1.864  0.00  0.00    -0.075 C 
ATOM     33  C   UNL     1      -1.945   0.455  -2.704  0.00  0.00    +0.005 C 
ATOM     34  H   UNL     1      -1.074   4.050  -1.080  0.00  0.00    -0.081 HD
ENDBRANCH  26  27
ENDBRANCH   6  26
TORSDOF 7
