REMARK  Name = ZINC06196053
REMARK  14 active torsions:
REMARK  status: ('A' for Active; 'I' for Inactive)
REMARK    1  A    between atoms: C_1  and  C_2
REMARK    2  A    between atoms: C_2  and  O_3
REMARK    3  A    between atoms: O_3  and  C_4
REMARK    4  A    between atoms: C_6  and  C_11
REMARK    5  A    between atoms: C_9  and  O_10
REMARK    6  A    between atoms: C_16  and  C_21
REMARK    7  A    between atoms: C_24  and  O_29
REMARK    8  A    between atoms: C_25  and  O_27
REMARK    9  A    between atoms: O_27  and  C_28
REMARK   10  A    between atoms: O_29  and  C_30
REMARK   11  A    between atoms: C_32  and  C_42
REMARK   12  A    between atoms: C_33  and  C_34
REMARK   13  A    between atoms: C_34  and  O_36
REMARK   14  A    between atoms: O_36  and  C_37
REMARK                            x       y       z     vdW  Elec       q    Type
REMARK                         _______ _______ _______ _____ _____    ______ ____
ROOT
ATOM      1  C   UNL     1       2.440   4.219  -0.000  0.00  0.00    +0.073 C 
ATOM      2  C   UNL     1       2.503   5.078  -1.238  0.00  0.00    +0.112 C 
ATOM      3  C   UNL     1       2.267   6.405  -1.169  0.00  0.00    +0.031 C 
ATOM      4  C   UNL     1       2.325   7.271  -2.404  0.00  0.00    +0.060 C 
ATOM      5  C   UNL     1       1.925   6.449  -3.629  0.00  0.00    +0.032 C 
ATOM      6  C   UNL     1       2.870   5.248  -3.742  0.00  0.00    +0.083 C 
ATOM      7  C   UNL     1       2.812   4.459  -2.462  0.00  0.00    +0.143 C 
ATOM      8  O   UNL     1       3.035   3.264  -2.488  0.00  0.00    -0.297 OA
ATOM      9  N   UNL     1       1.967   6.996   0.029  0.00  0.00    -0.260 NA
ATOM     10  C   UNL     1       2.287   6.381   1.207  0.00  0.00    +0.049 C 
ATOM     11  C   UNL     1       2.522   5.058   1.241  0.00  0.00    +0.066 C 
ATOM     12  C   UNL     1       2.369   7.191   2.475  0.00  0.00    +0.066 C 
ENDROOT
BRANCH   1  15
ATOM     13  C   UNL     1      -0.031   1.361   0.003  0.00  0.00    +0.162 A 
ATOM     14  C   UNL     1       1.161   2.068  -0.002  0.00  0.00    +0.053 A 
ATOM     15  C   UNL     1       1.143   3.451   0.006  0.00  0.00    -0.035 A 
ATOM     16  C   UNL     1      -0.060   4.130   0.020  0.00  0.00    +0.008 A 
ATOM     17  C   UNL     1      -1.253   3.430   0.026  0.00  0.00    +0.049 A 
ATOM     18  C   UNL     1      -1.243   2.045   0.012  0.00  0.00    +0.158 A 
BRANCH  18  19
ATOM     19  O   UNL     1      -2.415   1.355   0.011  0.00  0.00    -0.503 OA
ATOM     20  H   UNL     1      -2.751   1.150   0.895  0.00  0.00    +0.292 HD
ENDBRANCH  18  19
BRANCH  13  21
ATOM     21  O   UNL     1      -0.016   0.001  -0.005  0.00  0.00    -0.489 OA
BRANCH  21  23
ATOM     22  C   UNL     1       1.081  -2.152  -0.027  0.00  0.00    +0.048 C 
ATOM     23  C   UNL     1       1.264  -0.634  -0.019  0.00  0.00    +0.226 C 
ENDBRANCH  21  23
ENDBRANCH  13  21
ENDBRANCH   1  15
BRANCH   5  24
ATOM     24  C   UNL     1       2.033   7.301  -4.867  0.00  0.00    -0.040 A 
ATOM     25  C   UNL     1       3.250   7.852  -5.222  0.00  0.00    +0.008 A 
ATOM     26  C   UNL     1       3.354   8.634  -6.357  0.00  0.00    +0.049 A 
ATOM     27  C   UNL     1       2.236   8.868  -7.143  0.00  0.00    +0.161 A 
ATOM     28  C   UNL     1       1.011   8.313  -6.786  0.00  0.00    +0.162 A 
ATOM     29  C   UNL     1       0.915   7.526  -5.649  0.00  0.00    +0.053 A 
BRANCH  28  30
ATOM     30  O   UNL     1      -0.089   8.539  -7.553  0.00  0.00    -0.491 OA
ATOM     31  C   UNL     1      -1.313   7.938  -7.126  0.00  0.00    +0.277 C 
ENDBRANCH  28  30
BRANCH  27  32
ATOM     32  O   UNL     1       2.337   9.637  -8.259  0.00  0.00    -0.491 OA
ATOM     33  C   UNL     1       3.626  10.174  -8.564  0.00  0.00    +0.277 C 
ENDBRANCH  27  32
ENDBRANCH   5  24
BRANCH  11  34
ATOM     34  C   UNL     1       2.856   4.446   2.471  0.00  0.00    +0.338 C 
ATOM     35  O   UNL     1       2.925   5.116   3.485  0.00  0.00    -0.245 OA
BRANCH  34  36
ATOM     36  O   UNL     1       3.099   3.119   2.521  0.00  0.00    -0.458 OA
BRANCH  36  37
ATOM     37  C   UNL     1       3.431   2.568   3.797  0.00  0.00    +0.177 C 
ATOM     38  C   UNL     1       4.962   2.563   3.988  0.00  0.00    +0.044 C 
ATOM     39  C   UNL     1       5.244   1.244   4.751  0.00  0.00    +0.004 C 
ATOM     40  C   UNL     1       4.241   0.255   4.107  0.00  0.00    +0.004 C 
ATOM     41  C   UNL     1       2.973   1.101   3.873  0.00  0.00    +0.044 C 
ENDBRANCH  36  37
ENDBRANCH  34  36
ENDBRANCH  11  34
TORSDOF 10
