REMARK  Name = ZINC03130749
REMARK  8 active torsions:
REMARK  status: ('A' for Active; 'I' for Inactive)
REMARK    1  A    between atoms: C_1  and  N_2
REMARK    2  A    between atoms: N_2  and  C_3
REMARK    3  A    between atoms: N_6  and  C_7
REMARK    4  A    between atoms: C_7  and  C_9
REMARK    5  A    between atoms: C_7  and  N_13
REMARK    6  A    between atoms: N_13  and  C_14
REMARK    7  A    between atoms: C_14  and  N_16
REMARK    8  A    between atoms: N_16  and  C_17
REMARK                            x       y       z     vdW  Elec       q    Type
REMARK                         _______ _______ _______ _____ _____    ______ ____
ROOT
ATOM      1  N   UNL     1      -1.563  -2.875   1.277  0.00  0.00    -0.305 N 
ATOM      2  H   UNL     1      -2.432  -2.674   1.659  0.00  0.00    +0.150 HD
ENDROOT
BRANCH   1   3
ATOM      3  C   UNL     1      -0.588  -3.387   2.053  0.00  0.00    +0.136 C 
ATOM      4  S   UNL     1       0.945  -3.742   1.379  0.00  0.00    -0.019 S 
BRANCH   3   5
ATOM      5  N   UNL     1      -0.820  -3.620   3.360  0.00  0.00    -0.296 N 
ATOM      6  H   UNL     1      -1.667  -3.361   3.756  0.00  0.00    +0.154 HD
BRANCH   5   7
ATOM      7  C   UNL     1       0.161  -4.235   4.146  0.00  0.00    +0.046 A 
ATOM      8  C   UNL     1       1.476  -3.791   4.092  0.00  0.00    +0.024 A 
ATOM      9  C   UNL     1       2.440  -4.396   4.873  0.00  0.00    +0.002 A 
ATOM     10  C   UNL     1       2.101  -5.451   5.700  0.00  0.00    +0.001 A 
ATOM     11  C   UNL     1       0.794  -5.900   5.753  0.00  0.00    +0.016 A 
ATOM     12  C   UNL     1      -0.177  -5.295   4.978  0.00  0.00    +0.035 A 
ATOM     13  I   UNL     1      -2.157  -5.975   5.058  0.00  0.00    -0.042 I 
ENDBRANCH   5   7
ENDBRANCH   3   5
ENDBRANCH   1   3
BRANCH   1  14
ATOM     14  C   UNL     1      -1.311  -2.622  -0.144  0.00  0.00    +0.212 C 
BRANCH  14  20
ATOM     15  C   UNL     1       1.566   1.212  -1.014  0.00  0.00    +0.133 C 
ATOM     16  N   UNL     1       0.232   0.655  -0.779  0.00  0.00    -0.292 N 
ATOM     17  C   UNL     1      -0.939   1.536  -0.768  0.00  0.00    +0.133 C 
ATOM     18  C   UNL     1       0.081  -0.669  -0.578  0.00  0.00    +0.303 C 
ATOM     19  O   UNL     1       1.051  -1.401  -0.592  0.00  0.00    -0.253 OA
ATOM     20  N   UNL     1      -1.147  -1.182  -0.362  0.00  0.00    -0.277 N 
ATOM     21  H   UNL     1      -1.921  -0.599  -0.351  0.00  0.00    +0.152 HD
ENDBRANCH  14  20
BRANCH  14  22
ATOM     22  C   UNL     1      -2.494  -3.131  -0.970  0.00  0.00    +0.225 C 
ATOM     23 CL   UNL     1      -2.184  -2.819  -2.719  0.00  0.00    -0.080 Cl
ATOM     24 CL   UNL     1      -2.696  -4.902  -0.702  0.00  0.00    -0.080 Cl
ATOM     25 CL   UNL     1      -3.996  -2.271  -0.464  0.00  0.00    -0.080 Cl
ENDBRANCH  14  22
ENDBRANCH   1  14
TORSDOF 6
