REMARK  Name = ZINC37031164
REMARK  7 active torsions:
REMARK  status: ('A' for Active; 'I' for Inactive)
REMARK    1  A    between atoms: C_1  and  C_2
REMARK    2  A    between atoms: C_2  and  C_3
REMARK    3  A    between atoms: C_2  and  C_4
REMARK    4  A    between atoms: C_4  and  C_6
REMARK    5  A    between atoms: C_4  and  N_11
REMARK    6  A    between atoms: C_12  and  C_14
REMARK    7  A    between atoms: C_14  and  N_20
REMARK                            x       y       z     vdW  Elec       q    Type
REMARK                         _______ _______ _______ _____ _____    ______ ____
ROOT
ATOM      1  N   UNL     1      -2.299  -0.130   1.143  0.00  0.00    -0.309 N 
ATOM      2  C   UNL     1      -2.704   1.153   1.228  0.00  0.00    +0.202 C 
ATOM      3  O   UNL     1      -2.501   1.916   0.308  0.00  0.00    -0.277 OA
ATOM      4  H   UNL     1      -2.462  -0.740   1.879  0.00  0.00    +0.149 HD
ENDROOT
BRANCH   2   5
ATOM      5  C   UNL     1      -3.409   1.639   2.468  0.00  0.00    +0.007 C 
ATOM      6  C   UNL     1      -4.879   1.214   2.419  0.00  0.00    -0.004 C 
ATOM      7  C   UNL     1      -5.544   1.822   1.182  0.00  0.00    -0.001 C 
ATOM      8  C   UNL     1      -5.456   3.348   1.254  0.00  0.00    -0.000 C 
ATOM      9  C   UNL     1      -3.987   3.773   1.304  0.00  0.00    -0.001 C 
ATOM     10  C   UNL     1      -3.322   3.165   2.540  0.00  0.00    -0.004 C 
BRANCH   5  11
ATOM     11  N   UNL     1      -2.771   1.055   3.656  0.00  0.00    +0.388 N 
ATOM     12  H   UNL     1      -1.802   1.335   3.688  0.00  0.00    -0.089 HD
ATOM     13  H   UNL     1      -3.243   1.381   4.486  0.00  0.00    -0.089 HD
ATOM     14  H   UNL     1      -2.829   0.049   3.608  0.00  0.00    -0.089 HD
ENDBRANCH   5  11
ENDBRANCH   2   5
BRANCH   1  15
ATOM     15  C   UNL     1      -1.613  -0.602  -0.063  0.00  0.00    +0.112 C 
BRANCH  15  16
ATOM     16  C   UNL     1      -1.808  -2.090  -0.201  0.00  0.00    +0.010 A 
ATOM     17  C   UNL     1      -2.038  -2.821  -1.319  0.00  0.00    +0.013 A 
ATOM     18  C   UNL     1      -2.186  -4.190  -1.207  0.00  0.00    +0.008 A 
ATOM     19  C   UNL     1      -2.097  -4.763   0.019  0.00  0.00    +0.045 A 
ATOM     20  S   UNL     1      -1.789  -3.349   1.065  0.00  0.00    -0.100 S 
ENDBRANCH  15  16
BRANCH  15  22
ATOM     21  C   UNL     1       0.079   1.219   0.186  0.00  0.00    +0.009 C 
ATOM     22  C   UNL     1      -0.119  -0.291   0.046  0.00  0.00    +0.008 C 
ATOM     23  C   UNL     1       0.461  -0.998   1.272  0.00  0.00    +0.009 C 
ENDBRANCH  15  22
ENDBRANCH   1  15
TORSDOF 5
