REMARK  Name = ZINC27841982
REMARK  5 active torsions:
REMARK  status: ('A' for Active; 'I' for Inactive)
REMARK    1  A    between atoms: C_1  and  C_2
REMARK    2  A    between atoms: C_2  and  O_3
REMARK    3  A    between atoms: O_3  and  C_4
REMARK    4  A    between atoms: C_8  and  C_11
REMARK    5  A    between atoms: C_9  and  O_10
REMARK                            x       y       z     vdW  Elec       q    Type
REMARK                         _______ _______ _______ _____ _____    ______ ____
ROOT
ATOM      1  C   UNL     1      -4.317  -4.376   0.008  0.00  0.00    +0.194 C 
ATOM      2  N   UNL     1      -4.252  -5.737   0.570  0.00  0.00    -0.316 N 
ATOM      3  C   UNL     1      -4.249  -5.838   1.939  0.00  0.00    +0.080 A 
ATOM      4  C   UNL     1      -4.790  -4.844   2.768  0.00  0.00    +0.068 A 
ATOM      5  C   UNL     1      -4.697  -5.097   4.196  0.00  0.00    -0.023 A 
ATOM      6  C   UNL     1      -4.105  -6.268   4.521  0.00  0.00    -0.005 A 
ATOM      7  S   UNL     1      -3.683  -7.010   2.969  0.00  0.00    -0.078 S 
ATOM      8  C   UNL     1      -3.865  -6.803   5.898  0.00  0.00    +0.043 C 
ATOM      9  C   UNL     1      -4.053  -5.657   6.903  0.00  0.00    +0.005 C 
ATOM     10  C   UNL     1      -5.360  -4.926   6.580  0.00  0.00    +0.005 C 
ATOM     11  C   UNL     1      -5.213  -4.150   5.270  0.00  0.00    +0.037 C 
ATOM     12  C   UNL     1      -5.396  -3.660   2.117  0.00  0.00    +0.248 C 
ATOM     13  O   UNL     1      -6.039  -2.846   2.754  0.00  0.00    -0.270 OA
ATOM     14  N   UNL     1      -5.206  -3.522   0.789  0.00  0.00    -0.289 N 
ATOM     15  H   UNL     1      -4.212  -6.521   0.001  0.00  0.00    +0.149 HD
ATOM     16  H   UNL     1      -5.686  -2.816   0.328  0.00  0.00    +0.151 HD
ENDROOT
BRANCH   1  21
ATOM     17  C   UNL     1      -1.498  -1.849   0.006  0.00  0.00    +0.163 A 
ATOM     18  C   UNL     1      -0.389  -2.679  -0.003  0.00  0.00    +0.064 A 
ATOM     19  C   UNL     1      -0.554  -4.053  -0.008  0.00  0.00    +0.022 A 
ATOM     20  C   UNL     1      -1.824  -4.600  -0.004  0.00  0.00    +0.026 A 
ATOM     21  C   UNL     1      -2.934  -3.776   0.004  0.00  0.00    +0.037 A 
ATOM     22  C   UNL     1      -2.776  -2.400   0.016  0.00  0.00    +0.165 A 
ATOM     23 BR   UNL     1       0.961  -5.185  -0.021  0.00  0.00    -0.050 Br
BRANCH  22  24
ATOM     24  O   UNL     1      -3.868  -1.589   0.030  0.00  0.00    -0.503 OA
ATOM     25  H   UNL     1      -4.192  -1.350  -0.849  0.00  0.00    +0.292 HD
ENDBRANCH  22  24
BRANCH  17  26
ATOM     26  O   UNL     1      -1.339  -0.499   0.012  0.00  0.00    -0.489 OA
BRANCH  26  28
ATOM     27  C   UNL     1      -0.019   1.526   0.010  0.00  0.00    +0.048 C 
ATOM     28  C   UNL     1       0.002  -0.004   0.002  0.00  0.00    +0.226 C 
ENDBRANCH  26  28
ENDBRANCH  17  26
ENDBRANCH   1  21
TORSDOF 4
