REMARK  Name = ZINC39674862
REMARK  9 active torsions:
REMARK  status: ('A' for Active; 'I' for Inactive)
REMARK    1  A    between atoms: C_1  and  C_2
REMARK    2  A    between atoms: C_7  and  C_8
REMARK    3  A    between atoms: C_8  and  C_9
REMARK    4  A    between atoms: C_13  and  C_22
REMARK    5  A    between atoms: N_24  and  C_25
REMARK    6  A    between atoms: C_25  and  C_26
REMARK    7  A    between atoms: C_26  and  C_27
REMARK    8  A    between atoms: C_30  and  C_38
REMARK    9  A    between atoms: C_35  and  C_37
REMARK                            x       y       z     vdW  Elec       q    Type
REMARK                         _______ _______ _______ _____ _____    ______ ____
ROOT
ATOM      1  C   UNL     1      -1.554   0.371   2.921  0.00  0.00    +0.220 C 
ATOM      2  O   UNL     1      -2.489   0.099   2.199  0.00  0.00    -0.275 OA
ATOM      3  N   UNL     1      -1.758   1.074   4.053  0.00  0.00    -0.300 N 
ATOM      4  C   UNL     1      -0.750   1.504   5.050  0.00  0.00    +0.121 C 
ATOM      5  C   UNL     1      -1.189   2.928   5.460  0.00  0.00    +0.100 C 
ATOM      6  C   UNL     1      -2.695   2.978   5.152  0.00  0.00    -0.004 C 
ATOM      7  C   UNL     1      -3.043   1.597   4.578  0.00  0.00    +0.115 C 
ATOM      8  C   UNL     1      -3.488   3.235   6.430  0.00  0.00    -0.010 C 
ATOM      9  C   UNL     1      -4.977   3.338   6.089  0.00  0.00    -0.082 C 
ATOM     10  N   UNL     1      -5.188   4.431   5.131  0.00  0.00    +0.379 N 
ATOM     11  C   UNL     1      -4.497   4.131   3.871  0.00  0.00    -0.082 C 
ATOM     12  C   UNL     1      -2.987   4.061   4.118  0.00  0.00    -0.010 C 
ATOM     13  H   UNL     1      -6.175   4.536   4.955  0.00  0.00    -0.086 HD
ATOM     14  H   UNL     1      -4.824   5.289   5.517  0.00  0.00    -0.086 HD
ENDROOT
BRANCH   5  15
ATOM     15  C   UNL     1      -0.945   3.150   6.930  0.00  0.00    +0.218 C 
ATOM     16  O   UNL     1      -1.008   2.217   7.703  0.00  0.00    -0.275 OA
ATOM     17  N   UNL     1      -0.655   4.385   7.387  0.00  0.00    -0.315 N 
ATOM     18  H   UNL     1      -0.605   5.130   6.769  0.00  0.00    +0.149 HD
BRANCH  17  19
ATOM     19  C   UNL     1      -0.417   4.600   8.816  0.00  0.00    +0.108 C 
BRANCH  19  20
ATOM     20  C   UNL     1      -0.112   6.079   9.065  0.00  0.00    +0.052 C 
BRANCH  20  21
ATOM     21  C   UNL     1       0.133   6.300  10.535  0.00  0.00    -0.037 C 
ATOM     22  C   UNL     1       0.104   5.364  11.518  0.00  0.00    +0.000 A 
ATOM     23  C   UNL     1      -0.148   3.967  11.488  0.00  0.00    +0.028 A 
ATOM     24  C   UNL     1      -0.117   3.236  12.653  0.00  0.00    +0.052 A 
ATOM     25  C   UNL     1       0.174   3.866  13.936  0.00  0.00    +0.021 A 
ATOM     26  C   UNL     1       0.422   5.189  14.025  0.00  0.00    +0.027 A 
ATOM     27  C   UNL     1       0.401   6.016  12.813  0.00  0.00    +0.043 A 
ATOM     28  N   UNL     1       0.604   7.299  12.641  0.00  0.00    -0.378 N 
ATOM     29  C   UNL     1       0.467   7.609  11.214  0.00  0.00    +0.103 C 
ATOM     30  C   UNL     1       1.780   8.169  10.664  0.00  0.00    +0.035 C 
ATOM     31  H   UNL     1       0.815   7.937  13.341  0.00  0.00    +0.160 HD
BRANCH  24  32
ATOM     32  C   UNL     1      -0.374   1.828  12.604  0.00  0.00    +0.099 C 
ATOM     33  N   UNL     1      -0.579   0.711  12.566  0.00  0.00    -0.191 NA
ENDBRANCH  24  32
ENDBRANCH  20  21
ENDBRANCH  19  20
ENDBRANCH  17  19
ENDBRANCH   5  15
BRANCH   1  34
ATOM     34  C   UNL     1      -0.162  -0.076   2.554  0.00  0.00    +0.131 C 
BRANCH  34  41
ATOM     35  C   UNL     1      -0.070   1.349   0.042  0.00  0.00    +0.044 C 
ATOM     36  C   UNL     1      -0.162  -0.155   0.052  0.00  0.00    -0.047 A 
ATOM     37  C   UNL     1      -0.196  -0.853  -1.141  0.00  0.00    +0.003 A 
ATOM     38  C   UNL     1      -0.281  -2.233  -1.131  0.00  0.00    +0.000 A 
ATOM     39  C   UNL     1      -0.331  -2.914   0.071  0.00  0.00    +0.000 A 
ATOM     40  C   UNL     1      -0.295  -2.216   1.263  0.00  0.00    +0.004 A 
ATOM     41  C   UNL     1      -0.206  -0.837   1.254  0.00  0.00    -0.036 A 
ENDBRANCH  34  41
ENDBRANCH   1  34
TORSDOF 7
