REMARK  Name = ZINC08800206
REMARK  7 active torsions:
REMARK  status: ('A' for Active; 'I' for Inactive)
REMARK    1  A    between atoms: C_1  and  N_2
REMARK    2  A    between atoms: C_10  and  C_12
REMARK    3  A    between atoms: C_12  and  C_14
REMARK    4  A    between atoms: C_12  and  N_66
REMARK    5  A    between atoms: C_14  and  N_15
REMARK    6  A    between atoms: N_15  and  S_16
REMARK    7  A    between atoms: S_16  and  C_19
REMARK                            x       y       z     vdW  Elec       q    Type
REMARK                         _______ _______ _______ _____ _____    ______ ____
ROOT
ATOM      1  C   UNL     1       6.434  -0.444  -4.199  0.00  0.00    -0.022 C 
ENDROOT
BRANCH   1  11
ATOM      2  C   UNL     1       7.269   5.637  -5.697  0.00  0.00    +0.129 C 
ATOM      3  N   UNL     1       6.578   4.700  -6.593  0.00  0.00    -0.333 N 
ATOM      4  C   UNL     1       7.148   4.745  -7.941  0.00  0.00    +0.105 C 
ATOM      5  C   UNL     1       6.407   3.731  -8.822  0.00  0.00    +0.024 C 
ATOM      6  C   UNL     1       6.763   2.327  -8.326  0.00  0.00    +0.038 C 
ATOM      7  C   UNL     1       6.631   2.271  -6.825  0.00  0.00    -0.026 A 
ATOM      8  C   UNL     1       6.554   3.416  -6.051  0.00  0.00    +0.033 A 
ATOM      9  C   UNL     1       6.442   3.300  -4.665  0.00  0.00    +0.023 A 
ATOM     10  C   UNL     1       6.399   2.057  -4.070  0.00  0.00    +0.004 A 
ATOM     11  C   UNL     1       6.478   0.916  -4.847  0.00  0.00    -0.059 A 
ATOM     12  C   UNL     1       6.591   1.025  -6.219  0.00  0.00    +0.007 A 
ENDBRANCH   1  11
BRANCH   1  18
ATOM     13  C   UNL     1       7.861   0.349  -2.411  0.00  0.00    -0.078 C 
ATOM     14  C   UNL     1       9.085   0.000  -1.562  0.00  0.00    -0.019 C 
ATOM     15  C   UNL     1      10.323  -0.064  -2.462  0.00  0.00    -0.004 C 
ATOM     16  C   UNL     1      10.088  -1.098  -3.567  0.00  0.00    -0.019 C 
ATOM     17  C   UNL     1       8.834  -0.717  -4.357  0.00  0.00    -0.078 C 
ATOM     18  N   UNL     1       7.676  -0.697  -3.439  0.00  0.00    +0.385 N 
ATOM     19  H   UNL     1       7.602  -1.610  -2.975  0.00  0.00    -0.081 HD
ENDBRANCH   1  18
BRANCH   1  20
ATOM     20  C   UNL     1       5.244  -0.513  -3.240  0.00  0.00    +0.095 C 
BRANCH  20  21
ATOM     21  N   UNL     1       5.270  -1.790  -2.521  0.00  0.00    -0.191 NA
ATOM     22  H   UNL     1       5.832  -2.513  -2.838  0.00  0.00    +0.148 HD
BRANCH  21  23
ATOM     23  S   UNL     1       4.339  -1.996  -1.167  0.00  0.00    +0.058 S 
ATOM     24  O   UNL     1       4.573  -0.867  -0.337  0.00  0.00    -0.153 OA
ATOM     25  O   UNL     1       4.560  -3.328  -0.722  0.00  0.00    -0.153 OA
BRANCH  23  26
ATOM     26  C   UNL     1       2.654  -1.908  -1.674  0.00  0.00    +0.109 A 
ATOM     27  C   UNL     1       1.988  -3.057  -2.058  0.00  0.00    +0.032 A 
ATOM     28  C   UNL     1       0.667  -2.992  -2.459  0.00  0.00    +0.051 A 
ATOM     29  C   UNL     1       0.006  -1.772  -2.477  0.00  0.00    +0.162 A 
ATOM     30  C   UNL     1       0.675  -0.618  -2.088  0.00  0.00    +0.164 A 
ATOM     31  C   UNL     1       2.001  -0.690  -1.688  0.00  0.00    +0.078 A 
ATOM     32  O   UNL     1       0.043   0.587  -2.090  0.00  0.00    -0.485 OA
ATOM     33  C   UNL     1      -1.167   0.678  -2.850  0.00  0.00    +0.270 C 
ATOM     34  C   UNL     1      -2.031  -0.548  -2.527  0.00  0.00    +0.270 C 
ATOM     35  O   UNL     1      -1.292  -1.722  -2.882  0.00  0.00    -0.485 OA
ENDBRANCH  23  26
ENDBRANCH  21  23
ENDBRANCH  20  21
ENDBRANCH   1  20
TORSDOF 6
