REMARK  Name = ZINC55189318
REMARK  4 active torsions:
REMARK  status: ('A' for Active; 'I' for Inactive)
REMARK    1  A    between atoms: C_2  and  C_7
REMARK    2  A    between atoms: N_9  and  C_10
REMARK    3  A    between atoms: C_10  and  C_16
REMARK    4  A    between atoms: C_16  and  O_17
REMARK                            x       y       z     vdW  Elec       q    Type
REMARK                         _______ _______ _______ _____ _____    ______ ____
ROOT
ATOM      1  C   UNL     1       3.077   2.908  -0.919  0.00  0.00    +0.263 C 
ATOM      2  O   UNL     1       3.683   3.221  -1.926  0.00  0.00    -0.268 OA
ATOM      3  N   UNL     1       2.976   3.779   0.105  0.00  0.00    -0.302 N 
ATOM      4  H   UNL     1       2.432   3.559   0.877  0.00  0.00    +0.150 HD
ENDROOT
BRANCH   1   6
ATOM      5  C   UNL     1       2.549   0.684  -1.854  0.00  0.00    +0.081 A 
ATOM      6  C   UNL     1       2.453   1.579  -0.818  0.00  0.00    +0.135 A 
ATOM      7  N   UNL     1       1.785   1.226   0.283  0.00  0.00    -0.221 NA
ATOM      8  C   UNL     1       1.222   0.039   0.388  0.00  0.00    +0.156 A 
ATOM      9  S   UNL     1       1.637  -0.700  -1.186  0.00  0.00    -0.060 S 
ATOM     10  N   UNL     1       0.499  -0.495   1.441  0.00  0.00    -0.338 N 
ATOM     11  H   UNL     1       0.351   0.030   2.243  0.00  0.00    +0.144 HD
ATOM     12  H   UNL     1       0.139  -1.394   1.376  0.00  0.00    +0.144 HD
ENDBRANCH   1   6
BRANCH   3  13
ATOM     13  C   UNL     1       3.688   5.058   0.051  0.00  0.00    +0.058 C 
ATOM     14  C   UNL     1       3.445   5.832   1.348  0.00  0.00    +0.028 C 
ATOM     15  C   UNL     1       3.959   5.013   2.534  0.00  0.00    +0.002 C 
ATOM     16  C   UNL     1       5.457   4.756   2.366  0.00  0.00    +0.000 C 
ATOM     17  C   UNL     1       5.700   3.982   1.068  0.00  0.00    +0.002 C 
ATOM     18  C   UNL     1       5.187   4.801  -0.118  0.00  0.00    +0.028 C 
BRANCH  13  19
ATOM     19  C   UNL     1       3.175   5.878  -1.135  0.00  0.00    +0.181 C 
BRANCH  19  20
ATOM     20  O   UNL     1       1.761   6.053  -1.017  0.00  0.00    -0.393 OA
ATOM     21  H   UNL     1       1.367   6.565  -1.737  0.00  0.00    +0.209 HD
ENDBRANCH  19  20
ENDBRANCH  13  19
ENDBRANCH   3  13
TORSDOF 4
