REMARK  Name = ZINC43741215
REMARK  5 active torsions:
REMARK  status: ('A' for Active; 'I' for Inactive)
REMARK    1  A    between atoms: N_9  and  C_10
REMARK    2  A    between atoms: C_10  and  C_11
REMARK    3  A    between atoms: C_11  and  C_13
REMARK    4  A    between atoms: C_11  and  O_30
REMARK    5  A    between atoms: C_13  and  N_14
REMARK                            x       y       z     vdW  Elec       q    Type
REMARK                         _______ _______ _______ _____ _____    ______ ____
ROOT
ATOM      1  C   UNL     1       5.412  -0.521   1.390  0.00  0.00    +0.118 C 
ENDROOT
BRANCH   1   2
ATOM      2  O   UNL     1       4.701   0.525   2.054  0.00  0.00    -0.392 OA
ATOM      3  H   UNL     1       4.799   1.393   1.639  0.00  0.00    +0.210 HD
ENDBRANCH   1   2
BRANCH   1   4
ATOM      4  C   UNL     1       4.906  -0.649  -0.048  0.00  0.00    +0.151 C 
BRANCH   4  13
ATOM      5  C   UNL     1      -0.107   0.920   0.041  0.00  0.00    +0.001 A 
ATOM      6  C   UNL     1       1.029   1.717   0.038  0.00  0.00    +0.002 A 
ATOM      7  C   UNL     1       2.284   1.151   0.013  0.00  0.00    +0.026 A 
ATOM      8  C   UNL     1       2.418  -0.234  -0.009  0.00  0.00    +0.050 A 
ATOM      9  C   UNL     1       1.263  -1.039  -0.006  0.00  0.00    +0.003 A 
ATOM     10  C   UNL     1       0.001  -0.442   0.019  0.00  0.00    +0.010 A 
ATOM     11  C   UNL     1       1.739  -2.418  -0.034  0.00  0.00    -0.019 A 
ATOM     12  C   UNL     1       3.085  -2.379  -0.050  0.00  0.00    +0.023 A 
ATOM     13  N   UNL     1       3.506  -1.079  -0.036  0.00  0.00    -0.341 N 
ATOM     14  C   UNL     1       3.958  -3.612  -0.079  0.00  0.00    +0.054 C 
ATOM     15  C   UNL     1       3.110  -4.820   0.336  0.00  0.00    +0.006 C 
ATOM     16  C   UNL     1       1.817  -4.842  -0.484  0.00  0.00    +0.005 C 
ATOM     17  C   UNL     1       0.917  -3.681  -0.044  0.00  0.00    +0.037 C 
ENDBRANCH   4  13
ENDBRANCH   1   4
BRANCH   1  18
ATOM     18  C   UNL     1       6.907  -0.193   1.377  0.00  0.00    -0.045 C 
BRANCH  18  19
ATOM     19  N   UNL     1       7.397  -0.088   2.758  0.00  0.00    +0.382 N 
ATOM     20  C   UNL     1       7.307  -1.399   3.408  0.00  0.00    -0.074 C 
ATOM     21  C   UNL     1       7.808  -1.337   4.843  0.00  0.00    -0.007 C 
ATOM     22  C   UNL     1       9.242  -0.800   4.893  0.00  0.00    +0.011 C 
ATOM     23  C   UNL     1       9.243   0.570   4.203  0.00  0.00    +0.020 C 
ATOM     24  C   UNL     1       8.795   0.368   2.747  0.00  0.00    -0.069 C 
ATOM     25  C   UNL     1       8.232   1.466   4.883  0.00  0.00    +0.023 A 
ATOM     26  C   UNL     1       8.466   2.804   4.864  0.00  0.00    +0.022 A 
ATOM     27  C   UNL     1       7.540   3.696   5.417  0.00  0.00    +0.007 A 
ATOM     28  C   UNL     1       6.387   3.200   5.952  0.00  0.00    +0.070 A 
ATOM     29  C   UNL     1       6.175   1.814   5.952  0.00  0.00    +0.251 A 
ATOM     30  O   UNL     1       5.121   1.364   6.371  0.00  0.00    -0.268 OA
ATOM     31  N   UNL     1       7.129   0.969   5.490  0.00  0.00    -0.312 N 
ATOM     32  C   UNL     1       6.923  -0.459   5.712  0.00  0.00    +0.126 C 
ATOM     33  H   UNL     1       6.832   0.576   3.265  0.00  0.00    -0.082 HD
ENDBRANCH  18  19
ENDBRANCH   1  18
TORSDOF 5
