REMARK  Name = ZINC20875225
REMARK  11 active torsions:
REMARK  status: ('A' for Active; 'I' for Inactive)
REMARK    1  A    between atoms: C_1  and  C_2
REMARK    2  A    between atoms: C_2  and  O_3
REMARK    3  A    between atoms: O_3  and  C_4
REMARK    4  A    between atoms: C_6  and  C_19
REMARK    5  A    between atoms: C_9  and  O_10
REMARK    6  A    between atoms: O_10  and  C_11
REMARK    7  A    between atoms: C_11  and  C_12
REMARK    8  A    between atoms: C_19  and  N_20
REMARK    9  A    between atoms: N_20  and  C_21
REMARK   10  A    between atoms: C_25  and  C_32
REMARK   11  A    between atoms: C_28  and  C_31
REMARK                            x       y       z     vdW  Elec       q    Type
REMARK                         _______ _______ _______ _____ _____    ______ ____
ROOT
ATOM      1  C   UNL     1       2.380   1.415  -0.013  0.00  0.00    +0.162 A 
ATOM      2  C   UNL     1       1.169   2.089   0.002  0.00  0.00    +0.051 A 
ATOM      3  C   UNL     1      -0.017   1.378   0.010  0.00  0.00    -0.061 A 
ATOM      4  C   UNL     1       0.002  -0.004   0.002  0.00  0.00    +0.005 A 
ATOM      5  C   UNL     1       1.207  -0.682  -0.014  0.00  0.00    +0.049 A 
ATOM      6  C   UNL     1       2.399   0.024  -0.021  0.00  0.00    +0.162 A 
ENDROOT
BRANCH   1   7
ATOM      7  O   UNL     1       3.548   2.113  -0.020  0.00  0.00    -0.489 OA
BRANCH   7   9
ATOM      8  C   UNL     1       4.857   4.144  -0.021  0.00  0.00    +0.048 C 
ATOM      9  C   UNL     1       3.452   3.539  -0.011  0.00  0.00    +0.226 C 
ENDBRANCH   7   9
ENDBRANCH   1   7
BRANCH   6  10
ATOM     10  O   UNL     1       3.585  -0.641  -0.036  0.00  0.00    -0.484 OA
BRANCH  10  11
ATOM     11  C   UNL     1       3.528  -2.069  -0.043  0.00  0.00    +0.266 C 
BRANCH  11  12
ATOM     12  C   UNL     1       4.927  -2.628  -0.059  0.00  0.00    +0.008 A 
ATOM     13  C   UNL     1       5.590  -2.895   1.129  0.00  0.00    +0.011 A 
ATOM     14  C   UNL     1       6.876  -3.408   1.067  0.00  0.00    +0.040 A 
ATOM     15  C   UNL     1       7.451  -3.636  -0.171  0.00  0.00    +0.129 A 
ATOM     16  N   UNL     1       6.790  -3.371  -1.282  0.00  0.00    -0.243 NA
ATOM     17  C   UNL     1       5.563  -2.886  -1.258  0.00  0.00    +0.119 A 
ATOM     18 CL   UNL     1       9.061  -4.280  -0.264  0.00  0.00    -0.062 Cl
ENDBRANCH  11  12
ENDBRANCH  10  11
ENDBRANCH   6  10
BRANCH   3  19
ATOM     19  C   UNL     1      -1.333   2.112   0.020  0.00  0.00    -0.046 C 
BRANCH  19  20
ATOM     20  N   UNL     1      -1.754   2.343   1.408  0.00  0.00    +0.385 N 
ATOM     21  H   UNL     1      -1.869   1.377   1.922  0.00  0.00    -0.085 HD
ATOM     22  H   UNL     1      -0.994   2.946   1.926  0.00  0.00    -0.085 HD
BRANCH  20  23
ATOM     23  C   UNL     1      -3.036   3.058   1.457  0.00  0.00    -0.067 C 
ATOM     24  C   UNL     1      -4.110   2.229   0.750  0.00  0.00    -0.009 C 
ATOM     25  C   UNL     1      -5.446   2.974   0.802  0.00  0.00    -0.011 C 
ATOM     26  C   UNL     1      -5.303   4.326   0.101  0.00  0.00    +0.010 C 
ATOM     27  C   UNL     1      -4.229   5.155   0.808  0.00  0.00    -0.033 C 
ATOM     28  C   UNL     1      -2.893   4.411   0.756  0.00  0.00    -0.006 C 
ATOM     29  C   UNL     1      -4.633   5.377   2.266  0.00  0.00    +0.013 C 
ATOM     30  C   UNL     1      -4.777   4.025   2.967  0.00  0.00    -0.033 C 
ATOM     31  C   UNL     1      -5.850   3.195   2.260  0.00  0.00    +0.010 C 
ATOM     32  C   UNL     1      -3.441   3.280   2.916  0.00  0.00    -0.006 C 
ATOM     33  C   UNL     1      -5.181   4.246   4.426  0.00  0.00    +0.011 C 
ATOM     34  C   UNL     1      -4.086   6.508   0.107  0.00  0.00    +0.011 C 
ENDBRANCH  20  23
ENDBRANCH  19  20
ENDBRANCH   3  19
TORSDOF 8
