REMARK  Name = ZINC36806114
REMARK  9 active torsions:
REMARK  status: ('A' for Active; 'I' for Inactive)
REMARK    1  A    between atoms: C_1  and  C_2
REMARK    2  A    between atoms: C_3  and  C_12
REMARK    3  A    between atoms: C_12  and  C_14
REMARK    4  A    between atoms: C_14  and  C_16
REMARK    5  A    between atoms: C_14  and  S_17
REMARK    6  A    between atoms: S_17  and  C_18
REMARK    7  A    between atoms: C_21  and  C_30
REMARK    8  A    between atoms: N_22  and  C_23
REMARK    9  A    between atoms: C_23  and  C_24
REMARK                            x       y       z     vdW  Elec       q    Type
REMARK                         _______ _______ _______ _____ _____    ______ ____
ROOT
ATOM      1  C   UNL     1       0.641   3.478  -4.294  0.00  0.00    +0.193 A 
ATOM      2  N   UNL     1       0.702   4.316  -3.286  0.00  0.00    -0.122 NA
ATOM      3  N   UNL     1       1.233   5.424  -3.663  0.00  0.00    -0.128 NA
ATOM      4  C   UNL     1       1.544   5.362  -4.937  0.00  0.00    +0.167 A 
ATOM      5  N   UNL     1       1.181   4.112  -5.380  0.00  0.00    -0.300 N 
ENDROOT
BRANCH   4   6
ATOM      6  C   UNL     1       2.172   6.430  -5.740  0.00  0.00    +0.044 A 
ATOM      7  C   UNL     1       3.217   6.294  -6.597  0.00  0.00    +0.095 A 
ATOM      8  N   UNL     1       3.515   7.503  -7.156  0.00  0.00    -0.360 N 
ATOM      9  H   UNL     1       4.224   7.657  -7.800  0.00  0.00    +0.165 HD
ATOM     10  C   UNL     1       2.663   8.473  -6.674  0.00  0.00    +0.047 A 
ATOM     11  C   UNL     1       1.782   7.850  -5.774  0.00  0.00    +0.010 A 
ATOM     12  C   UNL     1       0.797   8.598  -5.131  0.00  0.00    +0.011 A 
ATOM     13  C   UNL     1       0.691   9.947  -5.386  0.00  0.00    +0.001 A 
ATOM     14  C   UNL     1       1.558  10.563  -6.277  0.00  0.00    +0.002 A 
ATOM     15  C   UNL     1       2.542   9.838  -6.914  0.00  0.00    +0.026 A 
ENDBRANCH   4   6
BRANCH   1  16
ATOM     16  S   UNL     1      -0.008   1.841  -4.255  0.00  0.00    -0.075 S 
BRANCH  16  17
ATOM     17  C   UNL     1      -0.554   1.626  -2.538  0.00  0.00    +0.122 C 
ATOM     18  C   UNL     1      -1.703   2.592  -2.244  0.00  0.00    +0.028 C 
BRANCH  17  19
ATOM     19  C   UNL     1      -1.024   0.209  -2.334  0.00  0.00    +0.178 C 
ATOM     20  O   UNL     1      -1.449  -0.431  -3.274  0.00  0.00    -0.291 OA
BRANCH  19  23
ATOM     21  C   UNL     1       1.465  -1.173  -1.108  0.00  0.00    +0.064 C 
ATOM     22  C   UNL     1       0.114  -0.999  -0.463  0.00  0.00    +0.024 A 
ATOM     23  C   UNL     1      -0.970  -0.377  -1.045  0.00  0.00    +0.046 A 
ATOM     24  C   UNL     1      -2.062  -0.443  -0.054  0.00  0.00    +0.010 A 
ATOM     25  C   UNL     1      -3.382  -0.002  -0.040  0.00  0.00    +0.011 A 
ATOM     26  C   UNL     1      -4.164  -0.226   1.072  0.00  0.00    +0.001 A 
ATOM     27  C   UNL     1      -3.641  -0.887   2.174  0.00  0.00    +0.002 A 
ATOM     28  C   UNL     1      -2.336  -1.329   2.173  0.00  0.00    +0.026 A 
ATOM     29  C   UNL     1      -1.530  -1.112   1.059  0.00  0.00    +0.047 A 
ATOM     30  N   UNL     1      -0.220  -1.433   0.767  0.00  0.00    -0.358 N 
ATOM     31  H   UNL     1       0.379  -1.905   1.367  0.00  0.00    +0.166 HD
ENDBRANCH  19  23
ENDBRANCH  17  19
ENDBRANCH  16  17
ENDBRANCH   1  16
BRANCH   5  32
ATOM     32  C   UNL     1       1.336   3.572  -6.734  0.00  0.00    +0.157 C 
BRANCH  32  33
ATOM     33  C   UNL     1       0.037   3.776  -7.516  0.00  0.00    +0.138 C 
ATOM     34  C   UNL     1       0.149   3.104  -8.901  0.00  0.00    +0.035 C 
ATOM     35  C   UNL     1      -0.572   4.125  -9.823  0.00  0.00    +0.031 C 
ATOM     36  C   UNL     1      -0.187   5.461  -9.138  0.00  0.00    +0.160 C 
ATOM     37  O   UNL     1      -0.188   5.175  -7.729  0.00  0.00    -0.375 OA
ENDBRANCH  32  33
ENDBRANCH   5  32
TORSDOF 7
