REMARK  Name = ZINC16625221
REMARK  10 active torsions:
REMARK  status: ('A' for Active; 'I' for Inactive)
REMARK    1  A    between atoms: C_1  and  C_2
REMARK    2  A    between atoms: C_5  and  C_14
REMARK    3  A    between atoms: C_7  and  N_8
REMARK    4  A    between atoms: C_9  and  C_11
REMARK    5  A    between atoms: C_11  and  C_12
REMARK    6  A    between atoms: C_11  and  C_13
REMARK    7  A    between atoms: N_19  and  C_21
REMARK    8  A    between atoms: C_21  and  C_22
REMARK    9  A    between atoms: N_24  and  C_25
REMARK   10  A    between atoms: C_30  and  C_31
REMARK                            x       y       z     vdW  Elec       q    Type
REMARK                         _______ _______ _______ _____ _____    ______ ____
ROOT
ATOM      1  C   UNL     1      -0.383   3.969  -0.212  0.00  0.00    +0.092 A 
ATOM      2  C   UNL     1       0.898   3.372  -0.258  0.00  0.00    +0.035 A 
ATOM      3  C   UNL     1       0.978   2.011  -0.229  0.00  0.00    +0.074 A 
ATOM      4  C   UNL     1      -0.228   1.280  -0.155  0.00  0.00    +0.268 A 
ATOM      5  O   UNL     1      -0.206   0.060  -0.127  0.00  0.00    -0.266 OA
ATOM      6  N   UNL     1      -1.402   1.938  -0.122  0.00  0.00    -0.220 N 
ATOM      7  N   UNL     1      -1.459   3.220  -0.144  0.00  0.00    -0.168 NA
ENDROOT
BRANCH   1  12
ATOM      8  C   UNL     1      -0.869   9.711  -0.331  0.00  0.00    +0.045 C 
ATOM      9  C   UNL     1      -0.744   8.210  -0.299  0.00  0.00    -0.029 A 
ATOM     10  C   UNL     1       0.506   7.621  -0.343  0.00  0.00    +0.006 A 
ATOM     11  C   UNL     1       0.628   6.246  -0.314  0.00  0.00    +0.010 A 
ATOM     12  C   UNL     1      -0.512   5.447  -0.242  0.00  0.00    +0.004 A 
ATOM     13  C   UNL     1      -1.772   6.039  -0.203  0.00  0.00    +0.033 A 
ATOM     14  C   UNL     1      -1.885   7.421  -0.227  0.00  0.00    +0.037 A 
BRANCH  14  15
ATOM     15  N   UNL     1      -3.148   8.020  -0.182  0.00  0.00    -0.285 N 
ATOM     16  C   UNL     1      -4.188   7.362   0.368  0.00  0.00    +0.220 C 
ATOM     17  O   UNL     1      -4.008   6.295   0.915  0.00  0.00    -0.275 OA
ATOM     18  H   UNL     1      -3.276   8.909  -0.548  0.00  0.00    +0.155 HD
BRANCH  16  19
ATOM     19  C   UNL     1      -5.573   7.953   0.304  0.00  0.00    +0.069 C 
ATOM     20  C   UNL     1      -5.983   8.133  -1.159  0.00  0.00    +0.017 C 
ATOM     21  C   UNL     1      -6.561   7.013   0.999  0.00  0.00    +0.017 C 
ENDBRANCH  16  19
ENDBRANCH  14  15
ENDBRANCH   1  12
BRANCH   6  22
ATOM     22  C   UNL     1      -2.648   1.171  -0.052  0.00  0.00    +0.243 C 
BRANCH  22  23
ATOM     23  C   UNL     1      -3.016   0.941   1.391  0.00  0.00    +0.239 C 
ATOM     24  O   UNL     1      -2.307   1.376   2.275  0.00  0.00    -0.273 OA
ATOM     25  N   UNL     1      -4.132   0.253   1.701  0.00  0.00    -0.284 N 
ATOM     26  H   UNL     1      -4.662  -0.154   0.997  0.00  0.00    +0.155 HD
BRANCH  25  27
ATOM     27  C   UNL     1      -4.528   0.124   3.038  0.00  0.00    +0.037 A 
ATOM     28  C   UNL     1      -3.571   0.014   4.038  0.00  0.00    +0.026 A 
ATOM     29  C   UNL     1      -3.964  -0.112   5.356  0.00  0.00    +0.040 A 
ATOM     30  C   UNL     1      -5.310  -0.128   5.681  0.00  0.00    +0.124 A 
ATOM     31  C   UNL     1      -6.265  -0.019   4.685  0.00  0.00    +0.043 A 
ATOM     32  C   UNL     1      -5.877   0.113   3.365  0.00  0.00    -0.027 A 
ATOM     33  C   UNL     1      -6.917   0.239   2.282  0.00  0.00    +0.046 C 
ATOM     34  F   UNL     1      -5.692  -0.252   6.971  0.00  0.00    -0.205 F 
ENDBRANCH  25  27
ENDBRANCH  22  23
ENDBRANCH   6  22
TORSDOF 6
