REMARK  Name = ZINC37662103
REMARK  6 active torsions:
REMARK  status: ('A' for Active; 'I' for Inactive)
REMARK    1  A    between atoms: C_1  and  N_2
REMARK    2  A    between atoms: C_5  and  N_8
REMARK    3  A    between atoms: N_8  and  S_9
REMARK    4  A    between atoms: S_9  and  C_12
REMARK    5  A    between atoms: C_12  and  C_13
REMARK    6  A    between atoms: C_13  and  C_14
REMARK                            x       y       z     vdW  Elec       q    Type
REMARK                         _______ _______ _______ _____ _____    ______ ____
ROOT
ATOM      1  S   UNL     1       2.472  -4.961   0.546  0.00  0.00    +0.030 S 
ATOM      2  O   UNL     1       2.042  -6.303   0.365  0.00  0.00    -0.158 OA
ATOM      3  O   UNL     1       3.628  -4.475  -0.123  0.00  0.00    -0.158 OA
ENDROOT
BRANCH   1   4
ATOM      4  N   UNL     1       1.228  -4.036  -0.035  0.00  0.00    -0.192 NA
ATOM      5  H   UNL     1       0.427  -4.462  -0.380  0.00  0.00    +0.148 HD
BRANCH   4  10
ATOM      6  C   UNL     1      -0.018   1.465   0.010  0.00  0.00    -0.096 C 
ATOM      7  N   UNL     1       0.002  -0.004   0.002  0.00  0.00    +0.378 N 
ATOM      8  C   UNL     1       0.681  -0.476  -1.210  0.00  0.00    -0.078 C 
ATOM      9  C   UNL     1       0.634  -2.005  -1.264  0.00  0.00    +0.002 C 
ATOM     10  C   UNL     1       1.336  -2.575  -0.029  0.00  0.00    +0.073 C 
ATOM     11  C   UNL     1       0.666  -2.018   1.230  0.00  0.00    +0.002 C 
ATOM     12  C   UNL     1       0.712  -0.489   1.192  0.00  0.00    -0.078 C 
ATOM     13  H   UNL     1      -0.945  -0.352   0.012  0.00  0.00    -0.082 HD
ENDBRANCH   4  10
ENDBRANCH   1   4
BRANCH   1  14
ATOM     14  C   UNL     1       2.561  -4.566   2.314  0.00  0.00    +0.183 C 
BRANCH  14  15
ATOM     15  C   UNL     1       3.689  -5.372   2.961  0.00  0.00    +0.008 C 
BRANCH  15  16
ATOM     16  C   UNL     1       3.765  -5.039   4.452  0.00  0.00    -0.070 C 
ATOM     17  C   UNL     1       4.971  -5.748   5.072  0.00  0.00    -0.016 C 
ATOM     18  C   UNL     1       5.042  -5.411   6.564  0.00  0.00    -0.003 C 
ATOM     19  C   UNL     1       3.724  -5.815   7.232  0.00  0.00    -0.019 C 
ATOM     20  C   UNL     1       2.564  -5.104   6.532  0.00  0.00    -0.082 C 
ATOM     21  N   UNL     1       2.535  -5.488   5.115  0.00  0.00    +0.381 N 
ATOM     22  H   UNL     1       1.737  -5.060   4.669  0.00  0.00    -0.086 HD
ATOM     23  H   UNL     1       2.461  -6.491   5.041  0.00  0.00    -0.086 HD
ENDBRANCH  15  16
ENDBRANCH  14  15
ENDBRANCH   1  14
TORSDOF 5
