REMARK  Name = ZINC12489064
REMARK  15 active torsions:
REMARK  status: ('A' for Active; 'I' for Inactive)
REMARK    1  A    between atoms: C_1  and  C_2
REMARK    2  A    between atoms: C_2  and  C_3
REMARK    3  A    between atoms: C_3  and  C_4
REMARK    4  A    between atoms: C_3  and  C_5
REMARK    5  A    between atoms: C_3  and  N_6
REMARK    6  A    between atoms: C_7  and  C_9
REMARK    7  A    between atoms: C_9  and  C_11
REMARK    8  A    between atoms: C_9  and  N_18
REMARK    9  A    between atoms: C_14  and  C_17
REMARK   10  A    between atoms: N_18  and  C_19
REMARK   11  A    between atoms: C_21  and  C_26
REMARK   12  A    between atoms: C_24  and  C_25
REMARK   13  A    between atoms: C_27  and  C_29
REMARK   14  A    between atoms: C_29  and  N_30
REMARK   15  A    between atoms: C_31  and  C_33
REMARK                            x       y       z     vdW  Elec       q    Type
REMARK                         _______ _______ _______ _____ _____    ______ ____
ROOT
ATOM      1  N   UNL     1       3.265  -0.165  -0.174  0.00  0.00    -0.254 N 
ATOM      2  C   UNL     1       2.564  -0.759   0.812  0.00  0.00    +0.238 C 
ATOM      3  O   UNL     1       3.082  -0.956   1.891  0.00  0.00    -0.274 OA
ENDROOT
BRANCH   1   4
ATOM      4  C   UNL     1       2.668   0.062  -1.418  0.00  0.00    +0.041 A 
ATOM      5  C   UNL     1       2.068   1.286  -1.690  0.00  0.00    +0.027 A 
ATOM      6  C   UNL     1       1.479   1.507  -2.919  0.00  0.00    -0.049 A 
ATOM      7  C   UNL     1       1.486   0.512  -3.880  0.00  0.00    +0.004 A 
ATOM      8  C   UNL     1       2.081  -0.707  -3.612  0.00  0.00    +0.005 A 
ATOM      9  C   UNL     1       2.677  -0.932  -2.387  0.00  0.00    -0.029 A 
ATOM     10  C   UNL     1       3.332  -2.259  -2.099  0.00  0.00    +0.045 C 
ATOM     11  C   UNL     1       0.829   2.834  -3.214  0.00  0.00    +0.044 C 
ENDBRANCH   1   4
BRANCH   1  12
ATOM     12  C   UNL     1       4.653   0.244   0.058  0.00  0.00    +0.197 C 
BRANCH  12  13
ATOM     13  C   UNL     1       4.699   1.256   1.173  0.00  0.00    -0.018 A 
ATOM     14  C   UNL     1       3.904   2.385   1.115  0.00  0.00    +0.006 A 
ATOM     15  C   UNL     1       3.942   3.312   2.140  0.00  0.00    +0.004 A 
ATOM     16  C   UNL     1       4.785   3.114   3.219  0.00  0.00    -0.050 A 
ATOM     17  C   UNL     1       5.585   1.988   3.274  0.00  0.00    +0.004 A 
ATOM     18  C   UNL     1       5.542   1.059   2.251  0.00  0.00    +0.006 A 
ATOM     19  C   UNL     1       4.831   4.127   4.334  0.00  0.00    +0.044 C 
ENDBRANCH  12  13
BRANCH  12  21
ATOM     20  N   UNL     1       6.462   0.546  -1.602  0.00  0.00    -0.308 N 
ATOM     21  C   UNL     1       5.213   0.856  -1.200  0.00  0.00    +0.239 C 
ATOM     22  O   UNL     1       4.540   1.627  -1.851  0.00  0.00    -0.273 OA
ATOM     23  H   UNL     1       7.000  -0.071  -1.082  0.00  0.00    +0.149 HD
BRANCH  20  24
ATOM     24  C   UNL     1       7.006   1.141  -2.825  0.00  0.00    +0.029 C 
ATOM     25  C   UNL     1       6.128   0.753  -4.016  0.00  0.00    +0.031 C 
ATOM     26  C   UNL     1       7.030   2.664  -2.684  0.00  0.00    +0.031 C 
BRANCH  24  28
ATOM     27  C   UNL     1       8.998   1.249  -4.330  0.00  0.00    +0.006 C 
ATOM     28  C   UNL     1       8.430   0.627  -3.052  0.00  0.00    +0.022 C 
ENDBRANCH  24  28
ENDBRANCH  20  24
ENDBRANCH  12  21
ENDBRANCH   1  12
BRANCH   2  29
ATOM     29  C   UNL     1       1.137  -1.179   0.574  0.00  0.00    +0.201 C 
BRANCH  29  30
ATOM     30  N   UNL     1       0.600  -1.796   1.789  0.00  0.00    -0.302 N 
ATOM     31  C   UNL     1      -0.667  -2.256   1.808  0.00  0.00    +0.251 C 
ATOM     32  O   UNL     1      -1.366  -2.155   0.818  0.00  0.00    -0.270 OA
ATOM     33  H   UNL     1       1.157  -1.877   2.579  0.00  0.00    +0.150 HD
BRANCH  31  34
ATOM     34  C   UNL     1      -1.202  -2.879   3.022  0.00  0.00    +0.074 A 
ATOM     35  C   UNL     1      -2.463  -3.406   3.251  0.00  0.00    +0.021 A 
ATOM     36  C   UNL     1      -2.703  -3.938   4.493  0.00  0.00    +0.008 A 
ATOM     37  C   UNL     1      -1.715  -3.916   5.426  0.00  0.00    +0.046 A 
ATOM     38  S   UNL     1      -0.401  -3.151   4.594  0.00  0.00    -0.092 S 
ENDBRANCH  31  34
ENDBRANCH  29  30
ENDBRANCH   2  29
TORSDOF 9
