REMARK  Name = ZINC39953371
REMARK  7 active torsions:
REMARK  status: ('A' for Active; 'I' for Inactive)
REMARK    1  A    between atoms: C_1  and  C_2
REMARK    2  A    between atoms: C_2  and  C_3
REMARK    3  A    between atoms: C_2  and  C_4
REMARK    4  A    between atoms: C_4  and  C_5
REMARK    5  A    between atoms: C_7  and  C_11
REMARK    6  A    between atoms: C_19  and  C_21
REMARK    7  A    between atoms: C_24  and  C_27
REMARK                            x       y       z     vdW  Elec       q    Type
REMARK                         _______ _______ _______ _____ _____    ______ ____
ROOT
ATOM      1  C   UNL     1       5.392  -0.621  -1.886  0.00  0.00    +0.206 C 
ATOM      2  N   UNL     1       4.839  -0.637  -3.261  0.00  0.00    -0.231 NA
ATOM      3  N   UNL     1       5.812   0.066  -4.114  0.00  0.00    -0.224 NA
ATOM      4  C   UNL     1       7.077  -0.086  -3.367  0.00  0.00    +0.240 C 
ATOM      5  N   UNL     1       6.628   0.191  -1.963  0.00  0.00    -0.206 N 
ATOM      6  N   UNL     1       7.415   1.108  -1.301  0.00  0.00    -0.173 NA
ATOM      7  C   UNL     1       8.253   1.894  -1.913  0.00  0.00    +0.125 C 
ATOM      8  S   UNL     1       8.197   1.336  -3.645  0.00  0.00    -0.063 S 
ATOM      9  H   UNL     1       4.694  -1.583  -3.582  0.00  0.00    +0.143 HD
ATOM     10  H   UNL     1       5.875  -0.365  -5.024  0.00  0.00    +0.144 HD
ENDROOT
BRANCH   7  11
ATOM     11  C   UNL     1       9.069   2.982  -1.337  0.00  0.00    +0.008 A 
ATOM     12  C   UNL     1       9.916   3.731  -2.157  0.00  0.00    +0.011 A 
ATOM     13  C   UNL     1      10.676   4.744  -1.618  0.00  0.00    +0.009 A 
ATOM     14  C   UNL     1      10.601   5.024  -0.254  0.00  0.00    -0.018 A 
ATOM     15  C   UNL     1       9.756   4.276   0.567  0.00  0.00    +0.009 A 
ATOM     16  C   UNL     1       8.990   3.266   0.029  0.00  0.00    +0.011 A 
BRANCH  14  17
ATOM     17  C   UNL     1      11.420   6.115   0.325  0.00  0.00    -0.018 A 
ATOM     18  C   UNL     1      12.261   6.868  -0.492  0.00  0.00    +0.008 A 
ATOM     19  C   UNL     1      13.021   7.883   0.052  0.00  0.00    +0.001 A 
ATOM     20  C   UNL     1      12.949   8.155   1.407  0.00  0.00    +0.000 A 
ATOM     21  C   UNL     1      12.116   7.411   2.223  0.00  0.00    +0.001 A 
ATOM     22  C   UNL     1      11.347   6.397   1.689  0.00  0.00    +0.008 A 
ENDBRANCH  14  17
ENDBRANCH   7  11
BRANCH   1  25
ATOM     23  C   UNL     1       2.165  -0.079  -1.208  0.00  0.00    +0.062 C 
ATOM     24  C   UNL     1       3.162  -0.848  -0.763  0.00  0.00    +0.029 C 
ATOM     25  C   UNL     1       4.395   0.024  -0.922  0.00  0.00    +0.190 C 
ATOM     26  N   UNL     1       3.849   1.269  -1.487  0.00  0.00    -0.177 NA
ATOM     27  N   UNL     1       2.631   1.122  -1.615  0.00  0.00    -0.159 NA
BRANCH  23  28
ATOM     28  C   UNL     1       0.718  -0.497  -1.257  0.00  0.00    +0.060 C 
BRANCH  28  30
ATOM     29  C   UNL     1      -0.019   1.526   0.010  0.00  0.00    +0.007 C 
ATOM     30  C   UNL     1       0.002  -0.004   0.002  0.00  0.00    -0.011 C 
ATOM     31  C   UNL     1      -1.433  -0.534   0.013  0.00  0.00    +0.007 C 
ENDBRANCH  28  30
ENDBRANCH  23  28
ENDBRANCH   1  25
TORSDOF 5
