REMARK  Name = ZINC14003715
REMARK  9 active torsions:
REMARK  status: ('A' for Active; 'I' for Inactive)
REMARK    1  A    between atoms: C_1  and  N_2
REMARK    2  A    between atoms: N_2  and  C_3
REMARK    3  A    between atoms: C_9  and  C_11
REMARK    4  A    between atoms: C_16  and  N_17
REMARK    5  A    between atoms: N_17  and  C_18
REMARK    6  A    between atoms: C_18  and  N_20
REMARK    7  A    between atoms: C_21  and  C_23
REMARK    8  A    between atoms: C_23  and  C_24
REMARK    9  A    between atoms: C_23  and  C_30
REMARK                            x       y       z     vdW  Elec       q    Type
REMARK                         _______ _______ _______ _____ _____    ______ ____
ROOT
ATOM      1  C   UNL     1      -1.859  -5.248   3.583  0.00  0.00    +0.141 C 
ATOM      2  S   UNL     1      -3.281  -5.133   4.529  0.00  0.00    -0.018 S 
ENDROOT
BRANCH   1   3
ATOM      3  N   UNL     1      -1.726  -4.496   2.473  0.00  0.00    -0.267 N 
ATOM      4  C   UNL     1      -2.712  -3.652   2.108  0.00  0.00    +0.230 C 
ATOM      5  O   UNL     1      -3.719  -3.571   2.778  0.00  0.00    -0.274 OA
ATOM      6  H   UNL     1      -0.920  -4.561   1.937  0.00  0.00    +0.157 HD
BRANCH   4   7
ATOM      7  C   UNL     1      -2.562  -2.811   0.867  0.00  0.00    +0.135 C 
BRANCH   7   8
ATOM      8  C   UNL     1      -3.794  -1.962   0.684  0.00  0.00    -0.031 A 
ATOM      9  C   UNL     1      -5.015  -2.560   0.435  0.00  0.00    +0.005 A 
ATOM     10  C   UNL     1      -6.146  -1.782   0.273  0.00  0.00    +0.000 A 
ATOM     11  C   UNL     1      -6.054  -0.405   0.349  0.00  0.00    +0.000 A 
ATOM     12  C   UNL     1      -4.832   0.194   0.593  0.00  0.00    +0.000 A 
ATOM     13  C   UNL     1      -3.702  -0.585   0.761  0.00  0.00    +0.005 A 
ENDBRANCH   7   8
BRANCH   7  14
ATOM     14  C   UNL     1      -2.389  -3.709  -0.331  0.00  0.00    -0.031 A 
ATOM     15  C   UNL     1      -3.219  -4.801  -0.502  0.00  0.00    +0.005 A 
ATOM     16  C   UNL     1      -3.063  -5.622  -1.603  0.00  0.00    +0.000 A 
ATOM     17  C   UNL     1      -2.071  -5.356  -2.529  0.00  0.00    +0.000 A 
ATOM     18  C   UNL     1      -1.238  -4.267  -2.355  0.00  0.00    +0.000 A 
ATOM     19  C   UNL     1      -1.397  -3.443  -1.256  0.00  0.00    +0.005 A 
ENDBRANCH   7  14
ENDBRANCH   4   7
ENDBRANCH   1   3
BRANCH   1  20
ATOM     20  N   UNL     1      -0.873  -6.092   3.948  0.00  0.00    -0.296 N 
ATOM     21  H   UNL     1      -0.040  -6.108   3.451  0.00  0.00    +0.154 HD
BRANCH  20  27
ATOM     22  C   UNL     1      -0.707  -8.296   4.938  0.00  0.00    +0.058 A 
ATOM     23  C   UNL     1      -0.889  -9.136   6.039  0.00  0.00    +0.015 A 
ATOM     24  C   UNL     1      -1.403  -8.630   7.213  0.00  0.00    +0.001 A 
ATOM     25  C   UNL     1      -1.741  -7.289   7.308  0.00  0.00    +0.002 A 
ATOM     26  C   UNL     1      -1.562  -6.446   6.230  0.00  0.00    +0.024 A 
ATOM     27  C   UNL     1      -1.050  -6.940   5.037  0.00  0.00    +0.045 A 
BRANCH  22  30
ATOM     28  C   UNL     1       1.524 -10.020   4.984  0.00  0.00    +0.132 C 
ATOM     29  N   UNL     1       0.939  -9.618   3.703  0.00  0.00    -0.297 N 
ATOM     30  C   UNL     1      -0.156  -8.832   3.679  0.00  0.00    +0.248 C 
ATOM     31  O   UNL     1      -0.689  -8.564   2.620  0.00  0.00    -0.270 OA
BRANCH  29  32
ATOM     32  C   UNL     1       1.543 -10.070   2.447  0.00  0.00    +0.076 C 
ATOM     33  C   UNL     1       1.529 -11.599   2.396  0.00  0.00    +0.022 C 
ATOM     34  C   UNL     1       2.161 -12.072   1.085  0.00  0.00    +0.002 C 
ATOM     35  C   UNL     1       3.605 -11.572   1.005  0.00  0.00    +0.000 C 
ATOM     36  C   UNL     1       3.619 -10.043   1.056  0.00  0.00    +0.002 C 
ATOM     37  C   UNL     1       2.987  -9.571   2.368  0.00  0.00    +0.022 C 
ENDBRANCH  29  32
ENDBRANCH  22  30
ENDBRANCH  20  27
ENDBRANCH   1  20
TORSDOF 8
