REMARK  Name = ZINC09543163
REMARK  4 active torsions:
REMARK  status: ('A' for Active; 'I' for Inactive)
REMARK    1  A    between atoms: C_4  and  O_32
REMARK    2  A    between atoms: C_5  and  C_7
REMARK    3  A    between atoms: C_10  and  C_23
REMARK    4  A    between atoms: C_12  and  C_15
REMARK                            x       y       z     vdW  Elec       q    Type
REMARK                         _______ _______ _______ _____ _____    ______ ____
ROOT
ATOM      1  C   UNL     1       1.271  -2.145   0.243  0.00  0.00    -0.028 C 
ATOM      2  C   UNL     1       1.378  -2.396  -1.264  0.00  0.00    +0.044 C 
ATOM      3  C   UNL     1       1.025  -3.829  -1.556  0.00  0.00    +0.040 C 
ATOM      4  N   UNL     1       0.429  -4.583  -0.709  0.00  0.00    -0.298 NA
ATOM      5  C   UNL     1       0.033  -4.155   0.626  0.00  0.00    +0.085 C 
ATOM      6  N   UNL     1      -0.012  -2.692   0.714  0.00  0.00    +0.401 N 
ATOM      7  H   UNL     1      -0.167  -2.415   1.672  0.00  0.00    -0.081 HD
ATOM      8  H   UNL     1      -0.761  -2.342   0.135  0.00  0.00    -0.081 HD
ENDROOT
BRANCH   3   9
ATOM      9  C   UNL     1       1.380  -4.389  -2.874  0.00  0.00    -0.001 A 
ATOM     10  C   UNL     1       2.035  -3.595  -3.819  0.00  0.00    +0.013 A 
ATOM     11  C   UNL     1       2.366  -4.120  -5.049  0.00  0.00    +0.050 A 
ATOM     12  C   UNL     1       2.050  -5.437  -5.354  0.00  0.00    +0.166 A 
ATOM     13  C   UNL     1       1.396  -6.235  -4.415  0.00  0.00    +0.167 A 
ATOM     14  C   UNL     1       1.067  -5.716  -3.178  0.00  0.00    +0.059 A 
ATOM     15  O   UNL     1       1.203  -7.474  -4.956  0.00  0.00    -0.453 OA
ATOM     16  C   UNL     1       1.377  -7.305  -6.375  0.00  0.00    +0.466 C 
ATOM     17  O   UNL     1       2.266  -6.178  -6.480  0.00  0.00    -0.453 OA
ENDBRANCH   3   9
BRANCH   5  18
ATOM     18  C   UNL     1      -1.331  -4.713   0.941  0.00  0.00    +0.013 A 
ATOM     19  C   UNL     1      -2.387  -4.493   0.072  0.00  0.00    +0.128 A 
ATOM     20  C   UNL     1      -3.639  -5.006   0.362  0.00  0.00    +0.039 A 
ATOM     21  C   UNL     1      -3.836  -5.736   1.520  0.00  0.00    +0.004 A 
ATOM     22  C   UNL     1      -2.783  -5.955   2.387  0.00  0.00    +0.020 A 
ATOM     23  C   UNL     1      -1.529  -5.448   2.095  0.00  0.00    +0.047 A 
ATOM     24 CL   UNL     1      -0.204  -5.730   3.182  0.00  0.00    -0.083 Cl
ATOM     25  F   UNL     1      -2.194  -3.779  -1.059  0.00  0.00    -0.205 F 
ENDBRANCH   5  18
BRANCH   1  30
ATOM     26  C   UNL     1       0.201   1.398   0.990  0.00  0.00    +0.000 A 
ATOM     27  C   UNL     1       1.417   2.057   1.016  0.00  0.00    +0.004 A 
ATOM     28  C   UNL     1       2.587   1.359   0.793  0.00  0.00    +0.045 A 
ATOM     29  C   UNL     1       2.543  -0.005   0.542  0.00  0.00    +0.118 A 
ATOM     30  C   UNL     1       1.323  -0.664   0.516  0.00  0.00    -0.019 A 
ATOM     31  C   UNL     1       0.155   0.039   0.740  0.00  0.00    +0.005 A 
BRANCH  29  32
ATOM     32  O   UNL     1       3.693  -0.694   0.322  0.00  0.00    -0.507 OA
ATOM     33  H   UNL     1       4.096  -1.055   1.124  0.00  0.00    +0.292 HD
ENDBRANCH  29  32
ENDBRANCH   1  30
TORSDOF 4
