REMARK  Name = ZINC64697355
REMARK  7 active torsions:
REMARK  status: ('A' for Active; 'I' for Inactive)
REMARK    1  A    between atoms: C_1  and  C_2
REMARK    2  A    between atoms: C_2  and  C_4
REMARK    3  A    between atoms: C_2  and  N_17
REMARK    4  A    between atoms: N_17  and  C_18
REMARK    5  A    between atoms: C_18  and  C_19
REMARK    6  A    between atoms: C_19  and  C_21
REMARK    7  A    between atoms: C_19  and  C_27
REMARK                            x       y       z     vdW  Elec       q    Type
REMARK                         _______ _______ _______ _____ _____    ______ ____
ROOT
ATOM      1  N   UNL     1       0.635  -0.586   1.347  0.00  0.00    +0.387 N 
ATOM      2  H   UNL     1       0.209  -0.312   2.220  0.00  0.00    -0.085 HD
ATOM      3  H   UNL     1       0.651  -1.593   1.283  0.00  0.00    -0.085 HD
ENDROOT
BRANCH   1   5
ATOM      4  C   UNL     1      -0.274   1.479   0.394  0.00  0.00    -0.004 C 
ATOM      5  C   UNL     1      -0.143  -0.037   0.229  0.00  0.00    +0.013 C 
BRANCH   5   6
ATOM      6  C   UNL     1      -1.515  -0.661   0.217  0.00  0.00    +0.206 C 
ATOM      7  O   UNL     1      -1.988  -1.106   1.241  0.00  0.00    -0.277 OA
ATOM      8  N   UNL     1      -2.217  -0.724  -0.932  0.00  0.00    -0.262 N 
ATOM      9  C   UNL     1      -1.623  -0.296  -2.208  0.00  0.00    +0.209 C 
ATOM     10  C   UNL     1      -2.648   0.487  -2.988  0.00  0.00    +0.235 C 
ATOM     11  O   UNL     1      -2.282   1.348  -3.760  0.00  0.00    -0.274 OA
ATOM     12  N   UNL     1      -3.963   0.242  -2.839  0.00  0.00    -0.283 N 
ATOM     13  C   UNL     1      -4.414  -0.711  -1.919  0.00  0.00    +0.055 A 
ATOM     14  C   UNL     1      -3.535  -1.206  -0.950  0.00  0.00    +0.058 A 
ATOM     15  C   UNL     1      -3.964  -2.147  -0.033  0.00  0.00    +0.025 A 
ATOM     16  C   UNL     1      -5.269  -2.606  -0.079  0.00  0.00    +0.002 A 
ATOM     17  C   UNL     1      -6.141  -2.126  -1.039  0.00  0.00    +0.002 A 
ATOM     18  C   UNL     1      -5.719  -1.173  -1.959  0.00  0.00    +0.025 A 
ATOM     19  H   UNL     1      -4.606   0.733  -3.375  0.00  0.00    +0.155 HD
ENDBRANCH   5   6
ENDBRANCH   1   5
BRANCH   1  20
ATOM     20  C   UNL     1       2.009  -0.069   1.289  0.00  0.00    -0.073 C 
BRANCH  20  21
ATOM     21  C   UNL     1       2.790  -0.557   2.510  0.00  0.00    +0.014 C 
BRANCH  21  22
ATOM     22  C   UNL     1       2.926  -2.057   2.454  0.00  0.00    -0.039 C 
ATOM     23  C   UNL     1       2.469  -2.950   3.361  0.00  0.00    -0.001 A 
ATOM     24  C   UNL     1       1.738  -2.797   4.624  0.00  0.00    +0.010 A 
ATOM     25  C   UNL     1       1.411  -3.904   5.331  0.00  0.00    +0.001 A 
ATOM     26  C   UNL     1       1.753  -5.189   4.887  0.00  0.00    +0.002 A 
ATOM     27  C   UNL     1       2.425  -5.409   3.737  0.00  0.00    +0.026 A 
ATOM     28  C   UNL     1       2.818  -4.317   2.914  0.00  0.00    +0.043 A 
ATOM     29  N   UNL     1       3.466  -4.271   1.776  0.00  0.00    -0.380 N 
ATOM     30  C   UNL     1       3.595  -2.868   1.367  0.00  0.00    +0.145 C 
ATOM     31  H   UNL     1       3.800  -5.037   1.283  0.00  0.00    +0.160 HD
ENDBRANCH  21  22
BRANCH  21  32
ATOM     32  C   UNL     1       4.180   0.082   2.515  0.00  0.00    +0.060 C 
ATOM     33  C   UNL     1       4.966  -0.277   3.803  0.00  0.00    +0.042 C 
ATOM     34  C   UNL     1       5.756   0.897   4.286  0.00  0.00    -0.019 C 
ATOM     35  C   UNL     1       5.455   2.109   3.864  0.00  0.00    +0.036 C 
ATOM     36  S   UNL     1       4.084   1.908   2.738  0.00  0.00    -0.129 S 
ENDBRANCH  21  32
ENDBRANCH  20  21
ENDBRANCH   1  20
TORSDOF 6
