REMARK  Name = ZINC67129583
REMARK  3 active torsions:
REMARK  status: ('A' for Active; 'I' for Inactive)
REMARK    1  A    between atoms: C_3  and  C_11
REMARK    2  A    between atoms: N_13  and  N_14
REMARK    3  A    between atoms: C_15  and  C_17
REMARK                            x       y       z     vdW  Elec       q    Type
REMARK                         _______ _______ _______ _____ _____    ______ ____
ROOT
ATOM      1  C   UNL     1       3.651   2.174  -0.024  0.00  0.00    +0.264 C 
ATOM      2  O   UNL     1       4.714   1.583  -0.038  0.00  0.00    -0.269 OA
ATOM      3  N   UNL     1       3.630   3.522  -0.016  0.00  0.00    -0.230 N 
ATOM      4  H   UNL     1       2.782   3.993  -0.005  0.00  0.00    +0.173 HD
ENDROOT
BRANCH   1   7
ATOM      5  C   UNL     1      -0.017   1.380   0.010  0.00  0.00    +0.005 A 
ATOM      6  C   UNL     1       1.163   2.092   0.002  0.00  0.00    +0.017 A 
ATOM      7  C   UNL     1       2.386   1.416  -0.014  0.00  0.00    +0.083 A 
ATOM      8  C   UNL     1       2.405   0.015  -0.023  0.00  0.00    +0.174 A 
ATOM      9  C   UNL     1       1.207  -0.690  -0.013  0.00  0.00    +0.163 A 
ATOM     10  C   UNL     1       0.002  -0.004   0.002  0.00  0.00    +0.049 A 
ATOM     11  O   UNL     1       1.201  -2.051  -0.013  0.00  0.00    -0.485 OA
ATOM     12  C   UNL     1       2.416  -2.700  -0.403  0.00  0.00    +0.270 C 
ATOM     13  C   UNL     1       3.581  -2.019   0.329  0.00  0.00    +0.270 C 
ATOM     14  O   UNL     1       3.596  -0.636  -0.042  0.00  0.00    -0.484 OA
ENDBRANCH   1   7
BRANCH   3  15
ATOM     15  N   UNL     1       4.832   4.242  -0.025  0.00  0.00    -0.230 N 
ATOM     16  C   UNL     1       4.810   5.589  -0.018  0.00  0.00    +0.267 C 
ATOM     17  O   UNL     1       3.747   6.181  -0.003  0.00  0.00    -0.268 OA
ATOM     18  H   UNL     1       5.679   3.770  -0.037  0.00  0.00    +0.173 HD
BRANCH  16  19
ATOM     19  C   UNL     1       6.067   6.342  -0.027  0.00  0.00    +0.076 A 
ATOM     20  C   UNL     1       6.264   7.715  -0.016  0.00  0.00    +0.022 A 
ATOM     21  C   UNL     1       7.573   8.130  -0.029  0.00  0.00    +0.024 A 
ATOM     22  C   UNL     1       8.560   7.199  -0.051  0.00  0.00    +0.056 A 
ATOM     23  S   UNL     1       7.742   5.732  -0.047  0.00  0.00    -0.077 S 
ATOM     24 BR   UNL     1      10.429   7.487  -0.074  0.00  0.00    -0.043 Br
ENDBRANCH  16  19
ENDBRANCH   3  15
TORSDOF 3
