REMARK  Name = ZINC14459520
REMARK  7 active torsions:
REMARK  status: ('A' for Active; 'I' for Inactive)
REMARK    1  A    between atoms: C_1  and  O_2
REMARK    2  A    between atoms: O_2  and  C_3
REMARK    3  A    between atoms: C_7  and  C_10
REMARK    4  A    between atoms: C_8  and  O_9
REMARK    5  A    between atoms: C_21  and  S_26
REMARK    6  A    between atoms: S_26  and  N_29
REMARK    7  A    between atoms: N_29  and  C_30
REMARK                            x       y       z     vdW  Elec       q    Type
REMARK                         _______ _______ _______ _____ _____    ______ ____
ROOT
ATOM      1  C   UNL     1       5.524  -5.320   0.855  0.00  0.00    +0.109 C 
ATOM      2  C   UNL     1       4.189  -4.846   1.399  0.00  0.00    +0.029 C 
ATOM      3  C   UNL     1       3.260  -4.104   0.427  0.00  0.00    +0.033 C 
ATOM      4  C   UNL     1       1.882  -4.454   0.992  0.00  0.00    -0.030 C 
ATOM      5  C   UNL     1       1.941  -5.604   1.653  0.00  0.00    -0.023 C 
ATOM      6  C   UNL     1       3.337  -6.136   1.591  0.00  0.00    +0.049 C 
ATOM      7  C   UNL     1       3.948  -6.923   2.684  0.00  0.00    -0.018 A 
ATOM      8  C   UNL     1       3.197  -7.664   3.572  0.00  0.00    +0.034 A 
ATOM      9  C   UNL     1       3.817  -8.394   4.569  0.00  0.00    +0.109 A 
ATOM     10  C   UNL     1       5.195  -8.385   4.678  0.00  0.00    +0.030 A 
ATOM     11  C   UNL     1       5.955  -7.642   3.798  0.00  0.00    +0.025 A 
ATOM     12  C   UNL     1       5.342  -6.899   2.796  0.00  0.00    +0.031 A 
ATOM     13  N   UNL     1       6.134  -6.127   1.935  0.00  0.00    -0.336 N 
ATOM     14  H   UNL     1       7.097  -6.119   2.049  0.00  0.00    +0.147 HD
ENDROOT
BRANCH   1  19
ATOM     15  C   UNL     1       7.055  -2.379  -0.973  0.00  0.00    +0.162 A 
ATOM     16  C   UNL     1       8.021  -1.971  -0.067  0.00  0.00    +0.049 A 
ATOM     17  C   UNL     1       8.176  -2.645   1.130  0.00  0.00    +0.004 A 
ATOM     18  C   UNL     1       7.368  -3.727   1.427  0.00  0.00    +0.009 A 
ATOM     19  C   UNL     1       6.403  -4.140   0.528  0.00  0.00    +0.018 A 
ATOM     20  C   UNL     1       6.238  -3.465  -0.671  0.00  0.00    +0.163 A 
BRANCH  15  22
ATOM     21  C   UNL     1       7.775  -0.613  -2.392  0.00  0.00    +0.277 C 
ATOM     22  O   UNL     1       6.902  -1.717  -2.150  0.00  0.00    -0.491 OA
ENDBRANCH  15  22
BRANCH  20  23
ATOM     23  O   UNL     1       5.285  -3.866  -1.554  0.00  0.00    -0.503 OA
ATOM     24  H   UNL     1       5.591  -4.526  -2.191  0.00  0.00    +0.292 HD
ENDBRANCH  20  23
ENDBRANCH   1  19
BRANCH   9  25
ATOM     25  S   UNL     1       2.849  -9.337   5.701  0.00  0.00    +0.072 S 
ATOM     26  O   UNL     1       3.582  -9.387   6.917  0.00  0.00    -0.150 OA
ATOM     27  O   UNL     1       1.526  -8.825   5.628  0.00  0.00    -0.150 OA
BRANCH  25  28
ATOM     28  N   UNL     1       2.789 -10.887   5.121  0.00  0.00    -0.216 N 
ATOM     29  H   UNL     1       3.171 -11.613   5.638  0.00  0.00    +0.174 HD
BRANCH  28  30
ATOM     30  C   UNL     1       2.189 -11.148   3.887  0.00  0.00    +0.048 A 
ATOM     31  C   UNL     1       0.805 -11.134   3.769  0.00  0.00    +0.024 A 
ATOM     32  C   UNL     1       0.215 -11.392   2.547  0.00  0.00    +0.002 A 
ATOM     33  C   UNL     1       1.001 -11.665   1.442  0.00  0.00    +0.000 A 
ATOM     34  C   UNL     1       2.379 -11.680   1.556  0.00  0.00    +0.002 A 
ATOM     35  C   UNL     1       2.976 -11.417   2.773  0.00  0.00    +0.024 A 
ENDBRANCH  28  30
ENDBRANCH  25  28
ENDBRANCH   9  25
TORSDOF 6
