REMARK  Name = ZINC43222836
REMARK  10 active torsions:
REMARK  status: ('A' for Active; 'I' for Inactive)
REMARK    1  A    between atoms: C_1  and  C_2
REMARK    2  A    between atoms: C_2  and  C_4
REMARK    3  A    between atoms: C_2  and  N_10
REMARK    4  A    between atoms: C_11  and  C_13
REMARK    5  A    between atoms: C_18  and  C_20
REMARK    6  A    between atoms: N_22  and  C_23
REMARK    7  A    between atoms: C_23  and  C_24
REMARK    8  A    between atoms: C_24  and  C_25
REMARK    9  A    between atoms: C_29  and  O_31
REMARK   10  A    between atoms: O_31  and  C_32
REMARK                            x       y       z     vdW  Elec       q    Type
REMARK                         _______ _______ _______ _____ _____    ______ ____
ROOT
ATOM      1  C   UNL     1       0.780  -1.133   3.576  0.00  0.00    +0.068 C 
ATOM      2  C   UNL     1       1.895  -0.143   3.977  0.00  0.00    -0.069 C 
ATOM      3  N   UNL     1       1.272   0.724   5.010  0.00  0.00    +0.380 N 
ATOM      4  C   UNL     1       0.447  -0.208   5.820  0.00  0.00    -0.069 C 
ATOM      5  C   UNL     1      -0.173  -1.178   4.788  0.00  0.00    +0.068 C 
ATOM      6  H   UNL     1       1.982   1.156   5.583  0.00  0.00    -0.086 HD
ATOM      7  H   UNL     1       0.691   1.426   4.578  0.00  0.00    -0.086 HD
ENDROOT
BRANCH   1   9
ATOM      8  N   UNL     1       0.711  -0.489   1.189  0.00  0.00    -0.312 N 
ATOM      9  C   UNL     1       0.051  -0.633   2.355  0.00  0.00    +0.215 C 
ATOM     10  O   UNL     1      -1.129  -0.361   2.423  0.00  0.00    -0.276 OA
ATOM     11  H   UNL     1       1.654  -0.707   1.135  0.00  0.00    +0.149 HD
BRANCH   8  13
ATOM     12  C   UNL     1      -0.019   1.526   0.010  0.00  0.00    +0.028 C 
ATOM     13  C   UNL     1       0.002  -0.004   0.002  0.00  0.00    +0.073 C 
BRANCH  13  14
ATOM     14  C   UNL     1       0.718  -0.497  -1.257  0.00  0.00    +0.009 C 
ATOM     15  C   UNL     1       2.154   0.032  -1.268  0.00  0.00    +0.005 C 
ATOM     16  C   UNL     1       2.870  -0.461  -2.526  0.00  0.00    +0.000 C 
ATOM     17  C   UNL     1       2.130   0.045  -3.766  0.00  0.00    +0.000 C 
ATOM     18  C   UNL     1       0.694  -0.484  -3.755  0.00  0.00    +0.000 C 
ATOM     19  C   UNL     1      -0.022   0.009  -2.496  0.00  0.00    +0.005 C 
ENDBRANCH  13  14
ENDBRANCH   8  13
ENDBRANCH   1   9
BRANCH   5  20
ATOM     20  C   UNL     1      -0.237  -2.574   5.352  0.00  0.00    +0.215 C 
ATOM     21  O   UNL     1       0.413  -3.464   4.844  0.00  0.00    -0.276 OA
ATOM     22  N   UNL     1      -1.017  -2.835   6.420  0.00  0.00    -0.315 N 
ATOM     23  H   UNL     1      -1.537  -2.124   6.826  0.00  0.00    +0.149 HD
BRANCH  22  24
ATOM     24  C   UNL     1      -1.079  -4.192   6.968  0.00  0.00    +0.109 C 
BRANCH  24  25
ATOM     25  C   UNL     1      -2.029  -4.215   8.167  0.00  0.00    +0.054 C 
BRANCH  25  26
ATOM     26  C   UNL     1      -2.092  -5.611   8.731  0.00  0.00    -0.042 A 
ATOM     27  C   UNL     1      -3.034  -6.506   8.255  0.00  0.00    +0.004 A 
ATOM     28  C   UNL     1      -3.095  -7.787   8.770  0.00  0.00    +0.004 A 
ATOM     29  C   UNL     1      -2.216  -8.178   9.762  0.00  0.00    +0.045 A 
ATOM     30  C   UNL     1      -1.270  -7.282  10.240  0.00  0.00    +0.120 A 
ATOM     31  C   UNL     1      -1.207  -5.998   9.718  0.00  0.00    +0.049 A 
BRANCH  30  32
ATOM     32  O   UNL     1      -0.404  -7.663  11.216  0.00  0.00    -0.495 OA
ATOM     33  C   UNL     1      -0.524  -9.002  11.702  0.00  0.00    +0.277 C 
ENDBRANCH  30  32
ENDBRANCH  25  26
ENDBRANCH  24  25
ENDBRANCH  22  24
ENDBRANCH   5  20
TORSDOF 8
