REMARK  Name = ZINC19893725
REMARK  7 active torsions:
REMARK  status: ('A' for Active; 'I' for Inactive)
REMARK    1  A    between atoms: C_1  and  C_2
REMARK    2  A    between atoms: C_17  and  C_29
REMARK    3  A    between atoms: C_22  and  C_23
REMARK    4  A    between atoms: C_22  and  O_28
REMARK    5  A    between atoms: C_23  and  C_25
REMARK    6  A    between atoms: C_23  and  O_27
REMARK    7  A    between atoms: C_25  and  O_26
REMARK                            x       y       z     vdW  Elec       q    Type
REMARK                         _______ _______ _______ _____ _____    ______ ____
ROOT
ATOM      1  C   UNL     1      -0.743   1.971   1.278  0.00  0.00    +0.016 C 
ATOM      2  C   UNL     1      -0.018   1.514   0.010  0.00  0.00    -0.007 C 
ATOM      3  C   UNL     1       0.002  -0.004   0.002  0.00  0.00    +0.019 C 
ATOM      4  C   UNL     1       1.112  -0.558   0.895  0.00  0.00    +0.080 C 
ATOM      5  C   UNL     1       2.425   0.008   0.390  0.00  0.00    +0.156 C 
ATOM      6  O   UNL     1       3.387  -0.701   0.180  0.00  0.00    -0.293 OA
ATOM      7  C   UNL     1       2.471   1.457   0.168  0.00  0.00    +0.046 C 
ATOM      8  C   UNL     1       1.341   2.142   0.001  0.00  0.00    -0.060 C 
ATOM      9  C   UNL     1       1.443   3.645  -0.188  0.00  0.00    +0.032 C 
ATOM     10  C   UNL     1       0.609   4.042  -1.407  0.00  0.00    +0.008 C 
ATOM     11  C   UNL     1      -0.828   3.541  -1.223  0.00  0.00    -0.003 C 
ATOM     12  C   UNL     1      -0.835   2.015  -1.188  0.00  0.00    +0.002 C 
ATOM     13  C   UNL     1      -2.262   1.518  -1.050  0.00  0.00    +0.005 C 
ATOM     14  C   UNL     1      -3.064   1.961  -2.270  0.00  0.00    +0.010 C 
ATOM     15  C   UNL     1      -3.120   3.489  -2.352  0.00  0.00    +0.002 C 
ATOM     16  C   UNL     1      -1.701   4.082  -2.330  0.00  0.00    +0.001 C 
ATOM     17  C   UNL     1      -1.163   3.734  -3.730  0.00  0.00    +0.007 C 
ATOM     18  C   UNL     1      -2.381   3.966  -4.653  0.00  0.00    +0.038 C 
ATOM     19  C   UNL     1      -3.634   3.848  -3.765  0.00  0.00    +0.100 C 
ATOM     20  C   UNL     1      -4.009   4.094  -1.263  0.00  0.00    +0.014 C 
ENDROOT
BRANCH  19  21
ATOM     21  O   UNL     1      -4.342   5.089  -3.747  0.00  0.00    -0.385 OA
ATOM     22  H   UNL     1      -4.774   5.489  -4.677  0.00  0.00    +0.210 HD
ENDBRANCH  19  21
BRANCH  19  23
ATOM     23  C   UNL     1      -4.542   2.731  -4.283  0.00  0.00    +0.172 C 
BRANCH  23  24
ATOM     24  O   UNL     1      -5.683   2.610  -3.430  0.00  0.00    -0.387 OA
ATOM     25  H   UNL     1      -6.453   1.855  -3.645  0.00  0.00    +0.210 HD
ENDBRANCH  23  24
BRANCH  23  26
ATOM     26  C   UNL     1      -5.001   3.064  -5.704  0.00  0.00    +0.190 C 
BRANCH  26  27
ATOM     27  O   UNL     1      -5.753   1.969  -6.231  0.00  0.00    -0.392 OA
ATOM     28  H   UNL     1      -6.168   2.026  -7.248  0.00  0.00    +0.210 HD
ENDBRANCH  26  27
ENDBRANCH  23  26
ENDBRANCH  19  23
TORSDOF 5
