REMARK  Name = ZINC16495343
REMARK  10 active torsions:
REMARK  status: ('A' for Active; 'I' for Inactive)
REMARK    1  A    between atoms: C_4  and  C_7
REMARK    2  A    between atoms: C_7  and  C_8
REMARK    3  A    between atoms: N_13  and  C_14
REMARK    4  A    between atoms: N_13  and  C_21
REMARK    5  A    between atoms: C_14  and  C_15
REMARK    6  A    between atoms: C_21  and  C_22
REMARK    7  A    between atoms: N_24  and  C_25
REMARK    8  A    between atoms: C_25  and  C_27
REMARK    9  A    between atoms: C_25  and  C_34
REMARK   10  A    between atoms: C_27  and  C_28
REMARK                            x       y       z     vdW  Elec       q    Type
REMARK                         _______ _______ _______ _____ _____    ______ ____
ROOT
ATOM      1  C   UNL     1       0.116   4.065   6.367  0.00  0.00    +0.145 A 
ATOM      2  N   UNL     1      -0.939   3.880   5.608  0.00  0.00    -0.208 NA
ATOM      3  C   UNL     1      -2.071   3.492   6.177  0.00  0.00    +0.181 A 
ATOM      4  S   UNL     1      -1.605   3.399   7.846  0.00  0.00    +0.049 S 
ATOM      5  N   UNL     1       0.032   3.865   7.660  0.00  0.00    -0.192 NA
ATOM      6  N   UNL     1      -3.300   3.235   5.596  0.00  0.00    -0.295 N 
ENDROOT
BRANCH   1   7
ATOM      7  C   UNL     1       1.420   4.507   5.754  0.00  0.00    +0.112 C 
BRANCH   7  11
ATOM      8  C   UNL     1       1.597   8.774   5.704  0.00  0.00    +0.000 A 
ATOM      9  C   UNL     1       2.080   8.075   6.795  0.00  0.00    +0.000 A 
ATOM     10  C   UNL     1       2.022   6.694   6.811  0.00  0.00    +0.004 A 
ATOM     11  C   UNL     1       1.482   6.012   5.737  0.00  0.00    -0.040 A 
ATOM     12  C   UNL     1       1.005   6.711   4.644  0.00  0.00    +0.004 A 
ATOM     13  C   UNL     1       1.058   8.092   4.630  0.00  0.00    +0.000 A 
ENDBRANCH   7  11
ENDBRANCH   1   7
BRANCH   6  14
ATOM     14  C   UNL     1      -4.429   2.812   6.428  0.00  0.00    +0.142 C 
BRANCH  14  15
ATOM     15  C   UNL     1      -4.445   1.308   6.527  0.00  0.00    -0.030 A 
ATOM     16  C   UNL     1      -5.151   0.562   5.602  0.00  0.00    +0.005 A 
ATOM     17  C   UNL     1      -5.161  -0.818   5.690  0.00  0.00    +0.000 A 
ATOM     18  C   UNL     1      -4.473  -1.450   6.708  0.00  0.00    +0.000 A 
ATOM     19  C   UNL     1      -3.771  -0.704   7.636  0.00  0.00    +0.000 A 
ATOM     20  C   UNL     1      -3.757   0.675   7.545  0.00  0.00    +0.005 A 
ENDBRANCH  14  15
ENDBRANCH   6  14
BRANCH   6  21
ATOM     21  C   UNL     1      -3.472   3.386   4.149  0.00  0.00    +0.203 C 
BRANCH  21  22
ATOM     22  C   UNL     1      -3.159   2.080   3.467  0.00  0.00    +0.231 C 
ATOM     23  O   UNL     1      -2.825   1.117   4.125  0.00  0.00    -0.274 OA
ATOM     24  N   UNL     1      -3.249   1.981   2.126  0.00  0.00    -0.307 N 
ATOM     25  H   UNL     1      -3.517   2.751   1.600  0.00  0.00    +0.149 HD
BRANCH  24  26
ATOM     26  C   UNL     1      -2.945   0.711   1.462  0.00  0.00    +0.107 C 
BRANCH  26  27
ATOM     27  C   UNL     1      -4.172  -0.164   1.465  0.00  0.00    -0.027 A 
ATOM     28  C   UNL     1      -5.418   0.391   1.239  0.00  0.00    +0.005 A 
ATOM     29  C   UNL     1      -6.543  -0.412   1.237  0.00  0.00    +0.000 A 
ATOM     30  C   UNL     1      -6.423  -1.769   1.471  0.00  0.00    +0.000 A 
ATOM     31  C   UNL     1      -5.178  -2.324   1.703  0.00  0.00    +0.000 A 
ATOM     32  C   UNL     1      -4.053  -1.521   1.700  0.00  0.00    +0.005 A 
ENDBRANCH  26  27
BRANCH  26  33
ATOM     33  C   UNL     1      -2.514   0.980   0.019  0.00  0.00    +0.062 C 
BRANCH  33  34
ATOM     34  C   UNL     1      -1.219   1.751   0.017  0.00  0.00    -0.045 A 
ATOM     35  C   UNL     1      -0.013   1.076   0.008  0.00  0.00    +0.004 A 
ATOM     36  C   UNL     1       1.175   1.783   0.000  0.00  0.00    +0.000 A 
ATOM     37  C   UNL     1       1.156   3.165   0.008  0.00  0.00    +0.000 A 
ATOM     38  C   UNL     1      -0.050   3.840   0.022  0.00  0.00    +0.000 A 
ATOM     39  C   UNL     1      -1.238   3.133   0.030  0.00  0.00    +0.004 A 
ENDBRANCH  33  34
ENDBRANCH  26  33
ENDBRANCH  24  26
ENDBRANCH  21  22
ENDBRANCH   6  21
TORSDOF 10
