REMARK  Name = ZINC63406893
REMARK  11 active torsions:
REMARK  status: ('A' for Active; 'I' for Inactive)
REMARK    1  A    between atoms: C_1  and  C_2
REMARK    2  A    between atoms: C_2  and  N_3
REMARK    3  A    between atoms: N_3  and  C_4
REMARK    4  A    between atoms: N_3  and  C_6
REMARK    5  A    between atoms: C_4  and  C_5
REMARK    6  A    between atoms: C_6  and  C_7
REMARK    7  A    between atoms: C_6  and  C_22
REMARK    8  A    between atoms: C_7  and  N_8
REMARK    9  A    between atoms: N_11  and  C_12
REMARK   10  A    between atoms: C_15  and  C_18
REMARK   11  A    between atoms: N_20  and  C_21
REMARK                            x       y       z     vdW  Elec       q    Type
REMARK                         _______ _______ _______ _____ _____    ______ ____
ROOT
ATOM      1  N   UNL     1      -1.421  -1.931  -0.442  0.00  0.00    -0.301 N 
ATOM      2  C   UNL     1      -2.678  -2.406  -0.331  0.00  0.00    +0.300 C 
ATOM      3  O   UNL     1      -3.136  -3.121  -1.200  0.00  0.00    -0.253 OA
ATOM      4  N   UNL     1      -3.426  -2.089   0.745  0.00  0.00    -0.297 N 
ATOM      5  H   UNL     1      -1.055  -1.361   0.253  0.00  0.00    +0.150 HD
ATOM      6  H   UNL     1      -3.060  -1.518   1.439  0.00  0.00    +0.151 HD
ENDROOT
BRANCH   4   7
ATOM      7  C   UNL     1      -4.791  -2.605   0.865  0.00  0.00    +0.074 C 
ATOM      8  C   UNL     1      -4.755  -4.003   1.486  0.00  0.00    +0.023 C 
ATOM      9  C   UNL     1      -6.181  -4.542   1.612  0.00  0.00    +0.014 C 
ATOM     10  C   UNL     1      -7.002  -3.609   2.504  0.00  0.00    +0.075 C 
ATOM     11  C   UNL     1      -7.039  -2.211   1.883  0.00  0.00    +0.014 C 
ATOM     12  C   UNL     1      -5.612  -1.672   1.757  0.00  0.00    +0.023 C 
BRANCH  10  13
ATOM     13  C   UNL     1      -8.407  -4.141   2.628  0.00  0.00    +0.216 C 
ATOM     14  O   UNL     1      -8.721  -5.165   2.059  0.00  0.00    -0.276 OA
ATOM     15  N   UNL     1      -9.315  -3.477   3.371  0.00  0.00    -0.318 N 
ATOM     16  C   UNL     1     -10.681  -3.994   3.492  0.00  0.00    +0.128 C 
ATOM     17  H   UNL     1      -9.065  -2.658   3.826  0.00  0.00    +0.148 HD
ENDBRANCH  10  13
ENDBRANCH   4   7
BRANCH   1  18
ATOM     18  C   UNL     1      -0.608  -2.276  -1.610  0.00  0.00    +0.095 C 
BRANCH  18  19
ATOM     19  C   UNL     1       0.729  -1.536  -1.538  0.00  0.00    -0.020 C 
BRANCH  19  20
ATOM     20  C   UNL     1       1.650  -2.055  -2.612  0.00  0.00    -0.052 A 
ATOM     21  C   UNL     1       2.631  -2.980  -2.307  0.00  0.00    +0.009 A 
ATOM     22  C   UNL     1       3.443  -3.427  -3.296  0.00  0.00    +0.045 A 
ATOM     23  S   UNL     1       2.826  -2.533  -4.713  0.00  0.00    -0.105 S 
ATOM     24  C   UNL     1       1.524  -1.627  -3.892  0.00  0.00    +0.047 A 
ENDBRANCH  19  20
BRANCH  19  25
ATOM     25  N   UNL     1       0.503  -0.098  -1.740  0.00  0.00    +0.385 N 
ATOM     26  H   UNL     1      -0.047   0.042  -2.574  0.00  0.00    -0.081 HD
BRANCH  25  28
ATOM     27  C   UNL     1       0.668   0.338   0.664  0.00  0.00    -0.017 C 
ATOM     28  C   UNL     1      -0.213   0.453  -0.582  0.00  0.00    -0.081 C 
ENDBRANCH  25  28
BRANCH  25  29
ATOM     29  C   UNL     1       1.796   0.585  -1.886  0.00  0.00    -0.081 C 
ATOM     30  C   UNL     1       1.560   2.054  -2.241  0.00  0.00    -0.017 C 
ENDBRANCH  25  29
ENDBRANCH  19  25
ENDBRANCH  18  19
ENDBRANCH   1  18
TORSDOF 8
