REMARK  Name = ZINC43743461
REMARK  8 active torsions:
REMARK  status: ('A' for Active; 'I' for Inactive)
REMARK    1  A    between atoms: C_1  and  C_2
REMARK    2  A    between atoms: C_7  and  C_36
REMARK    3  A    between atoms: C_18  and  C_20
REMARK    4  A    between atoms: C_20  and  N_21
REMARK    5  A    between atoms: N_21  and  C_22
REMARK    6  A    between atoms: N_21  and  C_29
REMARK    7  A    between atoms: C_22  and  C_23
REMARK    8  A    between atoms: C_29  and  C_30
REMARK                            x       y       z     vdW  Elec       q    Type
REMARK                         _______ _______ _______ _____ _____    ______ ____
ROOT
ATOM      1  C   UNL     1       3.859   0.958   3.918  0.00  0.00    -0.063 C 
ENDROOT
BRANCH   1  16
ATOM      2  C   UNL     1       0.128   2.774  -0.465  0.00  0.00    +0.012 C 
ATOM      3  C   UNL     1       0.128   1.306  -0.896  0.00  0.00    +0.012 C 
ATOM      4  C   UNL     1       0.942   1.136  -2.188  0.00  0.00    +0.007 C 
ATOM      5  C   UNL     1       1.050  -0.341  -2.561  0.00  0.00    +0.001 C 
ATOM      6  C   UNL     1       1.762  -1.136  -1.459  0.00  0.00    +0.011 C 
ATOM      7  C   UNL     1       0.948  -1.010  -0.177  0.00  0.00    -0.007 C 
ATOM      8  C   UNL     1       0.811   0.452   0.161  0.00  0.00    -0.064 C 
ATOM      9  C   UNL     1       1.244   0.971   1.257  0.00  0.00    -0.019 C 
ATOM     10  C   UNL     1       2.035   0.247   2.306  0.00  0.00    +0.064 C 
ATOM     11  C   UNL     1       2.518  -1.117   1.777  0.00  0.00    +0.185 C 
ATOM     12  C   UNL     1       1.469  -1.828   0.976  0.00  0.00    +0.056 C 
ATOM     13  O   UNL     1       3.666  -0.811   0.983  0.00  0.00    -0.461 OA
ATOM     14  C   UNL     1       4.335   0.206   1.557  0.00  0.00    +0.309 C 
ATOM     15  O   UNL     1       5.505   0.456   1.386  0.00  0.00    -0.251 OA
ATOM     16  C   UNL     1       3.386   1.002   2.464  0.00  0.00    +0.092 C 
ATOM     17  C   UNL     1      -0.462  -1.516  -0.489  0.00  0.00    +0.016 C 
ENDBRANCH   1  16
BRANCH   1  18
ATOM     18  N   UNL     1       5.070   1.776   4.064  0.00  0.00    +0.386 N 
ATOM     19  H   UNL     1       5.768   1.464   3.405  0.00  0.00    -0.081 HD
BRANCH  18  20
ATOM     20  C   UNL     1       4.745   3.184   3.803  0.00  0.00    -0.043 C 
BRANCH  20  21
ATOM     21  C   UNL     1       6.011   4.001   3.804  0.00  0.00    -0.064 A 
ATOM     22  C   UNL     1       6.405   4.666   4.950  0.00  0.00    +0.002 A 
ATOM     23  C   UNL     1       7.566   5.415   4.951  0.00  0.00    +0.000 A 
ATOM     24  C   UNL     1       8.335   5.499   3.805  0.00  0.00    +0.000 A 
ATOM     25  C   UNL     1       7.942   4.834   2.659  0.00  0.00    +0.000 A 
ATOM     26  C   UNL     1       6.783   4.081   2.659  0.00  0.00    +0.002 A 
ENDBRANCH  20  21
ENDBRANCH  18  20
BRANCH  18  27
ATOM     27  C   UNL     1       5.592   1.639   5.430  0.00  0.00    -0.043 C 
BRANCH  27  28
ATOM     28  C   UNL     1       6.052   0.221   5.653  0.00  0.00    -0.064 A 
ATOM     29  C   UNL     1       5.196  -0.701   6.226  0.00  0.00    +0.002 A 
ATOM     30  C   UNL     1       5.618  -2.001   6.430  0.00  0.00    +0.000 A 
ATOM     31  C   UNL     1       6.895  -2.380   6.061  0.00  0.00    +0.000 A 
ATOM     32  C   UNL     1       7.750  -1.458   5.486  0.00  0.00    +0.000 A 
ATOM     33  C   UNL     1       7.327  -0.159   5.278  0.00  0.00    +0.002 A 
ENDBRANCH  27  28
ENDBRANCH  18  27
ENDBRANCH   1  18
TORSDOF 6
