REMARK  Name = ZINC31057676
REMARK  9 active torsions:
REMARK  status: ('A' for Active; 'I' for Inactive)
REMARK    1  A    between atoms: C_1  and  C_2
REMARK    2  A    between atoms: C_2  and  C_4
REMARK    3  A    between atoms: C_2  and  C_15
REMARK    4  A    between atoms: C_4  and  C_5
REMARK    5  A    between atoms: C_15  and  N_16
REMARK    6  A    between atoms: C_17  and  C_19
REMARK    7  A    between atoms: N_24  and  C_26
REMARK    8  A    between atoms: C_26  and  C_27
REMARK    9  A    between atoms: C_29  and  C_32
REMARK                            x       y       z     vdW  Elec       q    Type
REMARK                         _______ _______ _______ _____ _____    ______ ____
ROOT
ATOM      1  N   UNL     1      -3.532   3.347  -2.798  0.00  0.00    -0.315 N 
ATOM      2  C   UNL     1      -4.732   3.908  -3.046  0.00  0.00    +0.214 C 
ATOM      3  O   UNL     1      -5.462   4.211  -2.126  0.00  0.00    -0.276 OA
ATOM      4  H   UNL     1      -2.870   3.071  -3.632  0.00  0.00    +0.149 HD
ENDROOT
BRANCH   2   5
ATOM      5  C   UNL     1      -5.167   4.157  -4.467  0.00  0.00    +0.058 C 
ATOM      6  C   UNL     1      -5.215   2.829  -5.228  0.00  0.00    +0.009 C 
ATOM      7  C   UNL     1      -5.716   3.084  -6.652  0.00  0.00    -0.018 C 
ATOM      8  C   UNL     1      -7.092   3.751  -6.593  0.00  0.00    -0.078 C 
ATOM      9  N   UNL     1      -6.993   5.017  -5.856  0.00  0.00    +0.386 N 
ATOM     10  C   UNL     1      -6.559   4.793  -4.471  0.00  0.00    -0.065 C 
ATOM     11  H   UNL     1      -6.228   5.634  -6.351  0.00  0.00    -0.081 HD
BRANCH   9  12
ATOM     12  C   UNL     1      -8.264   5.751  -5.897  0.00  0.00    +0.022 C 
BRANCH  12  13
ATOM     13  C   UNL     1      -9.315   4.978  -5.143  0.00  0.00    +0.211 A 
ATOM     14  N   UNL     1      -9.590   5.083  -3.867  0.00  0.00    -0.192 NA
ATOM     15  C   UNL     1     -10.596   4.206  -3.639  0.00  0.00    +0.209 A 
ATOM     16  N   UNL     1     -10.864   3.621  -4.780  0.00  0.00    -0.056 NA
ATOM     17  O   UNL     1     -10.138   4.054  -5.649  0.00  0.00    -0.340 OA
BRANCH  15  18
ATOM     18  C   UNL     1     -11.263   3.952  -2.345  0.00  0.00    +0.060 A 
ATOM     19  C   UNL     1     -12.277   3.079  -2.053  0.00  0.00    +0.019 A 
ATOM     20  C   UNL     1     -12.744   3.015  -0.760  0.00  0.00    +0.008 A 
ATOM     21  C   UNL     1     -12.187   3.816   0.186  0.00  0.00    +0.046 A 
ATOM     22  S   UNL     1     -10.951   4.698  -0.753  0.00  0.00    -0.093 S 
ENDBRANCH  15  18
ENDBRANCH  12  13
ENDBRANCH   9  12
ENDBRANCH   2   5
BRANCH   1  23
ATOM     23  C   UNL     1      -3.109   3.104  -1.416  0.00  0.00    +0.107 C 
BRANCH  23  25
ATOM     24  C   UNL     1      -0.700   3.455  -1.980  0.00  0.00    +0.009 C 
ATOM     25  C   UNL     1      -1.719   2.464  -1.413  0.00  0.00    +0.007 C 
BRANCH  25  26
ATOM     26  C   UNL     1      -1.329   2.097   0.020  0.00  0.00    +0.040 C 
BRANCH  26  27
ATOM     27  C   UNL     1      -0.016   1.357   0.009  0.00  0.00    -0.039 A 
ATOM     28  C   UNL     1       0.002  -0.004   0.002  0.00  0.00    +0.004 A 
ATOM     29  C   UNL     1       1.206  -0.705  -0.013  0.00  0.00    +0.001 A 
ATOM     30  C   UNL     1       2.399  -0.049  -0.021  0.00  0.00    +0.008 A 
ATOM     31  C   UNL     1       2.420   1.356  -0.014  0.00  0.00    -0.018 A 
ATOM     32  C   UNL     1       1.195   2.069   0.002  0.00  0.00    -0.015 A 
ATOM     33  C   UNL     1       1.216   3.474   0.009  0.00  0.00    +0.009 A 
ATOM     34  C   UNL     1       2.409   4.130   0.000  0.00  0.00    +0.001 A 
ATOM     35  C   UNL     1       3.613   3.428  -0.015  0.00  0.00    +0.001 A 
ATOM     36  C   UNL     1       3.632   2.068  -0.022  0.00  0.00    +0.008 A 
ENDBRANCH  26  27
ENDBRANCH  25  26
ENDBRANCH  23  25
ENDBRANCH   1  23
TORSDOF 8
