REMARK  Name = ZINC35986402
REMARK  13 active torsions:
REMARK  status: ('A' for Active; 'I' for Inactive)
REMARK    1  A    between atoms: C_1  and  C_2
REMARK    2  A    between atoms: C_2  and  C_3
REMARK    3  A    between atoms: C_2  and  C_4
REMARK    4  A    between atoms: C_4  and  C_5
REMARK    5  A    between atoms: C_14  and  C_18
REMARK    6  A    between atoms: N_20  and  C_21
REMARK    7  A    between atoms: C_21  and  C_22
REMARK    8  A    between atoms: C_22  and  N_23
REMARK    9  A    between atoms: N_23  and  C_24
REMARK   10  A    between atoms: N_23  and  C_25
REMARK   11  A    between atoms: C_26  and  C_28
REMARK   12  A    between atoms: C_31  and  O_34
REMARK   13  A    between atoms: O_34  and  C_35
REMARK                            x       y       z     vdW  Elec       q    Type
REMARK                         _______ _______ _______ _____ _____    ______ ____
ROOT
ATOM      1  C   UNL     1      -0.974  -5.759  -1.386  0.00  0.00    +0.216 C 
ATOM      2  O   UNL     1      -0.489  -6.707  -0.806  0.00  0.00    -0.276 OA
ATOM      3  N   UNL     1      -2.274  -5.450  -1.206  0.00  0.00    -0.301 N 
ATOM      4  C   UNL     1      -2.877  -4.308  -1.907  0.00  0.00    +0.112 C 
ATOM      5  C   UNL     1      -3.539  -3.390  -0.875  0.00  0.00    +0.074 C 
ATOM      6  C   UNL     1      -4.519  -4.203  -0.028  0.00  0.00    +0.142 C 
ATOM      7  C   UNL     1      -3.775  -5.314   0.714  0.00  0.00    +0.074 C 
ATOM      8  C   UNL     1      -3.116  -6.253  -0.308  0.00  0.00    +0.112 C 
ATOM      9  N   UNL     1      -5.551  -4.792  -0.895  0.00  0.00    -0.255 N 
ATOM     10  C   UNL     1      -6.840  -4.223  -0.444  0.00  0.00    +0.190 C 
ATOM     11  C   UNL     1      -6.404  -2.934   0.297  0.00  0.00    +0.194 C 
ATOM     12  O   UNL     1      -5.164  -3.340   0.921  0.00  0.00    -0.353 OA
ATOM     13  C   UNL     1      -5.360  -5.672  -1.898  0.00  0.00    +0.249 C 
ATOM     14  O   UNL     1      -4.234  -6.025  -2.192  0.00  0.00    -0.270 OA
ENDROOT
BRANCH  13  15
ATOM     15  C   UNL     1      -6.518  -6.208  -2.640  0.00  0.00    +0.037 A 
ATOM     16  C   UNL     1      -7.783  -6.228  -2.046  0.00  0.00    +0.016 A 
ATOM     17  C   UNL     1      -8.861  -6.728  -2.741  0.00  0.00    +0.046 A 
ATOM     18  C   UNL     1      -8.693  -7.212  -4.033  0.00  0.00    +0.120 A 
ATOM     19  C   UNL     1      -7.436  -7.194  -4.628  0.00  0.00    +0.046 A 
ATOM     20  C   UNL     1      -6.354  -6.690  -3.941  0.00  0.00    +0.016 A 
BRANCH  18  21
ATOM     21  O   UNL     1      -9.757  -7.705  -4.715  0.00  0.00    -0.495 OA
ATOM     22  C   UNL     1      -9.514  -8.187  -6.038  0.00  0.00    +0.277 C 
ENDBRANCH  18  21
ENDBRANCH  13  15
BRANCH  10  23
ATOM     23  C   UNL     1      -7.721  -3.895  -1.622  0.00  0.00    +0.236 C 
ATOM     24  O   UNL     1      -7.223  -3.566  -2.678  0.00  0.00    -0.274 OA
ATOM     25  N   UNL     1      -9.061  -3.967  -1.502  0.00  0.00    -0.315 N 
ATOM     26  H   UNL     1      -9.459  -4.230  -0.658  0.00  0.00    +0.149 HD
BRANCH  25  27
ATOM     27  C   UNL     1      -9.917  -3.648  -2.648  0.00  0.00    +0.085 C 
BRANCH  27  28
ATOM     28  C   UNL     1     -11.385  -3.807  -2.247  0.00  0.00    -0.061 C 
BRANCH  28  29
ATOM     29  N   UNL     1     -12.243  -3.488  -3.396  0.00  0.00    +0.377 N 
ATOM     30  C   UNL     1     -13.646  -3.755  -3.049  0.00  0.00    -0.097 C 
ATOM     31  C   UNL     1     -12.087  -2.069  -3.744  0.00  0.00    -0.097 C 
ATOM     32  H   UNL     1     -11.977  -4.059  -4.184  0.00  0.00    -0.083 HD
ENDBRANCH  28  29
ENDBRANCH  27  28
ENDBRANCH  25  27
ENDBRANCH  10  23
BRANCH   1  33
ATOM     33  C   UNL     1      -0.123  -4.926  -2.310  0.00  0.00    +0.099 C 
BRANCH  33  35
ATOM     34  C   UNL     1       2.131  -4.718  -3.366  0.00  0.00    +0.008 C 
ATOM     35  C   UNL     1       1.300  -5.485  -2.336  0.00  0.00    -0.008 C 
ATOM     36  C   UNL     1       1.934  -5.330  -0.952  0.00  0.00    +0.008 C 
ENDBRANCH  33  35
ENDBRANCH   1  33
TORSDOF 8
