REMARK  Name = ZINC39929077
REMARK  14 active torsions:
REMARK  status: ('A' for Active; 'I' for Inactive)
REMARK    1  A    between atoms: C_1  and  C_2
REMARK    2  A    between atoms: C_2  and  C_3
REMARK    3  A    between atoms: C_2  and  N_4
REMARK    4  A    between atoms: N_4  and  C_5
REMARK    5  A    between atoms: C_5  and  C_6
REMARK    6  A    between atoms: C_11  and  O_18
REMARK    7  A    between atoms: O_18  and  C_19
REMARK    8  A    between atoms: C_20  and  C_22
REMARK    9  A    between atoms: C_24  and  O_32
REMARK   10  A    between atoms: C_25  and  O_30
REMARK   11  A    between atoms: C_26  and  O_28
REMARK   12  A    between atoms: O_28  and  C_29
REMARK   13  A    between atoms: O_30  and  C_31
REMARK   14  A    between atoms: O_32  and  C_33
REMARK                            x       y       z     vdW  Elec       q    Type
REMARK                         _______ _______ _______ _____ _____    ______ ____
ROOT
ATOM      1  N   UNL     1      -1.921   0.233   3.356  0.00  0.00    -0.294 N 
ATOM      2  C   UNL     1      -2.060   1.571   3.423  0.00  0.00    +0.247 C 
ATOM      3  O   UNL     1      -3.075   2.055   3.885  0.00  0.00    -0.270 OA
ENDROOT
BRANCH   2   4
ATOM      4  C   UNL     1      -0.979   2.451   2.935  0.00  0.00    +0.044 A 
ATOM      5  C   UNL     1       0.324   1.962   2.823  0.00  0.00    +0.062 A 
ATOM      6  C   UNL     1       1.334   2.788   2.366  0.00  0.00    +0.166 A 
ATOM      7  C   UNL     1       1.053   4.106   2.017  0.00  0.00    +0.204 A 
ATOM      8  C   UNL     1      -0.245   4.596   2.128  0.00  0.00    +0.166 A 
ATOM      9  C   UNL     1      -1.260   3.773   2.579  0.00  0.00    +0.062 A 
BRANCH   8  10
ATOM     10  O   UNL     1      -0.517   5.884   1.787  0.00  0.00    -0.491 OA
ATOM     11  C   UNL     1      -1.870   6.321   1.926  0.00  0.00    +0.277 C 
ENDBRANCH   8  10
BRANCH   7  12
ATOM     12  O   UNL     1       2.048   4.916   1.568  0.00  0.00    -0.488 OA
ATOM     13  C   UNL     1       2.282   4.935   0.159  0.00  0.00    +0.277 C 
ENDBRANCH   7  12
BRANCH   6  14
ATOM     14  O   UNL     1       2.604   2.312   2.256  0.00  0.00    -0.491 OA
ATOM     15  C   UNL     1       2.935   1.617   1.052  0.00  0.00    +0.277 C 
ENDBRANCH   6  14
ENDBRANCH   2   4
BRANCH   1  17
ATOM     16  C   UNL     1      -0.324   0.595   1.539  0.00  0.00    +0.028 C 
ATOM     17  C   UNL     1      -0.774  -0.350   2.655  0.00  0.00    +0.070 C 
ATOM     18  C   UNL     1       0.376  -0.558   3.643  0.00  0.00    +0.028 C 
ENDBRANCH   1  17
BRANCH   1  19
ATOM     19  C   UNL     1      -2.916  -0.640   3.984  0.00  0.00    +0.125 C 
BRANCH  19  20
ATOM     20  C   UNL     1      -2.504  -0.926   5.430  0.00  0.00    +0.116 C 
ATOM     21  C   UNL     1      -3.428  -1.997   5.974  0.00  0.00    -0.003 C 
ATOM     22  C   UNL     1      -4.150  -1.692   7.090  0.00  0.00    -0.004 A 
ATOM     23  C   UNL     1      -5.066  -2.668   7.680  0.00  0.00    +0.055 A 
ATOM     24  C   UNL     1      -5.767  -2.319   8.795  0.00  0.00    +0.121 A 
ATOM     25  C   UNL     1      -5.623  -1.055   9.377  0.00  0.00    +0.047 A 
ATOM     26  C   UNL     1      -4.789  -0.108   8.875  0.00  0.00    +0.027 A 
ATOM     27  C   UNL     1      -4.021  -0.369   7.725  0.00  0.00    +0.041 A 
ATOM     28  N   UNL     1      -3.205   0.570   7.244  0.00  0.00    -0.284 N 
ATOM     29  C   UNL     1      -2.457   0.393   6.168  0.00  0.00    +0.226 C 
ATOM     30  O   UNL     1      -1.733   1.288   5.776  0.00  0.00    -0.275 OA
ATOM     31  H   UNL     1      -3.160   1.423   7.703  0.00  0.00    +0.155 HD
BRANCH  24  32
ATOM     32  O   UNL     1      -6.622  -3.217   9.352  0.00  0.00    -0.495 OA
ATOM     33  C   UNL     1      -7.331  -2.799  10.520  0.00  0.00    +0.277 C 
ENDBRANCH  24  32
ENDBRANCH  19  20
ENDBRANCH   1  19
TORSDOF 8
