REMARK  Name = ZINC03619282
REMARK  11 active torsions:
REMARK  status: ('A' for Active; 'I' for Inactive)
REMARK    1  A    between atoms: C_1  and  C_2
REMARK    2  A    between atoms: C_3  and  C_12
REMARK    3  A    between atoms: C_12  and  C_13
REMARK    4  A    between atoms: C_13  and  N_14
REMARK    5  A    between atoms: C_15  and  C_17
REMARK    6  A    between atoms: C_17  and  N_28
REMARK    7  A    between atoms: C_18  and  C_19
REMARK    8  A    between atoms: C_23  and  N_25
REMARK    9  A    between atoms: C_29  and  C_31
REMARK   10  A    between atoms: C_34  and  O_37
REMARK   11  A    between atoms: O_37  and  C_38
REMARK                            x       y       z     vdW  Elec       q    Type
REMARK                         _______ _______ _______ _____ _____    ______ ____
ROOT
ATOM      1  C   UNL     1      -1.248   5.980  -0.059  0.00  0.00    +0.097 C 
ATOM      2  C   UNL     1      -0.078   5.331   0.135  0.00  0.00    +0.036 C 
ENDROOT
BRANCH   2   3
ATOM      3  C   UNL     1      -0.080   3.915   0.536  0.00  0.00    -0.021 A 
ATOM      4  C   UNL     1      -1.220   3.351   1.118  0.00  0.00    +0.008 A 
ATOM      5  C   UNL     1      -1.215   2.022   1.485  0.00  0.00    +0.003 A 
ATOM      6  C   UNL     1      -0.083   1.250   1.289  0.00  0.00    +0.033 A 
ATOM      7  C   UNL     1       1.048   1.801   0.714  0.00  0.00    +0.127 A 
ATOM      8  C   UNL     1       1.058   3.127   0.337  0.00  0.00    +0.040 A 
BRANCH   7   9
ATOM      9  N   UNL     1       2.252   0.965   0.504  0.00  0.00    +0.056 N 
ATOM     10  O   UNL     1       2.244  -0.207   0.837  0.00  0.00    -0.126 OA
ATOM     11  O   UNL     1       3.248   1.448  -0.002  0.00  0.00    -0.126 OA
ENDBRANCH   7   9
ENDBRANCH   2   3
BRANCH   1  13
ATOM     12  N   UNL     1      -0.095   8.120  -0.284  0.00  0.00    -0.310 N 
ATOM     13  C   UNL     1      -1.255   7.434  -0.277  0.00  0.00    +0.258 C 
ATOM     14  O   UNL     1      -2.308   8.019  -0.452  0.00  0.00    -0.269 OA
ATOM     15  H   UNL     1       0.745   7.654  -0.145  0.00  0.00    +0.149 HD
BRANCH  12  16
ATOM     16  C   UNL     1      -0.102   9.569  -0.502  0.00  0.00    +0.109 C 
BRANCH  16  17
ATOM     17  C   UNL     1       1.334  10.097  -0.462  0.00  0.00    +0.056 C 
BRANCH  17  20
ATOM     18  C   UNL     1       1.544  11.535  -3.205  0.00  0.00    +0.063 C 
ATOM     19  C   UNL     1       1.417  12.218  -1.868  0.00  0.00    +0.017 A 
ATOM     20  C   UNL     1       1.327  11.587  -0.686  0.00  0.00    -0.018 A 
ATOM     21  C   UNL     1       1.227  12.623   0.345  0.00  0.00    +0.003 A 
ATOM     22  C   UNL     1       1.116  12.599   1.737  0.00  0.00    +0.010 A 
ATOM     23  C   UNL     1       1.042  13.773   2.431  0.00  0.00    +0.001 A 
ATOM     24  C   UNL     1       1.076  14.991   1.764  0.00  0.00    +0.002 A 
ATOM     25  C   UNL     1       1.185  15.037   0.392  0.00  0.00    +0.026 A 
ATOM     26  C   UNL     1       1.262  13.854  -0.336  0.00  0.00    +0.047 A 
ATOM     27  N   UNL     1       1.375  13.572  -1.679  0.00  0.00    -0.358 N 
ATOM     28  H   UNL     1       1.421  14.235  -2.385  0.00  0.00    +0.166 HD
ENDBRANCH  17  20
ENDBRANCH  16  17
ENDBRANCH  12  16
ENDBRANCH   1  13
BRANCH   1  29
ATOM     29  N   UNL     1      -2.452   5.269  -0.051  0.00  0.00    -0.277 N 
ATOM     30  C   UNL     1      -3.443   5.630   0.788  0.00  0.00    +0.248 C 
ATOM     31  O   UNL     1      -3.258   6.514   1.602  0.00  0.00    -0.270 OA
ATOM     32  H   UNL     1      -2.574   4.516  -0.651  0.00  0.00    +0.155 HD
BRANCH  30  33
ATOM     33  C   UNL     1      -4.751   4.950   0.720  0.00  0.00    +0.037 A 
ATOM     34  C   UNL     1      -4.933   3.865  -0.141  0.00  0.00    +0.016 A 
ATOM     35  C   UNL     1      -6.154   3.231  -0.198  0.00  0.00    +0.046 A 
ATOM     36  C   UNL     1      -7.208   3.676   0.592  0.00  0.00    +0.120 A 
ATOM     37  C   UNL     1      -7.032   4.758   1.447  0.00  0.00    +0.046 A 
ATOM     38  C   UNL     1      -5.813   5.394   1.513  0.00  0.00    +0.016 A 
BRANCH  36  39
ATOM     39  O   UNL     1      -8.411   3.051   0.530  0.00  0.00    -0.495 OA
ATOM     40  C   UNL     1      -8.522   1.946  -0.370  0.00  0.00    +0.277 C 
ENDBRANCH  36  39
ENDBRANCH  30  33
ENDBRANCH   1  29
TORSDOF 9
