REMARK  Name = ZINC30750191
REMARK  8 active torsions:
REMARK  status: ('A' for Active; 'I' for Inactive)
REMARK    1  A    between atoms: C_5  and  C_7
REMARK    2  A    between atoms: C_7  and  O_8
REMARK    3  A    between atoms: O_8  and  C_9
REMARK    4  A    between atoms: C_13  and  C_15
REMARK    5  A    between atoms: C_17  and  C_21
REMARK    6  A    between atoms: N_23  and  N_24
REMARK    7  A    between atoms: C_25  and  C_26
REMARK    8  A    between atoms: C_29  and  O_32
REMARK                            x       y       z     vdW  Elec       q    Type
REMARK                         _______ _______ _______ _____ _____    ______ ____
ROOT
ATOM      1  C   UNL     1      -2.769   1.054  -1.804  0.00  0.00    +0.093 A 
ATOM      2  C   UNL     1      -3.926   1.561  -1.185  0.00  0.00    +0.062 A 
ATOM      3  C   UNL     1      -4.817   0.505  -1.155  0.00  0.00    +0.122 A 
ATOM      4  N   UNL     1      -4.180  -0.555  -1.738  0.00  0.00    -0.272 N 
ATOM      5  H   UNL     1      -4.693  -1.524  -1.827  0.00  0.00    +0.189 HD
ATOM      6  N   UNL     1      -3.001  -0.205  -2.107  0.00  0.00    -0.173 NA
ENDROOT
BRANCH   1  11
ATOM      7  C   UNL     1       0.719   1.882  -2.947  0.00  0.00    +0.122 A 
ATOM      8  C   UNL     1       0.816   3.216  -2.574  0.00  0.00    +0.046 A 
ATOM      9  C   UNL     1      -0.247   3.841  -1.950  0.00  0.00    +0.004 A 
ATOM     10  C   UNL     1      -1.411   3.143  -1.694  0.00  0.00    +0.010 A 
ATOM     11  C   UNL     1      -1.517   1.806  -2.071  0.00  0.00    +0.006 A 
ATOM     12  C   UNL     1      -0.444   1.175  -2.695  0.00  0.00    +0.055 A 
BRANCH   7  13
ATOM     13  O   UNL     1       1.767   1.271  -3.561  0.00  0.00    -0.487 OA
BRANCH  13  14
ATOM     14  C   UNL     1       2.936   2.061  -3.789  0.00  0.00    +0.266 C 
BRANCH  14  19
ATOM     15  C   UNL     1       4.681  -0.872  -5.403  0.00  0.00    +0.000 A 
ATOM     16  C   UNL     1       5.907  -0.320  -5.728  0.00  0.00    +0.001 A 
ATOM     17  C   UNL     1       6.171   1.003  -5.426  0.00  0.00    +0.020 A 
ATOM     18  C   UNL     1       5.209   1.774  -4.798  0.00  0.00    +0.047 A 
ATOM     19  C   UNL     1       3.983   1.222  -4.473  0.00  0.00    +0.008 A 
ATOM     20  C   UNL     1       3.722  -0.103  -4.771  0.00  0.00    +0.008 A 
ATOM     21 CL   UNL     1       5.540   3.436  -4.418  0.00  0.00    -0.083 Cl
ENDBRANCH  14  19
ENDBRANCH  13  14
ENDBRANCH   7  13
ENDBRANCH   1  11
BRANCH   3  22
ATOM     22  C   UNL     1      -6.182   0.518  -0.606  0.00  0.00    +0.281 C 
ATOM     23  O   UNL     1      -6.629   1.536  -0.112  0.00  0.00    -0.267 OA
ATOM     24  N   UNL     1      -6.937  -0.598  -0.649  0.00  0.00    -0.202 N 
ATOM     25  H   UNL     1      -6.532  -1.518  -1.096  0.00  0.00    +0.178 HD
BRANCH  24  26
ATOM     26  N   UNL     1      -8.236  -0.585  -0.126  0.00  0.00    -0.187 NA
ATOM     27  C   UNL     1      -8.920  -1.687  -0.059  0.00  0.00    +0.138 C 
BRANCH  27  28
ATOM     28  C   UNL     1      -8.226  -2.987  -0.070  0.00  0.00    -0.005 A 
ATOM     29  C   UNL     1      -8.948  -4.165  -0.277  0.00  0.00    +0.013 A 
ATOM     30  C   UNL     1      -8.294  -5.378  -0.291  0.00  0.00    +0.046 A 
ATOM     31  C   UNL     1      -6.920  -5.432  -0.089  0.00  0.00    +0.117 A 
ATOM     32  C   UNL     1      -6.199  -4.263   0.122  0.00  0.00    +0.046 A 
ATOM     33  C   UNL     1      -6.844  -3.046   0.132  0.00  0.00    +0.013 A 
BRANCH  31  34
ATOM     34  O   UNL     1      -6.281  -6.630  -0.098  0.00  0.00    -0.507 OA
ATOM     35  H   UNL     1      -5.193  -6.674   0.061  0.00  0.00    +0.292 HD
ENDBRANCH  31  34
ENDBRANCH  27  28
ENDBRANCH  24  26
ENDBRANCH   3  22
TORSDOF 8
