REMARK  Name = ZINC29975998
REMARK  12 active torsions:
REMARK  status: ('A' for Active; 'I' for Inactive)
REMARK    1  A    between atoms: C_1  and  C_2
REMARK    2  A    between atoms: C_4  and  N_26
REMARK    3  A    between atoms: C_6  and  C_7
REMARK    4  A    between atoms: C_7  and  O_9
REMARK    5  A    between atoms: O_9  and  C_10
REMARK    6  A    between atoms: C_10  and  C_11
REMARK    7  A    between atoms: C_13  and  O_14
REMARK    8  A    between atoms: C_23  and  C_25
REMARK    9  A    between atoms: C_27  and  C_29
REMARK   10  A    between atoms: C_29  and  C_30
REMARK   11  A    between atoms: C_29  and  C_31
REMARK   12  A    between atoms: C_29  and  C_32
REMARK                            x       y       z     vdW  Elec       q    Type
REMARK                         _______ _______ _______ _____ _____    ______ ____
ROOT
ATOM      1  C   UNL     1      -0.370  -7.024   0.344  0.00  0.00    +0.269 C 
ENDROOT
BRANCH   1   2
ATOM      2  C   UNL     1      -0.286  -6.287  -0.968  0.00  0.00    +0.007 A 
ATOM      3  C   UNL     1      -0.279  -6.960  -2.147  0.00  0.00    +0.095 A 
ATOM      4  C   UNL     1      -0.200  -6.248  -3.361  0.00  0.00    +0.285 A 
ATOM      5  O   UNL     1      -0.132  -4.908  -3.389  0.00  0.00    -0.425 OA
ATOM      6  C   UNL     1      -0.136  -4.178  -2.253  0.00  0.00    +0.141 A 
ATOM      7  C   UNL     1      -0.211  -4.825  -1.005  0.00  0.00    +0.024 A 
ATOM      8  C   UNL     1      -0.215  -4.073   0.175  0.00  0.00    +0.014 A 
ATOM      9  C   UNL     1      -0.140  -2.712   0.112  0.00  0.00    +0.024 A 
ATOM     10  C   UNL     1      -0.071  -2.064  -1.121  0.00  0.00    +0.037 A 
ATOM     11  C   UNL     1      -0.065  -2.794  -2.300  0.00  0.00    +0.070 A 
ATOM     12  N   UNL     1       0.000  -0.672  -1.169  0.00  0.00    -0.286 N 
ATOM     13  C   UNL     1      -0.605  -0.000  -2.168  0.00  0.00    +0.214 C 
ATOM     14  O   UNL     1      -1.141  -0.609  -3.070  0.00  0.00    -0.276 OA
ATOM     15  C   UNL     1      -0.617   1.507  -2.165  0.00  0.00    +0.109 C 
ATOM     16  H   UNL     1       0.550  -0.122  -0.391  0.00  0.00    +0.155 HD
BRANCH   4  17
ATOM     17  O   UNL     1      -0.194  -6.865  -4.412  0.00  0.00    -0.480 OA
ATOM     18  H   UNL     1      -0.133  -6.323  -5.367  0.00  0.00    +0.295 HD
ENDBRANCH   4  17
ENDBRANCH   1   2
BRANCH   1  19
ATOM     19  O   UNL     1      -0.432  -8.430   0.098  0.00  0.00    -0.456 OA
BRANCH  19  20
ATOM     20  C   UNL     1      -0.511  -9.238   1.176  0.00  0.00    +0.346 C 
ATOM     21  O   UNL     1      -0.526  -8.760   2.295  0.00  0.00    -0.244 OA
BRANCH  20  27
ATOM     22  C   UNL     1      -0.695 -11.302   3.439  0.00  0.00    +0.045 C 
ATOM     23  C   UNL     1      -0.660 -11.637   1.970  0.00  0.00    -0.028 A 
ATOM     24  C   UNL     1      -0.710 -12.933   1.534  0.00  0.00    +0.035 A 
ATOM     25  C   UNL     1      -0.675 -13.178   0.178  0.00  0.00    +0.073 A 
ATOM     26  S   UNL     1      -0.578 -11.589  -0.508  0.00  0.00    -0.067 S 
ATOM     27  C   UNL     1      -0.576 -10.643   1.004  0.00  0.00    +0.101 A 
BRANCH  25  28
ATOM     28  N   UNL     1      -0.714 -14.401  -0.480  0.00  0.00    -0.280 N 
ATOM     29  C   UNL     1      -0.668 -14.444  -1.826  0.00  0.00    +0.223 C 
ATOM     30  O   UNL     1      -0.593 -13.415  -2.464  0.00  0.00    -0.275 OA
ATOM     31  H   UNL     1      -0.782 -15.335   0.098  0.00  0.00    +0.155 HD
BRANCH  29  32
ATOM     32  C   UNL     1      -0.711 -15.771  -2.539  0.00  0.00    +0.039 C 
ATOM     33  C   UNL     1      -0.645 -15.540  -4.051  0.00  0.00    +0.020 C 
ATOM     34  C   UNL     1       0.482 -16.624  -2.102  0.00  0.00    +0.020 C 
ATOM     35  C   UNL     1      -2.011 -16.497  -2.190  0.00  0.00    +0.020 C 
ENDBRANCH  29  32
ENDBRANCH  25  28
ENDBRANCH  20  27
ENDBRANCH  19  20
ENDBRANCH   1  19
TORSDOF 7
