REMARK  Name = ZINC14750970
REMARK  8 active torsions:
REMARK  status: ('A' for Active; 'I' for Inactive)
REMARK    1  A    between atoms: C_1  and  C_2
REMARK    2  A    between atoms: N_5  and  C_11
REMARK    3  A    between atoms: C_7  and  C_10
REMARK    4  A    between atoms: N_14  and  C_17
REMARK    5  A    between atoms: C_23  and  C_33
REMARK    6  A    between atoms: N_25  and  C_26
REMARK    7  A    between atoms: C_26  and  C_27
REMARK    8  A    between atoms: N_35  and  C_36
REMARK                            x       y       z     vdW  Elec       q    Type
REMARK                         _______ _______ _______ _____ _____    ______ ____
ROOT
ATOM      1  C   UNL     1      -6.023  -4.871  -1.442  0.00  0.00    -0.064 C 
ATOM      2  C   UNL     1      -5.873  -6.393  -1.515  0.00  0.00    -0.009 C 
ATOM      3  C   UNL     1      -7.254  -7.053  -1.418  0.00  0.00    +0.054 C 
ATOM      4  C   UNL     1      -8.170  -6.385  -2.411  0.00  0.00    +0.043 A 
ATOM      5  C   UNL     1      -7.910  -5.188  -2.993  0.00  0.00    +0.004 A 
ATOM      6  C   UNL     1      -8.997  -4.929  -3.844  0.00  0.00    +0.150 A 
ATOM      7  N   UNL     1      -9.823  -5.954  -3.727  0.00  0.00    -0.166 NA
ATOM      8  N   UNL     1      -9.350  -6.812  -2.890  0.00  0.00    -0.267 N 
ATOM      9  C   UNL     1      -6.684  -4.359  -2.729  0.00  0.00    +0.024 C 
ENDROOT
BRANCH   1  13
ATOM     10  C   UNL     1      -2.771  -2.548   0.036  0.00  0.00    +0.053 C 
ATOM     11  C   UNL     1      -3.444  -2.150  -1.281  0.00  0.00    +0.000 C 
ATOM     12  C   UNL     1      -4.830  -2.794  -1.354  0.00  0.00    -0.077 C 
ATOM     13  N   UNL     1      -4.698  -4.255  -1.293  0.00  0.00    +0.382 N 
ATOM     14  C   UNL     1      -4.119  -4.649  -0.003  0.00  0.00    -0.077 C 
ATOM     15  C   UNL     1      -2.706  -4.075   0.123  0.00  0.00    +0.000 C 
ATOM     16  H   UNL     1      -4.097  -4.569  -2.040  0.00  0.00    -0.081 HD
BRANCH  10  20
ATOM     17  C   UNL     1      -0.018   1.532  -0.018  0.00  0.00    +0.039 C 
ATOM     18  C   UNL     1       0.001   0.002  -0.014  0.00  0.00    +0.130 C 
ATOM     19  C   UNL     1      -1.435  -0.527  -0.003  0.00  0.00    +0.116 C 
ATOM     20  N   UNL     1      -1.411  -1.995   0.079  0.00  0.00    -0.295 NA
ATOM     21  C   UNL     1      -0.700  -2.438   1.288  0.00  0.00    +0.116 C 
ATOM     22  C   UNL     1       0.729  -1.889   1.263  0.00  0.00    +0.130 C 
ATOM     23  O   UNL     1       0.686  -0.464   1.151  0.00  0.00    -0.371 OA
ATOM     24  C   UNL     1       1.449  -2.280   2.555  0.00  0.00    +0.039 C 
ENDBRANCH  10  20
ENDBRANCH   1  13
BRANCH   6  25
ATOM     25  C   UNL     1      -9.181  -3.741  -4.703  0.00  0.00    +0.264 C 
ATOM     26  O   UNL     1      -8.339  -2.865  -4.717  0.00  0.00    -0.268 OA
ATOM     27  N   UNL     1     -10.282  -3.630  -5.471  0.00  0.00    -0.313 N 
ATOM     28  C   UNL     1     -10.465  -2.452  -6.323  0.00  0.00    +0.128 C 
ATOM     29  H   UNL     1     -10.954  -4.329  -5.460  0.00  0.00    +0.149 HD
ENDBRANCH   6  25
BRANCH   8  30
ATOM     30  C   UNL     1     -10.003  -8.069  -2.516  0.00  0.00    +0.147 C 
BRANCH  30  31
ATOM     31  C   UNL     1     -10.912  -7.831  -1.308  0.00  0.00    +0.010 C 
ATOM     32  C   UNL     1     -10.060  -7.441  -0.098  0.00  0.00    +0.005 C 
ATOM     33  C   UNL     1     -10.969  -7.204   1.110  0.00  0.00    +0.000 C 
ATOM     34  C   UNL     1     -11.746  -8.484   1.423  0.00  0.00    +0.000 C 
ATOM     35  C   UNL     1     -12.597  -8.874   0.213  0.00  0.00    +0.000 C 
ATOM     36  C   UNL     1     -11.688  -9.112  -0.994  0.00  0.00    +0.005 C 
ENDBRANCH  30  31
ENDBRANCH   8  30
TORSDOF 5
