REMARK  Name = ZINC59384188
REMARK  6 active torsions:
REMARK  status: ('A' for Active; 'I' for Inactive)
REMARK    1  A    between atoms: C_1  and  C_2
REMARK    2  A    between atoms: C_3  and  C_19
REMARK    3  A    between atoms: C_4  and  C_10
REMARK    4  A    between atoms: C_14  and  N_16
REMARK    5  A    between atoms: N_21  and  N_22
REMARK    6  A    between atoms: C_23  and  C_24
REMARK                            x       y       z     vdW  Elec       q    Type
REMARK                         _______ _______ _______ _____ _____    ______ ____
ROOT
ATOM      1  C   UNL     1       0.658   1.367   0.084  0.00  0.00    +0.061 C 
ATOM      2  C   UNL     1       0.360  -0.109   0.047  0.00  0.00    +0.017 C 
ATOM      3  C   UNL     1      -0.922  -0.526  -0.023  0.00  0.00    +0.057 C 
ATOM      4  C   UNL     1      -1.177  -2.019  -0.058  0.00  0.00    +0.139 C 
ATOM      5  N   UNL     1       0.003  -2.899  -0.013  0.00  0.00    -0.315 N 
ATOM      6  C   UNL     1       1.224  -2.332   0.055  0.00  0.00    +0.135 C 
ATOM      7  S   UNL     1       2.604  -3.343   0.107  0.00  0.00    -0.019 S 
ATOM      8  N   UNL     1       1.392  -1.004   0.078  0.00  0.00    -0.300 N 
ATOM      9  H   UNL     1      -0.096  -3.864  -0.033  0.00  0.00    +0.149 HD
ATOM     10  H   UNL     1       2.297  -0.658   0.124  0.00  0.00    +0.154 HD
ENDROOT
BRANCH   4  11
ATOM     11  C   UNL     1      -1.940  -2.331  -1.320  0.00  0.00    -0.020 A 
ATOM     12  C   UNL     1      -1.293  -2.314  -2.541  0.00  0.00    +0.006 A 
ATOM     13  C   UNL     1      -1.993  -2.599  -3.699  0.00  0.00    +0.003 A 
ATOM     14  C   UNL     1      -3.340  -2.902  -3.635  0.00  0.00    +0.033 A 
ATOM     15  C   UNL     1      -3.987  -2.920  -2.413  0.00  0.00    +0.127 A 
ATOM     16  C   UNL     1      -3.286  -2.639  -1.255  0.00  0.00    +0.038 A 
BRANCH  15  17
ATOM     17  N   UNL     1      -5.430  -3.244  -2.345  0.00  0.00    +0.056 N 
ATOM     18  O   UNL     1      -6.042  -3.492  -3.357  0.00  0.00    -0.126 OA
ATOM     19  O   UNL     1      -5.996  -3.259  -1.277  0.00  0.00    -0.126 OA
ENDBRANCH  15  17
ENDBRANCH   4  11
BRANCH   3  20
ATOM     20  C   UNL     1      -1.992   0.400  -0.061  0.00  0.00    +0.263 C 
ATOM     21  O   UNL     1      -2.657   0.604   0.939  0.00  0.00    -0.269 OA
ATOM     22  N   UNL     1      -2.275   1.057  -1.204  0.00  0.00    -0.203 N 
ATOM     23  H   UNL     1      -1.795   0.841  -2.018  0.00  0.00    +0.178 HD
BRANCH  22  24
ATOM     24  N   UNL     1      -3.263   2.050  -1.215  0.00  0.00    -0.187 NA
ATOM     25  C   UNL     1      -3.535   2.682  -2.315  0.00  0.00    +0.138 C 
BRANCH  25  26
ATOM     26  C   UNL     1      -4.575   3.728  -2.327  0.00  0.00    -0.005 A 
ATOM     27  C   UNL     1      -5.264   4.045  -1.154  0.00  0.00    +0.011 A 
ATOM     28  C   UNL     1      -6.235   5.024  -1.172  0.00  0.00    +0.020 A 
ATOM     29  C   UNL     1      -6.527   5.692  -2.349  0.00  0.00    +0.041 A 
ATOM     30  C   UNL     1      -5.847   5.383  -3.515  0.00  0.00    +0.020 A 
ATOM     31  C   UNL     1      -4.870   4.410  -3.510  0.00  0.00    +0.011 A 
ATOM     32 CL   UNL     1      -7.752   6.923  -2.363  0.00  0.00    -0.084 Cl
ENDBRANCH  25  26
ENDBRANCH  22  24
ENDBRANCH   3  20
TORSDOF 5
