REMARK  Name = ZINC39227896
REMARK  3 active torsions:
REMARK  status: ('A' for Active; 'I' for Inactive)
REMARK    1  A    between atoms: C_8  and  N_10
REMARK    2  A    between atoms: C_11  and  C_13
REMARK    3  A    between atoms: C_15  and  O_40
REMARK                            x       y       z     vdW  Elec       q    Type
REMARK                         _______ _______ _______ _____ _____    ______ ____
ROOT
ATOM      1  C   UNL     1       5.378  -5.152   0.339  0.00  0.00    +0.107 C 
ATOM      2  C   UNL     1       4.379  -6.294   0.550  0.00  0.00    +0.127 C 
ATOM      3  C   UNL     1       5.071  -7.462   1.254  0.00  0.00    +0.032 C 
ATOM      4  C   UNL     1       6.248  -7.954   0.407  0.00  0.00    +0.004 C 
ATOM      5  C   UNL     1       7.240  -6.807   0.212  0.00  0.00    -0.024 C 
ATOM      6  C   UNL     1       6.542  -5.654  -0.514  0.00  0.00    +0.004 C 
ATOM      7  C   UNL     1       7.548  -4.525  -0.753  0.00  0.00    -0.005 C 
ATOM      8  C   UNL     1       8.730  -5.082  -1.548  0.00  0.00    -0.020 C 
ATOM      9  C   UNL     1       9.742  -3.993  -1.801  0.00  0.00    +0.006 A 
ATOM     10  H   UNL     1       8.621  -2.310  -2.299  0.00  0.00    +0.166 HD
ATOM     11  C   UNL     1      11.076  -4.197  -1.693  0.00  0.00    -0.022 A 
ATOM     12  C   UNL     1      11.726  -2.944  -2.004  0.00  0.00    +0.003 A 
ATOM     13  C   UNL     1      13.068  -2.555  -2.055  0.00  0.00    +0.010 A 
ATOM     14  C   UNL     1      13.325  -1.250  -2.397  0.00  0.00    +0.001 A 
ATOM     15  C   UNL     1      12.311  -0.351  -2.681  0.00  0.00    +0.002 A 
ATOM     16  C   UNL     1      10.974  -0.708  -2.638  0.00  0.00    +0.026 A 
ATOM     17  C   UNL     1      10.683  -2.026  -2.294  0.00  0.00    +0.047 A 
ATOM     18  N   UNL     1       9.500  -2.696  -2.161  0.00  0.00    -0.359 N 
ATOM     19  C   UNL     1      11.684  -5.524  -1.313  0.00  0.00    +0.019 C 
ATOM     20  C   UNL     1      10.599  -6.602  -1.452  0.00  0.00    -0.073 C 
ATOM     21  N   UNL     1       9.374  -6.156  -0.779  0.00  0.00    +0.386 N 
ATOM     22  C   UNL     1       8.435  -7.276  -0.619  0.00  0.00    -0.074 C 
ATOM     23  H   UNL     1       9.615  -5.805   0.135  0.00  0.00    -0.081 HD
ENDROOT
BRANCH   1  25
ATOM     24  N   UNL     1       3.631  -3.406   0.205  0.00  0.00    -0.312 N 
ATOM     25  C   UNL     1       4.694  -4.008  -0.364  0.00  0.00    +0.219 C 
ATOM     26  O   UNL     1       5.100  -3.629  -1.442  0.00  0.00    -0.275 OA
ATOM     27  H   UNL     1       3.305  -3.709   1.067  0.00  0.00    +0.149 HD
BRANCH  24  35
ATOM     28  C   UNL     1      -0.017   1.377   0.010  0.00  0.00    +0.000 A 
ATOM     29  C   UNL     1       1.172   2.083   0.002  0.00  0.00    +0.000 A 
ATOM     30  C   UNL     1       2.376   1.406  -0.013  0.00  0.00    +0.004 A 
ATOM     31  C   UNL     1       2.396   0.021  -0.021  0.00  0.00    -0.042 A 
ATOM     32  C   UNL     1       1.208  -0.685  -0.013  0.00  0.00    -0.042 A 
ATOM     33  C   UNL     1       0.002  -0.004   0.002  0.00  0.00    +0.004 A 
ATOM     34  C   UNL     1       1.496  -2.171  -0.024  0.00  0.00    +0.058 C 
ATOM     35  C   UNL     1       2.966  -2.294  -0.479  0.00  0.00    +0.082 C 
ATOM     36  C   UNL     1       3.564  -0.942  -0.037  0.00  0.00    +0.058 C 
ENDBRANCH  24  35
ENDBRANCH   1  25
BRANCH   2  37
ATOM     37  O   UNL     1       3.883  -6.731  -0.717  0.00  0.00    -0.391 OA
ATOM     38  H   UNL     1       3.244  -7.455  -0.661  0.00  0.00    +0.210 HD
ENDBRANCH   2  37
TORSDOF 3
