REMARK  Name = ZINC39344406
REMARK  7 active torsions:
REMARK  status: ('A' for Active; 'I' for Inactive)
REMARK    1  A    between atoms: C_1  and  C_2
REMARK    2  A    between atoms: C_4  and  C_8
REMARK    3  A    between atoms: N_10  and  N_11
REMARK    4  A    between atoms: C_12  and  C_13
REMARK    5  A    between atoms: C_15  and  N_20
REMARK    6  A    between atoms: C_18  and  O_19
REMARK    7  A    between atoms: N_21  and  C_22
REMARK                            x       y       z     vdW  Elec       q    Type
REMARK                         _______ _______ _______ _____ _____    ______ ____
ROOT
ATOM      1  C   UNL     1      -4.228  -5.383  -3.740  0.00  0.00    +0.038 A 
ATOM      2  C   UNL     1      -5.506  -5.934  -3.811  0.00  0.00    +0.042 A 
ATOM      3  C   UNL     1      -5.903  -6.613  -4.963  0.00  0.00    +0.087 A 
ATOM      4  C   UNL     1      -5.019  -6.738  -6.041  0.00  0.00    +0.033 A 
ATOM      5  C   UNL     1      -3.756  -6.192  -5.969  0.00  0.00    +0.048 A 
ATOM      6  C   UNL     1      -3.353  -5.511  -4.829  0.00  0.00    +0.126 A 
ENDROOT
BRANCH   1   8
ATOM      7  N   UNL     1      -2.611  -4.146  -2.465  0.00  0.00    -0.188 NA
ATOM      8  C   UNL     1      -3.800  -4.663  -2.527  0.00  0.00    +0.142 C 
BRANCH   7  11
ATOM      9  C   UNL     1      -0.969  -2.926  -1.248  0.00  0.00    +0.262 C 
ATOM     10  O   UNL     1      -0.211  -3.035  -2.188  0.00  0.00    -0.271 OA
ATOM     11  N   UNL     1      -2.204  -3.463  -1.312  0.00  0.00    -0.205 N 
ATOM     12  H   UNL     1      -2.810  -3.375  -0.560  0.00  0.00    +0.177 HD
BRANCH   9  16
ATOM     13  C   UNL     1      -0.018   1.503   0.010  0.00  0.00    +0.067 C 
ATOM     14  C   UNL     1       0.002  -0.004   0.002  0.00  0.00    +0.059 C 
ATOM     15  C   UNL     1      -1.086  -0.777   0.003  0.00  0.00    +0.035 C 
ATOM     16  C   UNL     1      -0.531  -2.190  -0.007  0.00  0.00    +0.240 C 
ATOM     17  N   UNL     1       0.926  -1.973  -0.013  0.00  0.00    -0.170 NA
ATOM     18  N   UNL     1       1.125  -0.756  -0.013  0.00  0.00    -0.159 NA
ENDBRANCH   9  16
ENDBRANCH   7  11
ENDBRANCH   1   8
BRANCH   6  19
ATOM     19  O   UNL     1      -2.109  -4.971  -4.766  0.00  0.00    -0.506 OA
ATOM     20  H   UNL     1      -1.438  -5.569  -4.410  0.00  0.00    +0.292 HD
ENDBRANCH   6  19
BRANCH   3  21
ATOM     21  N   UNL     1      -7.154  -7.155  -5.040  0.00  0.00    -0.149 NA
ATOM     22  N   UNL     1      -7.521  -7.783  -6.105  0.00  0.00    -0.149 NA
BRANCH  22  23
ATOM     23  C   UNL     1      -8.773  -8.327  -6.181  0.00  0.00    +0.087 A 
ATOM     24  C   UNL     1      -9.661  -8.199  -5.109  0.00  0.00    +0.029 A 
ATOM     25  C   UNL     1     -10.922  -8.749  -5.192  0.00  0.00    +0.003 A 
ATOM     26  C   UNL     1     -11.311  -9.428  -6.334  0.00  0.00    +0.015 A 
ATOM     27  C   UNL     1     -10.438  -9.559  -7.401  0.00  0.00    +0.020 A 
ATOM     28  C   UNL     1      -9.174  -9.007  -7.334  0.00  0.00    +0.044 A 
ATOM     29 BR   UNL     1     -10.980 -10.489  -8.955  0.00  0.00    -0.050 Br
ENDBRANCH  22  23
ENDBRANCH   3  21
TORSDOF 6
