REMARK  Name = ZINC39683343
REMARK  11 active torsions:
REMARK  status: ('A' for Active; 'I' for Inactive)
REMARK    1  A    between atoms: C_1  and  C_2
REMARK    2  A    between atoms: C_2  and  C_3
REMARK    3  A    between atoms: C_2  and  C_4
REMARK    4  A    between atoms: C_4  and  O_5
REMARK    5  A    between atoms: O_5  and  C_6
REMARK    6  A    between atoms: C_6  and  C_7
REMARK    7  A    between atoms: C_7  and  C_8
REMARK    8  A    between atoms: C_8  and  N_9
REMARK    9  A    between atoms: C_10  and  C_12
REMARK   10  A    between atoms: C_23  and  C_25
REMARK   11  A    between atoms: C_28  and  C_30
REMARK                            x       y       z     vdW  Elec       q    Type
REMARK                         _______ _______ _______ _____ _____    ______ ____
ROOT
ATOM      1  C   UNL     1      -4.798  -8.439  -0.545  0.00  0.00    +0.100 C 
ATOM      2  C   UNL     1      -4.261  -8.805  -1.947  0.00  0.00    +0.121 C 
ATOM      3  N   UNL     1      -4.984 -10.045  -2.313  0.00  0.00    -0.294 N 
ATOM      4  C   UNL     1      -6.364  -9.828  -1.814  0.00  0.00    +0.115 C 
ATOM      5  C   UNL     1      -6.178  -9.112  -0.462  0.00  0.00    -0.004 C 
ATOM      6  C   UNL     1      -6.204 -10.124   0.679  0.00  0.00    -0.010 C 
ATOM      7  C   UNL     1      -7.603 -10.739   0.778  0.00  0.00    -0.082 C 
ATOM      8  N   UNL     1      -8.590  -9.678   1.015  0.00  0.00    +0.379 N 
ATOM      9  C   UNL     1      -8.623  -8.761  -0.130  0.00  0.00    -0.082 C 
ATOM     10  C   UNL     1      -7.267  -8.062  -0.267  0.00  0.00    -0.010 C 
ATOM     11  C   UNL     1      -4.498 -11.127  -2.954  0.00  0.00    +0.282 C 
ATOM     12  O   UNL     1      -5.225 -12.076  -3.184  0.00  0.00    -0.267 OA
ATOM     13  H   UNL     1      -9.502 -10.091   1.140  0.00  0.00    -0.086 HD
ATOM     14  H   UNL     1      -8.338  -9.167   1.847  0.00  0.00    -0.086 HD
ENDROOT
BRANCH  11  15
ATOM     15  C   UNL     1      -3.095 -11.160  -3.373  0.00  0.00    +0.190 A 
ATOM     16  C   UNL     1      -2.474 -12.195  -4.038  0.00  0.00    +0.055 A 
ATOM     17  C   UNL     1      -1.146 -11.806  -4.238  0.00  0.00    +0.051 A 
ATOM     18  C   UNL     1      -1.005 -10.561  -3.695  0.00  0.00    +0.139 A 
ATOM     19  O   UNL     1      -2.187 -10.180  -3.181  0.00  0.00    -0.450 OA
BRANCH  18  20
ATOM     20  C   UNL     1       0.237  -9.764  -3.679  0.00  0.00    +0.052 A 
ATOM     21  C   UNL     1       1.433 -10.336  -3.241  0.00  0.00    +0.014 A 
ATOM     22  C   UNL     1       2.590  -9.586  -3.228  0.00  0.00    +0.001 A 
ATOM     23  C   UNL     1       2.570  -8.268  -3.649  0.00  0.00    +0.003 A 
ATOM     24  C   UNL     1       1.390  -7.691  -4.084  0.00  0.00    +0.039 A 
ATOM     25  C   UNL     1       0.224  -8.433  -4.108  0.00  0.00    +0.134 A 
ATOM     26  F   UNL     1      -0.927  -7.871  -4.539  0.00  0.00    -0.205 F 
ENDBRANCH  18  20
ENDBRANCH  11  15
BRANCH   1  28
ATOM     27  N   UNL     1      -4.818  -6.365   0.803  0.00  0.00    -0.315 N 
ATOM     28  C   UNL     1      -4.934  -6.944  -0.409  0.00  0.00    +0.218 C 
ATOM     29  O   UNL     1      -5.148  -6.263  -1.389  0.00  0.00    -0.275 OA
ATOM     30  H   UNL     1      -4.646  -6.910   1.587  0.00  0.00    +0.149 HD
BRANCH  27  31
ATOM     31  C   UNL     1      -4.950  -4.912   0.935  0.00  0.00    +0.106 C 
BRANCH  31  32
ATOM     32  C   UNL     1      -4.778  -4.516   2.403  0.00  0.00    +0.047 C 
BRANCH  32  33
ATOM     33  C   UNL     1      -4.916  -2.998   2.541  0.00  0.00    +0.161 C 
BRANCH  33  34
ATOM     34  O   UNL     1      -4.755  -2.628   3.912  0.00  0.00    -0.379 OA
BRANCH  34  35
ATOM     35  C   UNL     1      -4.866  -1.224   4.152  0.00  0.00    +0.162 C 
BRANCH  35  37
ATOM     36  C   UNL     1      -4.673   0.566   5.884  0.00  0.00    +0.009 C 
ATOM     37  C   UNL     1      -4.678  -0.945   5.644  0.00  0.00    +0.009 C 
ATOM     38  C   UNL     1      -5.825  -1.582   6.431  0.00  0.00    +0.009 C 
ENDBRANCH  35  37
ENDBRANCH  34  35
ENDBRANCH  33  34
ENDBRANCH  32  33
ENDBRANCH  31  32
ENDBRANCH  27  31
ENDBRANCH   1  28
TORSDOF 9
