REMARK  Name = ZINC14962250
REMARK  10 active torsions:
REMARK  status: ('A' for Active; 'I' for Inactive)
REMARK    1  A    between atoms: C_1  and  N_2
REMARK    2  A    between atoms: N_2  and  C_3
REMARK    3  A    between atoms: C_9  and  C_11
REMARK    4  A    between atoms: C_11  and  C_12
REMARK    5  A    between atoms: N_19  and  C_20
REMARK    6  A    between atoms: C_20  and  C_21
REMARK    7  A    between atoms: C_25  and  O_29
REMARK    8  A    between atoms: C_26  and  O_27
REMARK    9  A    between atoms: O_27  and  C_28
REMARK   10  A    between atoms: O_29  and  C_30
REMARK                            x       y       z     vdW  Elec       q    Type
REMARK                         _______ _______ _______ _____ _____    ______ ____
ROOT
ATOM      1  C   UNL     1      -0.238  -0.683  -3.321  0.00  0.00    +0.028 C 
ATOM      2  C   UNL     1      -0.173   0.211  -4.526  0.00  0.00    +0.200 C 
ATOM      3  O   UNL     1       0.602   1.144  -4.517  0.00  0.00    -0.278 OA
ATOM      4  N   UNL     1      -0.935   0.021  -5.609  0.00  0.00    -0.318 N 
ATOM      5  C   UNL     1      -1.915  -1.058  -5.701  0.00  0.00    +0.085 C 
ATOM      6  C   UNL     1      -1.624  -2.119  -4.638  0.00  0.00    -0.058 C 
ATOM      7  N   UNL     1      -1.487  -1.454  -3.334  0.00  0.00    +0.391 N 
ATOM      8  H   UNL     1      -0.832   0.623  -6.362  0.00  0.00    +0.149 HD
ATOM      9  H   UNL     1      -2.269  -0.834  -3.186  0.00  0.00    -0.080 HD
ENDROOT
BRANCH   1  10
ATOM     10  C   UNL     1      -0.181   0.170  -2.052  0.00  0.00    +0.090 C 
BRANCH  10  13
ATOM     11  C   UNL     1      -0.679   1.819   0.199  0.00  0.00    +0.132 C 
ATOM     12  N   UNL     1      -1.555   1.920  -0.971  0.00  0.00    -0.301 N 
ATOM     13  C   UNL     1      -1.332   1.143  -2.049  0.00  0.00    +0.214 C 
ATOM     14  O   UNL     1      -2.058   1.226  -3.017  0.00  0.00    -0.276 OA
BRANCH  12  15
ATOM     15  C   UNL     1      -2.674   2.865  -0.968  0.00  0.00    +0.080 C 
ATOM     16  C   UNL     1      -2.142   4.288  -0.772  0.00  0.00    +0.050 C 
ATOM     17  C   UNL     1      -3.323   5.260  -0.692  0.00  0.00    +0.161 C 
ATOM     18  O   UNL     1      -4.187   4.869   0.377  0.00  0.00    -0.380 OA
ATOM     19  C   UNL     1      -4.752   3.565   0.224  0.00  0.00    +0.161 C 
ATOM     20  C   UNL     1      -3.629   2.526   0.181  0.00  0.00    +0.050 C 
ENDBRANCH  12  15
ENDBRANCH  10  13
ENDBRANCH   1  10
BRANCH   7  21
ATOM     21  C   UNL     1      -1.451  -2.467  -2.270  0.00  0.00    -0.038 C 
BRANCH  21  22
ATOM     22  C   UNL     1      -2.781  -3.172  -2.203  0.00  0.00    -0.019 A 
ATOM     23  C   UNL     1      -3.762  -2.718  -1.341  0.00  0.00    +0.005 A 
ATOM     24  C   UNL     1      -4.983  -3.362  -1.277  0.00  0.00    +0.004 A 
ATOM     25  C   UNL     1      -5.229  -4.465  -2.075  0.00  0.00    +0.049 A 
ATOM     26  C   UNL     1      -4.250  -4.926  -2.940  0.00  0.00    +0.162 A 
ATOM     27  C   UNL     1      -3.023  -4.273  -3.009  0.00  0.00    +0.163 A 
BRANCH  27  28
ATOM     28  O   UNL     1      -2.061  -4.718  -3.861  0.00  0.00    -0.491 OA
ATOM     29  C   UNL     1      -1.150  -5.697  -3.357  0.00  0.00    +0.277 C 
ENDBRANCH  27  28
BRANCH  26  30
ATOM     30  O   UNL     1      -4.490  -6.010  -3.725  0.00  0.00    -0.491 OA
ATOM     31  C   UNL     1      -5.774  -6.626  -3.606  0.00  0.00    +0.277 C 
ENDBRANCH  26  30
ENDBRANCH  21  22
ENDBRANCH   7  21
TORSDOF 7
