REMARK  Name = ZINC39326823
REMARK  12 active torsions:
REMARK  status: ('A' for Active; 'I' for Inactive)
REMARK    1  A    between atoms: C_1  and  C_2
REMARK    2  A    between atoms: C_2  and  O_3
REMARK    3  A    between atoms: O_3  and  C_4
REMARK    4  A    between atoms: C_9  and  C_10
REMARK    5  A    between atoms: N_13  and  C_34
REMARK    6  A    between atoms: C_18  and  N_33
REMARK    7  A    between atoms: C_19  and  C_31
REMARK    8  A    between atoms: C_20  and  C_22
REMARK    9  A    between atoms: C_27  and  O_28
REMARK   10  A    between atoms: O_28  and  C_29
REMARK   11  A    between atoms: C_29  and  C_30
REMARK   12  A    between atoms: C_34  and  C_35
REMARK                            x       y       z     vdW  Elec       q    Type
REMARK                         _______ _______ _______ _____ _____    ______ ____
ROOT
ATOM      1  C   UNL     1       1.985  -1.430  -3.483  0.00  0.00    +0.020 C 
ATOM      2  C   UNL     1       2.688  -1.933  -4.513  0.00  0.00    +0.010 C 
ATOM      3  C   UNL     1       2.818  -3.428  -4.721  0.00  0.00    +0.124 C 
ATOM      4  N   UNL     1       4.213  -3.686  -5.123  0.00  0.00    -0.290 NA
ATOM      5  C   UNL     1       4.509  -3.045  -6.405  0.00  0.00    +0.120 C 
ATOM      6  C   UNL     1       4.219  -1.566  -6.367  0.00  0.00    -0.000 C 
ATOM      7  C   UNL     1       3.358  -1.048  -5.488  0.00  0.00    +0.136 C 
ATOM      8  O   UNL     1       3.080   0.278  -5.455  0.00  0.00    -0.441 OA
ATOM      9  C   UNL     1       3.322   1.044  -6.533  0.00  0.00    +0.199 C 
ATOM     10  C   UNL     1       4.195   0.640  -7.490  0.00  0.00    +0.098 C 
ATOM     11  C   UNL     1       4.924  -0.674  -7.360  0.00  0.00    +0.099 C 
ENDROOT
BRANCH   1  17
ATOM     12  C   UNL     1       1.080  -2.070  -1.250  0.00  0.00    +0.128 A 
ATOM     13  C   UNL     1       0.328  -2.917  -0.453  0.00  0.00    +0.046 A 
ATOM     14  C   UNL     1      -0.303  -4.014  -1.010  0.00  0.00    +0.004 A 
ATOM     15  C   UNL     1      -0.190  -4.275  -2.365  0.00  0.00    +0.001 A 
ATOM     16  C   UNL     1       0.555  -3.443  -3.173  0.00  0.00    +0.011 A 
ATOM     17  C   UNL     1       1.193  -2.327  -2.624  0.00  0.00    +0.017 A 
BRANCH  12  18
ATOM     18  O   UNL     1       1.700  -0.993  -0.705  0.00  0.00    -0.492 OA
BRANCH  18  20
ATOM     19  C   UNL     1       2.305   0.459   1.131  0.00  0.00    +0.048 C 
ATOM     20  C   UNL     1       1.540  -0.795   0.701  0.00  0.00    +0.226 C 
ENDBRANCH  18  20
ENDBRANCH  12  18
ENDBRANCH   1  17
BRANCH  11  21
ATOM     21  C   UNL     1       6.338  -0.433  -6.898  0.00  0.00    +0.007 A 
ATOM     22  C   UNL     1       6.573   0.165  -5.676  0.00  0.00    +0.008 A 
ATOM     23  C   UNL     1       7.870   0.387  -5.252  0.00  0.00    +0.001 A 
ATOM     24  C   UNL     1       8.935   0.009  -6.049  0.00  0.00    +0.004 A 
ATOM     25  C   UNL     1       8.705  -0.590  -7.272  0.00  0.00    +0.046 A 
ATOM     26  C   UNL     1       7.404  -0.818  -7.698  0.00  0.00    +0.125 A 
BRANCH  26  27
ATOM     27  O   UNL     1       7.175  -1.413  -8.898  0.00  0.00    -0.492 OA
BRANCH  27  28
ATOM     28  C   UNL     1       8.321  -1.782  -9.668  0.00  0.00    +0.225 C 
ATOM     29  C   UNL     1       7.867  -2.433 -10.977  0.00  0.00    +0.048 C 
ENDBRANCH  27  28
ENDBRANCH  26  27
ENDBRANCH  11  21
BRANCH   9  30
ATOM     30  N   UNL     1       2.678   2.248  -6.668  0.00  0.00    -0.328 N 
ATOM     31  H   UNL     1       2.052   2.542  -5.987  0.00  0.00    +0.145 HD
ATOM     32  H   UNL     1       2.848   2.805  -7.443  0.00  0.00    +0.145 HD
ENDBRANCH   9  30
BRANCH  10  33
ATOM     33  C   UNL     1       4.434   1.475  -8.628  0.00  0.00    +0.101 C 
ATOM     34  N   UNL     1       4.623   2.138  -9.531  0.00  0.00    -0.191 NA
ENDBRANCH  10  33
BRANCH   4  35
ATOM     35  C   UNL     1       4.486  -5.128  -5.180  0.00  0.00    +0.120 C 
BRANCH  35  36
ATOM     36  C   UNL     1       4.399  -5.711  -3.793  0.00  0.00    -0.033 A 
ATOM     37  C   UNL     1       5.524  -5.759  -2.992  0.00  0.00    +0.005 A 
ATOM     38  C   UNL     1       5.445  -6.294  -1.720  0.00  0.00    +0.000 A 
ATOM     39  C   UNL     1       4.239  -6.780  -1.248  0.00  0.00    +0.000 A 
ATOM     40  C   UNL     1       3.114  -6.731  -2.049  0.00  0.00    +0.000 A 
ATOM     41  C   UNL     1       3.192  -6.193  -3.320  0.00  0.00    +0.005 A 
ENDBRANCH  35  36
ENDBRANCH   4  35
TORSDOF 10
