REMARK  Name = ZINC41023735
REMARK  7 active torsions:
REMARK  status: ('A' for Active; 'I' for Inactive)
REMARK    1  A    between atoms: C_1  and  C_2
REMARK    2  A    between atoms: N_7  and  C_10
REMARK    3  A    between atoms: C_10  and  C_11
REMARK    4  A    between atoms: C_11  and  C_12
REMARK    5  A    between atoms: C_19  and  C_20
REMARK    6  A    between atoms: N_22  and  C_23
REMARK    7  A    between atoms: C_24  and  C_32
REMARK                            x       y       z     vdW  Elec       q    Type
REMARK                         _______ _______ _______ _____ _____    ______ ____
ROOT
ATOM      1  C   UNL     1      -0.018   1.503   0.010  0.00  0.00    +0.046 C 
ATOM      2  C   UNL     1       0.002  -0.004   0.002  0.00  0.00    -0.017 A 
ATOM      3  C   UNL     1       0.005  -0.697  -1.210  0.00  0.00    +0.076 A 
ATOM      4  C   UNL     1       0.025  -2.108  -1.113  0.00  0.00    +0.116 A 
ATOM      5  N   UNL     1       0.029  -2.884  -2.189  0.00  0.00    -0.230 NA
ATOM      6  C   UNL     1       0.016  -2.382  -3.394  0.00  0.00    +0.203 A 
ATOM      7  N   UNL     1      -0.003  -1.044  -3.614  0.00  0.00    -0.298 N 
ATOM      8  C   UNL     1      -0.009  -0.166  -2.592  0.00  0.00    +0.262 A 
ATOM      9  O   UNL     1      -0.026   1.034  -2.800  0.00  0.00    -0.267 OA
ATOM     10  S   UNL     1       0.038  -2.395   0.638  0.00  0.00    -0.064 S 
ATOM     11  C   UNL     1       0.023  -0.694   1.179  0.00  0.00    +0.080 A 
ENDROOT
BRANCH  11  12
ATOM     12  C   UNL     1       0.030  -0.169   2.547  0.00  0.00    +0.256 C 
ATOM     13  O   UNL     1       0.016   1.033   2.738  0.00  0.00    -0.269 OA
ATOM     14  N   UNL     1       0.052  -1.017   3.595  0.00  0.00    -0.275 N 
ATOM     15  H   UNL     1       0.063  -1.975   3.443  0.00  0.00    +0.156 HD
BRANCH  14  16
ATOM     16  C   UNL     1       0.058  -0.521   4.888  0.00  0.00    +0.085 A 
ATOM     17  C   UNL     1       0.086  -1.236   6.075  0.00  0.00    +0.068 A 
ATOM     18  C   UNL     1       0.086  -0.472   7.310  0.00  0.00    -0.023 A 
ATOM     19  C   UNL     1       0.059   0.866   7.132  0.00  0.00    -0.004 A 
ATOM     20  S   UNL     1       0.043   1.085   5.377  0.00  0.00    -0.077 S 
ATOM     21  C   UNL     1       0.051   1.916   8.200  0.00  0.00    +0.043 C 
ATOM     22  C   UNL     1      -0.302   1.243   9.535  0.00  0.00    +0.005 C 
ATOM     23  C   UNL     1       0.559  -0.012   9.701  0.00  0.00    +0.005 C 
ATOM     24  C   UNL     1       0.115  -1.084   8.703  0.00  0.00    +0.037 C 
BRANCH  17  25
ATOM     25  C   UNL     1       0.112  -2.702   6.083  0.00  0.00    +0.244 C 
ATOM     26  O   UNL     1       1.177  -3.292   6.075  0.00  0.00    -0.270 OA
ATOM     27  N   UNL     1      -1.043  -3.397   6.101  0.00  0.00    -0.325 N 
ATOM     28  H   UNL     1      -1.892  -2.927   6.108  0.00  0.00    +0.145 HD
ATOM     29  H   UNL     1      -1.026  -4.366   6.106  0.00  0.00    +0.145 HD
ENDBRANCH  17  25
ENDBRANCH  14  16
ENDBRANCH  11  12
BRANCH   7  30
ATOM     30  C   UNL     1      -0.017  -0.544  -4.991  0.00  0.00    +0.131 C 
BRANCH  30  31
ATOM     31  C   UNL     1      -1.465  -0.389  -5.462  0.00  0.00    +0.057 C 
BRANCH  31  32
ATOM     32  C   UNL     1      -1.479   0.126  -6.878  0.00  0.00    -0.046 A 
ATOM     33  C   UNL     1      -1.493   1.488  -7.118  0.00  0.00    +0.004 A 
ATOM     34  C   UNL     1      -1.507   1.960  -8.417  0.00  0.00    +0.000 A 
ATOM     35  C   UNL     1      -1.506   1.072  -9.476  0.00  0.00    +0.000 A 
ATOM     36  C   UNL     1      -1.491  -0.290  -9.236  0.00  0.00    +0.000 A 
ATOM     37  C   UNL     1      -1.473  -0.762  -7.937  0.00  0.00    +0.004 A 
ENDBRANCH  31  32
ENDBRANCH  30  31
ENDBRANCH   7  30
TORSDOF 6
