REMARK  Name = ZINC60377148
REMARK  9 active torsions:
REMARK  status: ('A' for Active; 'I' for Inactive)
REMARK    1  A    between atoms: C_1  and  C_2
REMARK    2  A    between atoms: C_2  and  C_26
REMARK    3  A    between atoms: N_5  and  N_9
REMARK    4  A    between atoms: C_10  and  C_12
REMARK    5  A    between atoms: C_12  and  N_13
REMARK    6  A    between atoms: N_13  and  C_14
REMARK    7  A    between atoms: C_14  and  C_19
REMARK    8  A    between atoms: C_26  and  C_27
REMARK    9  A    between atoms: C_27  and  C_28
REMARK                            x       y       z     vdW  Elec       q    Type
REMARK                         _______ _______ _______ _____ _____    ______ ____
ROOT
ATOM      1  N   UNL     1      -2.501  -1.950   1.864  0.00  0.00    -0.223 N 
ATOM      2  C   UNL     1      -2.545  -3.296   1.797  0.00  0.00    +0.244 C 
ATOM      3  O   UNL     1      -1.586  -3.915   1.387  0.00  0.00    -0.273 OA
ATOM      4  H   UNL     1      -3.268  -1.456   2.192  0.00  0.00    +0.174 HD
ENDROOT
BRANCH   1   9
ATOM      5  C   UNL     1       0.133   1.513   0.259  0.00  0.00    +0.041 C 
ATOM      6  C   UNL     1       0.169  -0.016   0.295  0.00  0.00    +0.112 C 
ATOM      7  C   UNL     1      -1.237  -0.583   0.304  0.00  0.00    +0.263 C 
ATOM      8  O   UNL     1      -2.086  -0.449  -0.551  0.00  0.00    -0.271 OA
ATOM      9  N   UNL     1      -1.347  -1.267   1.461  0.00  0.00    -0.137 N 
ATOM     10  C   UNL     1      -0.217  -1.212   2.176  0.00  0.00    +0.326 C 
ATOM     11  O   UNL     1      -0.074  -1.752   3.255  0.00  0.00    -0.251 OA
ATOM     12  N   UNL     1       0.742  -0.491   1.567  0.00  0.00    -0.284 N 
ATOM     13  H   UNL     1       1.637  -0.318   1.900  0.00  0.00    +0.151 HD
BRANCH   6  14
ATOM     14  C   UNL     1       0.966  -0.562  -0.891  0.00  0.00    +0.040 C 
BRANCH  14  15
ATOM     15  C   UNL     1       2.425  -0.118  -0.774  0.00  0.00    +0.038 C 
BRANCH  15  16
ATOM     16  C   UNL     1       3.209  -0.656  -1.943  0.00  0.00    -0.047 A 
ATOM     17  C   UNL     1       3.816  -1.895  -1.857  0.00  0.00    +0.003 A 
ATOM     18  C   UNL     1       4.535  -2.388  -2.929  0.00  0.00    +0.000 A 
ATOM     19  C   UNL     1       4.648  -1.643  -4.087  0.00  0.00    +0.000 A 
ATOM     20  C   UNL     1       4.041  -0.404  -4.174  0.00  0.00    +0.000 A 
ATOM     21  C   UNL     1       3.318   0.088  -3.103  0.00  0.00    +0.003 A 
ENDBRANCH  15  16
ENDBRANCH  14  15
ENDBRANCH   6  14
ENDBRANCH   1   9
BRANCH   2  22
ATOM     22  C   UNL     1      -3.787  -4.031   2.231  0.00  0.00    +0.179 C 
BRANCH  22  23
ATOM     23  N   UNL     1      -3.585  -5.476   2.061  0.00  0.00    -0.299 NA
ATOM     24  H   UNL     1      -3.432  -5.709   1.091  0.00  0.00    +0.123 HD
BRANCH  23  25
ATOM     25  C   UNL     1      -4.715  -6.235   2.613  0.00  0.00    +0.045 C 
ATOM     26  C   UNL     1      -6.023  -5.824   1.904  0.00  0.00    +0.027 C 
ATOM     27  C   UNL     1      -7.088  -5.849   3.028  0.00  0.00    +0.002 C 
ATOM     28  C   UNL     1      -6.311  -5.295   4.248  0.00  0.00    +0.002 C 
ATOM     29  C   UNL     1      -4.899  -5.898   4.103  0.00  0.00    +0.027 C 
BRANCH  25  30
ATOM     30  C   UNL     1      -4.477  -7.713   2.443  0.00  0.00    -0.027 A 
ATOM     31  C   UNL     1      -3.298  -8.162   1.878  0.00  0.00    +0.007 A 
ATOM     32  C   UNL     1      -3.079  -9.518   1.721  0.00  0.00    +0.020 A 
ATOM     33  C   UNL     1      -4.040 -10.425   2.131  0.00  0.00    +0.041 A 
ATOM     34  C   UNL     1      -5.220  -9.975   2.696  0.00  0.00    +0.020 A 
ATOM     35  C   UNL     1      -5.435  -8.619   2.857  0.00  0.00    +0.007 A 
ATOM     36 CL   UNL     1      -3.766 -12.128   1.934  0.00  0.00    -0.084 Cl
ENDBRANCH  25  30
ENDBRANCH  23  25
ENDBRANCH  22  23
ENDBRANCH   2  22
TORSDOF 8
