REMARK  Name = ZINC44357244
REMARK  8 active torsions:
REMARK  status: ('A' for Active; 'I' for Inactive)
REMARK    1  A    between atoms: C_1  and  C_2
REMARK    2  A    between atoms: C_2  and  O_3
REMARK    3  A    between atoms: O_3  and  C_4
REMARK    4  A    between atoms: C_4  and  C_6
REMARK    5  A    between atoms: C_10  and  N_11
REMARK    6  A    between atoms: C_12  and  C_14
REMARK    7  A    between atoms: N_19  and  S_20
REMARK    8  A    between atoms: S_20  and  C_23
REMARK                            x       y       z     vdW  Elec       q    Type
REMARK                         _______ _______ _______ _____ _____    ______ ____
ROOT
ATOM      1  C   UNL     1      -2.842  -2.416   0.016  0.00  0.00    +0.091 A 
ATOM      2  C   UNL     1      -3.548  -2.714  -1.223  0.00  0.00    -0.021 A 
ATOM      3  C   UNL     1      -4.778  -3.237  -1.040  0.00  0.00    -0.004 A 
ATOM      4  S   UNL     1      -4.971  -3.335   0.717  0.00  0.00    -0.077 S 
ATOM      5  C   UNL     1      -3.493  -2.707   1.204  0.00  0.00    +0.086 A 
ATOM      6  C   UNL     1      -5.768  -3.635  -2.090  0.00  0.00    +0.043 C 
ATOM      7  C   UNL     1      -5.064  -4.501  -3.143  0.00  0.00    +0.005 C 
ATOM      8  C   UNL     1      -4.498  -3.587  -4.226  0.00  0.00    +0.001 C 
ATOM      9  C   UNL     1      -4.064  -2.255  -3.619  0.00  0.00    +0.005 C 
ATOM     10  C   UNL     1      -2.949  -2.471  -2.601  0.00  0.00    +0.037 C 
ENDROOT
BRANCH   5  11
ATOM     11  N   UNL     1      -3.030  -2.521   2.497  0.00  0.00    -0.278 N 
ATOM     12  C   UNL     1      -3.804  -2.864   3.546  0.00  0.00    +0.236 C 
ATOM     13  O   UNL     1      -4.905  -3.336   3.358  0.00  0.00    -0.274 OA
ATOM     14  H   UNL     1      -2.149  -2.144   2.648  0.00  0.00    +0.155 HD
BRANCH  12  15
ATOM     15  C   UNL     1      -3.300  -2.661   4.952  0.00  0.00    +0.165 C 
ATOM     16  C   UNL     1      -3.041  -1.161   5.206  0.00  0.00    +0.031 C 
ATOM     17  C   UNL     1      -4.338  -0.701   5.922  0.00  0.00    +0.019 C 
ATOM     18  C   UNL     1      -4.687  -1.951   6.768  0.00  0.00    +0.110 C 
ATOM     19  N   UNL     1      -4.319  -3.101   5.916  0.00  0.00    -0.170 NA
BRANCH  19  20
ATOM     20  S   UNL     1      -4.950  -4.628   6.025  0.00  0.00    +0.030 S 
ATOM     21  O   UNL     1      -6.239  -4.448   6.597  0.00  0.00    -0.158 OA
ATOM     22  O   UNL     1      -4.806  -5.173   4.721  0.00  0.00    -0.158 OA
ATOM     23  C   UNL     1      -3.865  -5.498   7.190  0.00  0.00    +0.215 C 
ENDBRANCH  19  20
ENDBRANCH  12  15
ENDBRANCH   5  11
BRANCH   1  24
ATOM     24  C   UNL     1      -1.497  -1.838   0.006  0.00  0.00    +0.342 C 
ATOM     25  O   UNL     1      -0.523  -2.566  -0.007  0.00  0.00    -0.245 OA
BRANCH  24  26
ATOM     26  O   UNL     1      -1.339  -0.499   0.012  0.00  0.00    -0.461 OA
BRANCH  26  28
ATOM     27  C   UNL     1      -0.019   1.526   0.010  0.00  0.00    +0.048 C 
ATOM     28  C   UNL     1       0.002  -0.004   0.002  0.00  0.00    +0.229 C 
ENDBRANCH  26  28
ENDBRANCH  24  26
ENDBRANCH   1  24
TORSDOF 6
