REMARK  Name = ZINC31412627
REMARK  8 active torsions:
REMARK  status: ('A' for Active; 'I' for Inactive)
REMARK    1  A    between atoms: C_1  and  C_2
REMARK    2  A    between atoms: C_2  and  C_4
REMARK    3  A    between atoms: C_2  and  N_17
REMARK    4  A    between atoms: N_6  and  C_7
REMARK    5  A    between atoms: N_20  and  S_23
REMARK    6  A    between atoms: S_23  and  C_26
REMARK    7  A    between atoms: C_29  and  C_32
REMARK    8  A    between atoms: C_32  and  C_34
REMARK                            x       y       z     vdW  Elec       q    Type
REMARK                         _______ _______ _______ _____ _____    ______ ____
ROOT
ATOM      1  N   UNL     1      -2.843   7.745  -2.140  0.00  0.00    +0.389 N 
ATOM      2  C   UNL     1      -2.172   7.304  -3.370  0.00  0.00    -0.060 C 
ATOM      3  C   UNL     1      -3.037   7.674  -4.580  0.00  0.00    +0.091 C 
ATOM      4  N   UNL     1      -3.337   9.113  -4.517  0.00  0.00    -0.180 NA
ATOM      5  C   UNL     1      -3.884   9.655  -3.264  0.00  0.00    +0.091 C 
ATOM      6  C   UNL     1      -2.986   9.207  -2.106  0.00  0.00    -0.060 C 
ATOM      7  H   UNL     1      -3.853   7.310  -2.134  0.00  0.00    -0.081 HD
ENDROOT
BRANCH   4   8
ATOM      8  S   UNL     1      -3.066  10.096  -5.822  0.00  0.00    +0.061 S 
ATOM      9  O   UNL     1      -3.093   9.261  -6.971  0.00  0.00    -0.153 OA
ATOM     10  O   UNL     1      -3.929  11.215  -5.673  0.00  0.00    -0.153 OA
BRANCH   8  11
ATOM     11  C   UNL     1      -1.420  10.707  -5.681  0.00  0.00    +0.106 A 
ATOM     12  C   UNL     1      -1.180  11.890  -5.005  0.00  0.00    +0.029 A 
ATOM     13  C   UNL     1       0.106  12.373  -4.887  0.00  0.00    +0.013 A 
ATOM     14  C   UNL     1       1.169  11.668  -5.460  0.00  0.00    +0.017 A 
ATOM     15  C   UNL     1       0.918  10.475  -6.146  0.00  0.00    +0.013 A 
ATOM     16  C   UNL     1      -0.373  10.003  -6.252  0.00  0.00    +0.029 A 
BRANCH  14  17
ATOM     17  C   UNL     1       2.545  12.178  -5.343  0.00  0.00    +0.160 C 
ATOM     18  O   UNL     1       3.464  11.563  -5.841  0.00  0.00    -0.292 OA
ATOM     19  C   UNL     1       2.810  13.463  -4.603  0.00  0.00    +0.091 C 
ENDBRANCH  14  17
ENDBRANCH   8  11
ENDBRANCH   4   8
BRANCH   1  21
ATOM     20  C   UNL     1      -0.697   7.788  -0.960  0.00  0.00    -0.004 C 
ATOM     21  C   UNL     1      -2.132   7.259  -0.950  0.00  0.00    +0.016 C 
BRANCH  21  22
ATOM     22  C   UNL     1      -2.112   5.752  -0.958  0.00  0.00    +0.200 C 
ATOM     23  O   UNL     1      -2.637   5.143  -1.866  0.00  0.00    -0.278 OA
ATOM     24  N   UNL     1      -1.510   5.081   0.044  0.00  0.00    -0.311 N 
ATOM     25  H   UNL     1      -1.033   5.633   0.867  0.00  0.00    +0.149 HD
BRANCH  24  26
ATOM     26  C   UNL     1      -1.490   3.616   0.036  0.00  0.00    +0.035 C 
ATOM     27  C   UNL     1      -0.773   3.123  -1.223  0.00  0.00    +0.029 C 
ATOM     28  C   UNL     1      -0.753   1.593  -1.232  0.00  0.00    -0.008 C 
ATOM     29  C   UNL     1      -0.013   1.086   0.008  0.00  0.00    +0.007 C 
ATOM     30  C   UNL     1      -0.729   1.579   1.267  0.00  0.00    -0.008 C 
ATOM     31  C   UNL     1      -0.750   3.109   1.275  0.00  0.00    +0.029 C 
ATOM     32  C   UNL     1      -2.164   1.050   1.278  0.00  0.00    +0.007 C 
ATOM     33  C   UNL     1      -2.904   1.556   0.038  0.00  0.00    -0.008 C 
ATOM     34  C   UNL     1      -2.188   1.063  -1.221  0.00  0.00    +0.007 C 
ATOM     35  C   UNL     1      -2.925   3.086   0.047  0.00  0.00    +0.029 C 
ENDBRANCH  24  26
ENDBRANCH  21  22
ENDBRANCH   1  21
TORSDOF 6
