REMARK  Name = ZINC10105119
REMARK  6 active torsions:
REMARK  status: ('A' for Active; 'I' for Inactive)
REMARK    1  A    between atoms: C_1  and  C_2
REMARK    2  A    between atoms: N_10  and  C_12
REMARK    3  A    between atoms: N_19  and  C_32
REMARK    4  A    between atoms: N_22  and  C_25
REMARK    5  A    between atoms: C_25  and  C_26
REMARK    6  A    between atoms: C_26  and  N_61
REMARK                            x       y       z     vdW  Elec       q    Type
REMARK                         _______ _______ _______ _____ _____    ______ ____
ROOT
ATOM      1  C   UNL     1       4.703   5.514  -1.297  0.00  0.00    +0.011 C 
ATOM      2  C   UNL     1       4.704   3.994  -1.122  0.00  0.00    +0.024 C 
ATOM      3  C   UNL     1       6.072   3.541  -0.600  0.00  0.00    +0.130 C 
ATOM      4  N   UNL     1       5.987   2.135  -0.199  0.00  0.00    -0.306 N 
ATOM      5  C   UNL     1       6.988   1.219  -0.014  0.00  0.00    +0.153 A 
ATOM      6  C   UNL     1       6.361   0.021   0.363  0.00  0.00    +0.170 A 
ATOM      7  N   UNL     1       5.056   0.239   0.395  0.00  0.00    -0.196 NA
ATOM      8  C   UNL     1       4.809   1.488   0.066  0.00  0.00    +0.205 A 
ATOM      9  N   UNL     1       3.583   2.124  -0.021  0.00  0.00    -0.271 N 
ATOM     10  C   UNL     1       3.612   3.594  -0.130  0.00  0.00    +0.118 C 
ATOM     11  N   UNL     1       7.123  -1.110   0.624  0.00  0.00    -0.280 N 
ATOM     12  C   UNL     1       8.465  -0.994   0.498  0.00  0.00    +0.333 A 
ATOM     13  O   UNL     1       9.153  -1.972   0.721  0.00  0.00    -0.246 OA
ATOM     14  N   UNL     1       9.074   0.145   0.138  0.00  0.00    -0.261 N 
ATOM     15  C   UNL     1       8.390   1.285  -0.130  0.00  0.00    +0.282 A 
ATOM     16  O   UNL     1       8.959   2.312  -0.457  0.00  0.00    -0.265 OA
ATOM     17  C   UNL     1       6.500  -2.375   1.020  0.00  0.00    +0.155 C 
ENDROOT
BRANCH   9  18
ATOM     18  C   UNL     1       2.381   1.409  -0.013  0.00  0.00    +0.036 A 
ATOM     19  C   UNL     1       1.169   2.087   0.026  0.00  0.00    +0.024 A 
ATOM     20  C   UNL     1      -0.016   1.379   0.033  0.00  0.00    +0.017 A 
ATOM     21  C   UNL     1       0.002  -0.004   0.002  0.00  0.00    +0.018 A 
ATOM     22  C   UNL     1       1.208  -0.682  -0.036  0.00  0.00    +0.017 A 
ATOM     23  C   UNL     1       2.397   0.021  -0.044  0.00  0.00    +0.024 A 
ATOM     24 BR   UNL     1      -1.624  -0.970   0.012  0.00  0.00    -0.050 Br
ENDBRANCH   9  18
BRANCH  14  25
ATOM     25  C   UNL     1      10.535   0.159   0.031  0.00  0.00    +0.111 C 
BRANCH  25  26
ATOM     26  C   UNL     1      10.946  -0.221  -1.393  0.00  0.00    -0.057 C 
BRANCH  26  32
ATOM     27  C   UNL     1      12.938   1.153  -1.330  0.00  0.00    -0.079 C 
ATOM     28  C   UNL     1      14.467   1.109  -1.302  0.00  0.00    -0.019 C 
ATOM     29  C   UNL     1      14.980   0.503  -2.611  0.00  0.00    -0.004 C 
ATOM     30  C   UNL     1      14.378  -0.894  -2.788  0.00  0.00    -0.019 C 
ATOM     31  C   UNL     1      12.851  -0.792  -2.773  0.00  0.00    -0.079 C 
ATOM     32  N   UNL     1      12.421  -0.224  -1.477  0.00  0.00    +0.381 N 
ATOM     33  H   UNL     1      12.797  -0.804  -0.718  0.00  0.00    -0.082 HD
ENDBRANCH  26  32
ENDBRANCH  25  26
ENDBRANCH  14  25
TORSDOF 4
