REMARK  Name = ZINC01716088
REMARK  6 active torsions:
REMARK  status: ('A' for Active; 'I' for Inactive)
REMARK    1  A    between atoms: C_1  and  O_2
REMARK    2  A    between atoms: O_2  and  C_3
REMARK    3  A    between atoms: C_6  and  C_9
REMARK    4  A    between atoms: C_19  and  C_21
REMARK    5  A    between atoms: C_24  and  O_27
REMARK    6  A    between atoms: O_27  and  C_28
REMARK                            x       y       z     vdW  Elec       q    Type
REMARK                         _______ _______ _______ _____ _____    ______ ____
ROOT
ATOM      1  C   UNL     1       0.060  -4.277  -0.020  0.00  0.00    +0.216 C 
ATOM      2  N   UNL     1      -1.095  -4.802  -0.764  0.00  0.00    -0.274 N 
ATOM      3  C   UNL     1      -0.620  -5.510  -1.804  0.00  0.00    +0.322 C 
ATOM      4  O   UNL     1      -1.322  -6.078  -2.618  0.00  0.00    -0.251 OA
ATOM      5  N   UNL     1       0.720  -5.514  -1.834  0.00  0.00    -0.173 N 
ATOM      6  N   UNL     1       1.235  -4.771  -0.758  0.00  0.00    -0.173 N 
ATOM      7  C   UNL     1       2.573  -4.776  -0.792  0.00  0.00    +0.322 C 
ATOM      8  O   UNL     1       3.274  -4.208   0.023  0.00  0.00    -0.251 OA
ATOM      9  N   UNL     1       3.047  -5.483  -1.831  0.00  0.00    -0.274 N 
ATOM     10  C   UNL     1       1.893  -6.008  -2.575  0.00  0.00    +0.216 C 
ATOM     11  H   UNL     1      -2.029  -4.663  -0.545  0.00  0.00    +0.152 HD
ATOM     12  H   UNL     1       3.982  -5.623  -2.051  0.00  0.00    +0.152 HD
ENDROOT
BRANCH   1  16
ATOM     13  C   UNL     1       0.002  -0.004   0.002  0.00  0.00    +0.120 A 
ATOM     14  C   UNL     1       1.212  -0.682  -0.019  0.00  0.00    +0.046 A 
ATOM     15  C   UNL     1       1.228  -2.064  -0.021  0.00  0.00    +0.011 A 
ATOM     16  C   UNL     1       0.040  -2.770  -0.013  0.00  0.00    -0.007 A 
ATOM     17  C   UNL     1      -1.168  -2.096   0.002  0.00  0.00    +0.011 A 
ATOM     18  C   UNL     1      -1.189  -0.715   0.010  0.00  0.00    +0.046 A 
BRANCH  13  20
ATOM     19  C   UNL     1       1.248   2.021   0.001  0.00  0.00    +0.277 C 
ATOM     20  O   UNL     1      -0.016   1.355   0.009  0.00  0.00    -0.495 OA
ENDBRANCH  13  20
ENDBRANCH   1  16
BRANCH  10  21
ATOM     21  C   UNL     1       1.886  -5.476  -3.985  0.00  0.00    -0.007 A 
ATOM     22  C   UNL     1       0.686  -5.208  -4.616  0.00  0.00    +0.011 A 
ATOM     23  C   UNL     1       0.677  -4.716  -5.907  0.00  0.00    +0.046 A 
ATOM     24  C   UNL     1       1.875  -4.501  -6.574  0.00  0.00    +0.120 A 
ATOM     25  C   UNL     1       3.078  -4.776  -5.940  0.00  0.00    +0.046 A 
ATOM     26  C   UNL     1       3.081  -5.263  -4.647  0.00  0.00    +0.011 A 
BRANCH  24  27
ATOM     27  O   UNL     1       1.869  -4.023  -7.846  0.00  0.00    -0.495 OA
ATOM     28  C   UNL     1       0.594  -3.762  -8.435  0.00  0.00    +0.277 C 
ENDBRANCH  24  27
ENDBRANCH  10  21
TORSDOF 4
