REMARK  Name = ZINC58052852
REMARK  11 active torsions:
REMARK  status: ('A' for Active; 'I' for Inactive)
REMARK    1  A    between atoms: C_1  and  C_2
REMARK    2  A    between atoms: C_2  and  C_4
REMARK    3  A    between atoms: C_2  and  N_10
REMARK    4  A    between atoms: C_14  and  S_15
REMARK    5  A    between atoms: S_15  and  C_16
REMARK    6  A    between atoms: C_16  and  C_18
REMARK    7  A    between atoms: C_16  and  C_19
REMARK    8  A    between atoms: N_24  and  C_25
REMARK    9  A    between atoms: C_25  and  C_26
REMARK   10  A    between atoms: C_25  and  C_27
REMARK   11  A    between atoms: C_25  and  C_28
REMARK                            x       y       z     vdW  Elec       q    Type
REMARK                         _______ _______ _______ _____ _____    ______ ____
ROOT
ATOM      1  S   UNL     1      -1.421  -1.944   2.271  0.00  0.00    -0.074 S 
ENDROOT
BRANCH   1   6
ATOM      2  N   UNL     1       0.711  -0.489   1.189  0.00  0.00    -0.301 N 
ATOM      3  C   UNL     1       2.007  -0.230   1.540  0.00  0.00    +0.226 A 
ATOM      4  N   UNL     1       2.236  -0.852   2.663  0.00  0.00    -0.137 NA
ATOM      5  N   UNL     1       1.181  -1.481   3.042  0.00  0.00    -0.123 NA
ATOM      6  C   UNL     1       0.212  -1.290   2.177  0.00  0.00    +0.193 A 
BRANCH   2   8
ATOM      7  C   UNL     1      -0.019   1.526   0.010  0.00  0.00    +0.036 C 
ATOM      8  C   UNL     1       0.002  -0.004   0.002  0.00  0.00    +0.117 C 
BRANCH   8   9
ATOM      9  C   UNL     1       0.707  -0.490  -1.238  0.00  0.00    -0.025 A 
ATOM     10  C   UNL     1       2.026  -0.142  -1.464  0.00  0.00    +0.005 A 
ATOM     11  C   UNL     1       2.673  -0.587  -2.602  0.00  0.00    +0.000 A 
ATOM     12  C   UNL     1       2.002  -1.382  -3.512  0.00  0.00    +0.000 A 
ATOM     13  C   UNL     1       0.684  -1.731  -3.285  0.00  0.00    +0.000 A 
ATOM     14  C   UNL     1       0.038  -1.289  -2.146  0.00  0.00    +0.005 A 
ENDBRANCH   8   9
ENDBRANCH   2   8
ENDBRANCH   1   6
BRANCH   1  15
ATOM     15  C   UNL     1      -1.420  -2.906   3.809  0.00  0.00    +0.137 C 
ATOM     16  C   UNL     1      -1.223  -1.966   4.999  0.00  0.00    +0.029 C 
BRANCH  15  17
ATOM     17  C   UNL     1      -2.735  -3.628   3.951  0.00  0.00    +0.233 C 
ATOM     18  O   UNL     1      -3.705  -3.248   3.330  0.00  0.00    -0.274 OA
ATOM     19  N   UNL     1      -2.834  -4.695   4.768  0.00  0.00    -0.239 N 
ATOM     20  C   UNL     1      -4.010  -5.340   4.895  0.00  0.00    +0.306 C 
ATOM     21  O   UNL     1      -4.982  -4.959   4.272  0.00  0.00    -0.252 OA
ATOM     22  N   UNL     1      -4.109  -6.408   5.711  0.00  0.00    -0.294 N 
ATOM     23  H   UNL     1      -2.058  -4.999   5.264  0.00  0.00    +0.159 HD
ATOM     24  H   UNL     1      -3.333  -6.712   6.208  0.00  0.00    +0.151 HD
BRANCH  22  25
ATOM     25  C   UNL     1      -5.388  -7.109   5.849  0.00  0.00    +0.028 C 
ATOM     26  C   UNL     1      -5.825  -7.646   4.485  0.00  0.00    +0.031 C 
ATOM     27  C   UNL     1      -5.227  -8.274   6.829  0.00  0.00    +0.031 C 
ATOM     28  C   UNL     1      -6.446  -6.140   6.379  0.00  0.00    +0.031 C 
ENDBRANCH  22  25
ENDBRANCH  15  17
ENDBRANCH   1  15
TORSDOF 6
