REMARK  Name = ZINC43753755
REMARK  4 active torsions:
REMARK  status: ('A' for Active; 'I' for Inactive)
REMARK    1  A    between atoms: C_3  and  N_10
REMARK    2  A    between atoms: C_6  and  C_7
REMARK    3  A    between atoms: C_24  and  O_29
REMARK    4  A    between atoms: C_26  and  O_28
REMARK                            x       y       z     vdW  Elec       q    Type
REMARK                         _______ _______ _______ _____ _____    ______ ____
ROOT
ATOM      1  N   UNL     1       3.580   2.135  -0.021  0.00  0.00    -0.210 N 
ATOM      2  C   UNL     1       3.624   3.469  -0.107  0.00  0.00    +0.230 C 
ATOM      3  O   UNL     1       2.659   4.198  -0.186  0.00  0.00    -0.274 OA
ATOM      4  C   UNL     1       5.066   3.926  -0.091  0.00  0.00    +0.094 C 
ATOM      5  C   UNL     1       5.418   4.492  -1.500  0.00  0.00    +0.033 C 
ATOM      6  C   UNL     1       6.904   4.010  -1.645  0.00  0.00    +0.013 C 
ATOM      7  C   UNL     1       6.616   2.494  -1.357  0.00  0.00    +0.033 C 
ATOM      8  C   UNL     1       5.862   2.595   0.023  0.00  0.00    +0.094 C 
ATOM      9  C   UNL     1       4.777   1.543   0.062  0.00  0.00    +0.230 C 
ATOM     10  O   UNL     1       4.963   0.349   0.152  0.00  0.00    -0.274 OA
ATOM     11  C   UNL     1       5.497   2.209  -2.405  0.00  0.00    +0.147 C 
ATOM     12  C   UNL     1       4.686   3.544  -2.498  0.00  0.00    +0.147 C 
ENDROOT
BRANCH   1  15
ATOM     13  C   UNL     1       0.887  -0.130  -1.073  0.00  0.00    +0.017 A 
ATOM     14  C   UNL     1       2.067   0.578  -1.077  0.00  0.00    +0.025 A 
ATOM     15  C   UNL     1       2.381   1.418  -0.013  0.00  0.00    +0.044 A 
ATOM     16  C   UNL     1       1.504   1.546   1.059  0.00  0.00    +0.025 A 
ATOM     17  C   UNL     1       0.322   0.840   1.071  0.00  0.00    +0.017 A 
ATOM     18  C   UNL     1       0.003  -0.005   0.003  0.00  0.00    +0.063 A 
BRANCH  18  19
ATOM     19  C   UNL     1      -1.262  -0.760   0.012  0.00  0.00    +0.387 C 
ATOM     20  O   UNL     1      -1.539  -1.499  -0.923  0.00  0.00    -0.241 OA
ATOM     21  O   UNL     1      -2.034  -0.650   0.954  0.00  0.00    -0.241 OA
ENDBRANCH  18  19
ENDBRANCH   1  15
BRANCH  12  22
ATOM     22  O   UNL     1       3.327   3.355  -2.099  0.00  0.00    -0.389 OA
ATOM     23  H   UNL     1       2.823   2.773  -2.685  0.00  0.00    +0.210 HD
ENDBRANCH  12  22
BRANCH  11  24
ATOM     24  O   UNL     1       6.072   1.879  -3.671  0.00  0.00    -0.389 OA
ATOM     25  H   UNL     1       5.421   1.692  -4.361  0.00  0.00    +0.210 HD
ENDBRANCH  11  24
TORSDOF 4
