REMARK  Name = ZINC38704951
REMARK  14 active torsions:
REMARK  status: ('A' for Active; 'I' for Inactive)
REMARK    1  A    between atoms: C_1  and  C_2
REMARK    2  A    between atoms: C_2  and  C_3
REMARK    3  A    between atoms: C_3  and  C_4
REMARK    4  A    between atoms: C_4  and  C_5
REMARK    5  A    between atoms: C_5  and  N_6
REMARK    6  A    between atoms: C_7  and  C_26
REMARK    7  A    between atoms: C_10  and  C_17
REMARK    8  A    between atoms: C_18  and  C_25
REMARK    9  A    between atoms: C_20  and  C_24
REMARK   10  A    between atoms: C_22  and  O_23
REMARK   11  A    between atoms: C_29  and  O_34
REMARK   12  A    between atoms: C_30  and  O_32
REMARK   13  A    between atoms: O_32  and  C_33
REMARK   14  A    between atoms: O_34  and  C_35
REMARK                            x       y       z     vdW  Elec       q    Type
REMARK                         _______ _______ _______ _____ _____    ______ ____
ROOT
ATOM      1  N   UNL     1      -2.389  -3.960  -0.255  0.00  0.00    -0.285 N 
ATOM      2  C   UNL     1      -2.350  -5.053  -1.235  0.00  0.00    +0.141 C 
ATOM      3  C   UNL     1      -2.505  -6.324  -0.446  0.00  0.00    +0.035 A 
ATOM      4  C   UNL     1      -2.585  -7.721  -0.465  0.00  0.00    +0.102 A 
ATOM      5  N   UNL     1      -2.737  -8.124   0.782  0.00  0.00    -0.173 NA
ATOM      6  N   UNL     1      -2.762  -7.120   1.585  0.00  0.00    -0.272 N 
ATOM      7  H   UNL     1      -2.864  -7.179   2.547  0.00  0.00    +0.189 HD
ATOM      8  C   UNL     1      -2.622  -5.958   0.881  0.00  0.00    +0.126 A 
ATOM      9  C   UNL     1      -2.541  -4.496   0.970  0.00  0.00    +0.265 C 
ATOM     10  O   UNL     1      -2.605  -3.858   2.003  0.00  0.00    -0.268 OA
ENDROOT
BRANCH   4  11
ATOM     11  C   UNL     1      -2.511  -8.590  -1.666  0.00  0.00    +0.047 A 
ATOM     12  C   UNL     1      -1.628  -9.665  -1.698  0.00  0.00    -0.037 A 
ATOM     13  C   UNL     1      -1.563 -10.471  -2.817  0.00  0.00    +0.007 A 
ATOM     14  C   UNL     1      -2.374 -10.213  -3.908  0.00  0.00    -0.047 A 
ATOM     15  C   UNL     1      -3.255  -9.148  -3.886  0.00  0.00    +0.049 A 
ATOM     16  C   UNL     1      -3.333  -8.335  -2.767  0.00  0.00    +0.127 A 
ATOM     17  C   UNL     1      -2.297 -11.097  -5.126  0.00  0.00    +0.044 C 
ATOM     18  C   UNL     1      -0.742  -9.950  -0.512  0.00  0.00    +0.044 C 
BRANCH  16  19
ATOM     19  O   UNL     1      -4.202  -7.291  -2.742  0.00  0.00    -0.506 OA
ATOM     20  H   UNL     1      -3.861  -6.485  -3.154  0.00  0.00    +0.292 HD
ENDBRANCH  16  19
ENDBRANCH   4  11
BRANCH   2  21
ATOM     21  C   UNL     1      -1.031  -5.050  -1.964  0.00  0.00    -0.019 A 
ATOM     22  C   UNL     1       0.151  -4.986  -1.250  0.00  0.00    +0.009 A 
ATOM     23  C   UNL     1       1.363  -4.984  -1.913  0.00  0.00    +0.050 A 
ATOM     24  C   UNL     1       1.396  -5.046  -3.297  0.00  0.00    +0.162 A 
ATOM     25  C   UNL     1       0.206  -5.111  -4.016  0.00  0.00    +0.162 A 
ATOM     26  C   UNL     1      -1.006  -5.118  -3.344  0.00  0.00    +0.055 A 
BRANCH  25  27
ATOM     27  O   UNL     1       0.232  -5.172  -5.374  0.00  0.00    -0.491 OA
ATOM     28  C   UNL     1      -1.028  -5.237  -6.045  0.00  0.00    +0.277 C 
ENDBRANCH  25  27
BRANCH  24  29
ATOM     29  O   UNL     1       2.588  -5.043  -3.952  0.00  0.00    -0.491 OA
ATOM     30  C   UNL     1       3.768  -4.974  -3.150  0.00  0.00    +0.277 C 
ENDBRANCH  24  29
ENDBRANCH   2  21
BRANCH   1  31
ATOM     31  C   UNL     1      -2.274  -2.531  -0.558  0.00  0.00    +0.109 C 
BRANCH  31  32
ATOM     32  C   UNL     1      -0.801  -2.119  -0.521  0.00  0.00    +0.019 C 
BRANCH  32  33
ATOM     33  C   UNL     1      -0.681  -0.626  -0.838  0.00  0.00    +0.001 C 
BRANCH  33  35
ATOM     34  C   UNL     1       0.911   1.278  -1.118  0.00  0.00    +0.004 C 
ATOM     35  C   UNL     1       0.792  -0.214  -0.802  0.00  0.00    -0.003 C 
ENDBRANCH  33  35
ENDBRANCH  32  33
ENDBRANCH  31  32
ENDBRANCH   1  31
TORSDOF 9
