REMARK  Name = ZINC20912576
REMARK  8 active torsions:
REMARK  status: ('A' for Active; 'I' for Inactive)
REMARK    1  A    between atoms: C_4  and  N_7
REMARK    2  A    between atoms: N_7  and  C_8
REMARK    3  A    between atoms: C_14  and  C_16
REMARK    4  A    between atoms: C_16  and  S_17
REMARK    5  A    between atoms: S_17  and  C_18
REMARK    6  A    between atoms: N_22  and  N_23
REMARK    7  A    between atoms: N_24  and  N_25
REMARK    8  A    between atoms: C_26  and  C_27
REMARK                            x       y       z     vdW  Elec       q    Type
REMARK                         _______ _______ _______ _____ _____    ______ ____
ROOT
ATOM      1  C   UNL     1      -1.572  -1.988  -3.718  0.00  0.00    +0.210 A 
ATOM      2  N   UNL     1      -1.938  -0.732  -3.623  0.00  0.00    -0.119 NA
ATOM      3  N   UNL     1      -1.141   0.019  -4.497  0.00  0.00    -0.109 NA
ATOM      4  C   UNL     1      -0.320  -0.804  -5.103  0.00  0.00    +0.254 A 
ATOM      5  N   UNL     1      -0.563  -2.065  -4.635  0.00  0.00    -0.211 N 
ATOM      6  N   UNL     1       0.632  -0.455  -6.050  0.00  0.00    -0.204 N 
ATOM      7  H   UNL     1       1.276  -1.229  -6.494  0.00  0.00    +0.177 HD
ENDROOT
BRANCH   5   8
ATOM      8  N   UNL     1       0.089  -3.203  -5.017  0.00  0.00    -0.294 N 
ATOM      9  H   UNL     1       0.891  -3.152  -5.768  0.00  0.00    +0.163 HD
ATOM     10  H   UNL     1      -0.188  -4.171  -4.574  0.00  0.00    +0.163 HD
ENDBRANCH   5   8
BRANCH   6  11
ATOM     11  N   UNL     1       0.775   0.883  -6.440  0.00  0.00    -0.187 NA
ATOM     12  C   UNL     1       1.668   1.210  -7.327  0.00  0.00    +0.139 C 
BRANCH  12  13
ATOM     13  C   UNL     1       1.817   2.614  -7.737  0.00  0.00    +0.002 A 
ATOM     14  C   UNL     1       2.823   2.993  -8.618  0.00  0.00    +0.010 A 
ATOM     15  C   UNL     1       2.958   4.318  -9.008  0.00  0.00    +0.001 A 
ATOM     16  C   UNL     1       2.130   5.292  -8.540  0.00  0.00    +0.008 A 
ATOM     17  C   UNL     1       1.095   4.982  -7.642  0.00  0.00    -0.017 A 
ATOM     18  C   UNL     1       0.915   3.642  -7.221  0.00  0.00    -0.009 A 
ATOM     19  C   UNL     1      -0.116   3.329  -6.328  0.00  0.00    +0.009 A 
ATOM     20  C   UNL     1      -0.935   4.319  -5.871  0.00  0.00    +0.001 A 
ATOM     21  C   UNL     1      -0.761   5.638  -6.282  0.00  0.00    +0.001 A 
ATOM     22  C   UNL     1       0.231   5.977  -7.151  0.00  0.00    +0.008 A 
ENDBRANCH  12  13
ENDBRANCH   6  11
BRANCH   1  23
ATOM     23  S   UNL     1      -2.262  -3.338  -2.820  0.00  0.00    -0.075 S 
BRANCH  23  24
ATOM     24  C   UNL     1      -3.506  -2.462  -1.840  0.00  0.00    +0.174 C 
BRANCH  24  26
ATOM     25  N   UNL     1      -5.256  -3.024  -0.186  0.00  0.00    -0.240 N 
ATOM     26  C   UNL     1      -4.244  -3.445  -0.969  0.00  0.00    +0.234 C 
ATOM     27  O   UNL     1      -3.927  -4.616  -0.973  0.00  0.00    -0.274 OA
BRANCH  25  31
ATOM     28  C   UNL     1      -6.541   0.935  -0.388  0.00  0.00    +0.000 A 
ATOM     29  C   UNL     1      -7.160  -0.032  -1.159  0.00  0.00    +0.002 A 
ATOM     30  C   UNL     1      -6.736  -1.345  -1.095  0.00  0.00    +0.024 A 
ATOM     31  C   UNL     1      -5.688  -1.694  -0.254  0.00  0.00    +0.041 A 
ATOM     32  C   UNL     1      -5.072  -0.722   0.524  0.00  0.00    +0.024 A 
ATOM     33  C   UNL     1      -5.497   0.590   0.451  0.00  0.00    +0.002 A 
ENDBRANCH  25  31
BRANCH  25  34
ATOM     34  C   UNL     1      -5.877  -3.917   0.697  0.00  0.00    +0.041 A 
ATOM     35  C   UNL     1      -6.660  -4.952   0.203  0.00  0.00    +0.024 A 
ATOM     36  C   UNL     1      -7.267  -5.834   1.075  0.00  0.00    +0.002 A 
ATOM     37  C   UNL     1      -7.104  -5.681   2.440  0.00  0.00    +0.000 A 
ATOM     38  C   UNL     1      -6.329  -4.649   2.935  0.00  0.00    +0.002 A 
ATOM     39  C   UNL     1      -5.715  -3.766   2.068  0.00  0.00    +0.024 A 
ENDBRANCH  25  34
ENDBRANCH  24  26
ENDBRANCH  23  24
ENDBRANCH   1  23
TORSDOF 8
