REMARK  Name = ZINC14966633
REMARK  6 active torsions:
REMARK  status: ('A' for Active; 'I' for Inactive)
REMARK    1  A    between atoms: C_1  and  C_2
REMARK    2  A    between atoms: C_2  and  C_4
REMARK    3  A    between atoms: C_2  and  C_16
REMARK    4  A    between atoms: N_18  and  C_19
REMARK    5  A    between atoms: C_19  and  C_20
REMARK    6  A    between atoms: C_27  and  C_30
REMARK                            x       y       z     vdW  Elec       q    Type
REMARK                         _______ _______ _______ _____ _____    ______ ____
ROOT
ATOM      1  C   UNL     1       2.908  10.704   0.290  0.00  0.00    +0.195 C 
ATOM      2  C   UNL     1       2.629  12.203   0.555  0.00  0.00    +0.085 C 
ATOM      3  C   UNL     1       3.831  12.602   1.390  0.00  0.00    -0.000 A 
ATOM      4  C   UNL     1       4.356  13.832   1.724  0.00  0.00    +0.027 A 
ATOM      5  C   UNL     1       5.500  13.914   2.502  0.00  0.00    +0.042 A 
ATOM      6  C   UNL     1       6.116  12.758   2.944  0.00  0.00    +0.032 A 
ATOM      7  C   UNL     1       5.588  11.515   2.614  0.00  0.00    +0.025 A 
ATOM      8  C   UNL     1       4.428  11.430   1.830  0.00  0.00    +0.132 A 
ATOM      9  O   UNL     1       3.743  10.335   1.401  0.00  0.00    -0.486 OA
ATOM     10 CL   UNL     1       6.158  15.465   2.920  0.00  0.00    -0.084 Cl
ENDROOT
BRANCH   7  11
ATOM     11  C   UNL     1       6.253  10.277   3.092  0.00  0.00    -0.014 A 
ATOM     12  C   UNL     1       5.502   9.282   3.728  0.00  0.00    +0.010 A 
ATOM     13  C   UNL     1       6.098   8.138   4.173  0.00  0.00    +0.027 A 
ATOM     14  C   UNL     1       7.465   7.947   3.999  0.00  0.00    +0.046 A 
ATOM     15  C   UNL     1       8.231   8.940   3.361  0.00  0.00    +0.000 A 
ATOM     16  C   UNL     1       7.617  10.106   2.902  0.00  0.00    +0.018 A 
ATOM     17  C   UNL     1       9.607   8.439   3.337  0.00  0.00    +0.027 A 
ATOM     18  C   UNL     1       9.596   7.235   3.931  0.00  0.00    +0.083 A 
ATOM     19  N   UNL     1       8.326   6.924   4.332  0.00  0.00    -0.361 N 
ATOM     20  H   UNL     1       8.069   6.105   4.785  0.00  0.00    +0.165 HD
ENDBRANCH   7  11
BRANCH   1  21
ATOM     21  C   UNL     1       1.606   9.901   0.298  0.00  0.00    +0.149 C 
BRANCH  21  24
ATOM     22  C   UNL     1       0.914   7.569   0.153  0.00  0.00    +0.222 C 
ATOM     23  O   UNL     1      -0.239   7.936   0.246  0.00  0.00    -0.275 OA
ATOM     24  N   UNL     1       1.912   8.474   0.169  0.00  0.00    -0.311 N 
ATOM     25  H   UNL     1       2.834   8.180   0.095  0.00  0.00    +0.149 HD
BRANCH  22  27
ATOM     26  C   UNL     1       1.970   5.856  -1.296  0.00  0.00    +0.024 C 
ATOM     27  C   UNL     1       1.228   6.101   0.020  0.00  0.00    +0.123 C 
BRANCH  27  28
ATOM     28  C   UNL     1      -0.054   5.310   0.028  0.00  0.00    +0.081 A 
ATOM     29  C   UNL     1      -0.011   3.847   0.021  0.00  0.00    +0.011 A 
ATOM     30  C   UNL     1       1.197   3.146   0.007  0.00  0.00    +0.010 A 
ATOM     31  C   UNL     1       1.185   1.779   0.000  0.00  0.00    +0.001 A 
ATOM     32  C   UNL     1      -0.013   1.076   0.008  0.00  0.00    +0.001 A 
ATOM     33  C   UNL     1      -1.219   1.741   0.017  0.00  0.00    +0.014 A 
ATOM     34  C   UNL     1      -1.232   3.135   0.030  0.00  0.00    +0.050 A 
ATOM     35  C   UNL     1      -2.483   3.902   0.045  0.00  0.00    +0.272 A 
ATOM     36  O   UNL     1      -3.560   3.333   0.052  0.00  0.00    -0.266 OA
ATOM     37  N   UNL     1      -2.418   5.250   0.051  0.00  0.00    -0.242 N 
ATOM     38  H   UNL     1      -3.242   5.762   0.061  0.00  0.00    +0.192 HD
ATOM     39  N   UNL     1      -1.198   5.926   0.042  0.00  0.00    -0.175 NA
ENDBRANCH  27  28
ENDBRANCH  22  27
ENDBRANCH  21  24
ENDBRANCH   1  21
TORSDOF 5
