REMARK  Name = ZINC20530501
REMARK  10 active torsions:
REMARK  status: ('A' for Active; 'I' for Inactive)
REMARK    1  A    between atoms: C_1  and  C_2
REMARK    2  A    between atoms: C_2  and  C_3
REMARK    3  A    between atoms: N_9  and  C_10
REMARK    4  A    between atoms: C_10  and  C_11
REMARK    5  A    between atoms: C_14  and  C_16
REMARK    6  A    between atoms: C_16  and  N_17
REMARK    7  A    between atoms: C_18  and  C_20
REMARK    8  A    between atoms: C_20  and  C_21
REMARK    9  A    between atoms: C_21  and  C_22
REMARK   10  A    between atoms: C_34  and  C_37
REMARK                            x       y       z     vdW  Elec       q    Type
REMARK                         _______ _______ _______ _____ _____    ______ ____
ROOT
ATOM      1  N   UNL     1       1.355  -4.127  -0.669  0.00  0.00    -0.308 N 
ATOM      2  C   UNL     1       2.058  -5.275  -0.609  0.00  0.00    +0.214 C 
ATOM      3  O   UNL     1       2.108  -5.902   0.427  0.00  0.00    -0.276 OA
ATOM      4  H   UNL     1       1.310  -3.557  -1.609  0.00  0.00    +0.149 HD
ENDROOT
BRANCH   1   5
ATOM      5  C   UNL     1       0.650  -3.637   0.519  0.00  0.00    +0.178 C 
BRANCH   5   9
ATOM      6  C   UNL     1      -0.442  -0.204  -0.074  0.00  0.00    +0.089 A 
ATOM      7  C   UNL     1      -1.560  -0.851  -0.449  0.00  0.00    +0.043 A 
ATOM      8  C   UNL     1      -1.310  -2.232  -0.280  0.00  0.00    +0.046 A 
ATOM      9  C   UNL     1      -0.054  -2.346   0.189  0.00  0.00    +0.122 A 
ATOM     10  O   UNL     1       0.469  -1.115   0.306  0.00  0.00    -0.465 OA
BRANCH   6  11
ATOM     11  C   UNL     1      -0.244   1.290  -0.084  0.00  0.00    -0.003 C 
BRANCH  11  17
ATOM     12  C   UNL     1      -1.888   1.502   1.680  0.00  0.00    -0.068 C 
ATOM     13  C   UNL     1      -2.191   2.200   3.008  0.00  0.00    -0.015 C 
ATOM     14  C   UNL     1      -1.183   1.739   4.063  0.00  0.00    -0.003 C 
ATOM     15  C   UNL     1       0.234   2.048   3.574  0.00  0.00    -0.019 C 
ATOM     16  C   UNL     1       0.467   1.354   2.230  0.00  0.00    -0.078 C 
ATOM     17  N   UNL     1      -0.522   1.830   1.254  0.00  0.00    +0.386 N 
ATOM     18  H   UNL     1      -0.441   2.926   1.202  0.00  0.00    -0.081 HD
BRANCH  12  20
ATOM     19  C   UNL     1      -4.293   1.527   1.001  0.00  0.00    +0.002 C 
ATOM     20  C   UNL     1      -2.881   1.976   0.617  0.00  0.00    -0.019 C 
ENDBRANCH  12  20
ENDBRANCH  11  17
ENDBRANCH   6  11
ENDBRANCH   5   9
ENDBRANCH   1   5
BRANCH   2  21
ATOM     21  C   UNL     1       2.783  -5.778  -1.831  0.00  0.00    +0.103 C 
BRANCH  21  22
ATOM     22  C   UNL     1       3.498  -7.089  -1.496  0.00  0.00    +0.087 C 
BRANCH  22  23
ATOM     23  C   UNL     1       4.223  -7.593  -2.717  0.00  0.00    +0.156 A 
ATOM     24  N   UNL     1       3.735  -8.398  -3.628  0.00  0.00    -0.132 NA
ATOM     25  N   UNL     1       4.618  -8.626  -4.537  0.00  0.00    -0.128 NA
ATOM     26  C   UNL     1       5.730  -7.973  -4.239  0.00  0.00    +0.178 A 
ATOM     27  N   UNL     1       5.493  -7.299  -3.067  0.00  0.00    -0.195 N 
ATOM     28  N   UNL     1       6.496  -6.512  -2.497  0.00  0.00    -0.148 NA
ATOM     29  C   UNL     1       7.670  -6.409  -3.075  0.00  0.00    +0.142 A 
ATOM     30  C   UNL     1       7.945  -7.087  -4.279  0.00  0.00    +0.049 A 
ATOM     31  C   UNL     1       6.989  -7.861  -4.858  0.00  0.00    +0.053 A 
ATOM     32  N   UNL     1       8.655  -5.619  -2.491  0.00  0.00    -0.314 N 
ATOM     33  C   UNL     1       9.142  -4.603  -3.433  0.00  0.00    +0.107 C 
ATOM     34  C   UNL     1      10.320  -3.851  -2.811  0.00  0.00    +0.022 C 
ATOM     35  C   UNL     1       9.866  -3.189  -1.507  0.00  0.00    -0.011 C 
ATOM     36  C   UNL     1       9.319  -4.263  -0.562  0.00  0.00    +0.022 C 
ATOM     37  C   UNL     1       8.170  -5.003  -1.250  0.00  0.00    +0.107 C 
ATOM     38  C   UNL     1      11.055  -2.486  -0.849  0.00  0.00    +0.007 C 
ENDBRANCH  22  23
ENDBRANCH  21  22
ENDBRANCH   2  21
TORSDOF 8
