REMARK  Name = ZINC29975961
REMARK  7 active torsions:
REMARK  status: ('A' for Active; 'I' for Inactive)
REMARK    1  A    between atoms: C_1  and  S_2
REMARK    2  A    between atoms: S_2  and  C_3
REMARK    3  A    between atoms: C_3  and  C_4
REMARK    4  A    between atoms: C_4  and  C_5
REMARK    5  A    between atoms: C_5  and  C_7
REMARK    6  A    between atoms: C_5  and  N_17
REMARK    7  A    between atoms: C_18  and  C_20
REMARK                            x       y       z     vdW  Elec       q    Type
REMARK                         _______ _______ _______ _____ _____    ______ ____
ROOT
ATOM      1  C   UNL     1      -4.580   8.625   0.092  0.00  0.00    +0.140 C 
ENDROOT
BRANCH   1   2
ATOM      2  C   UNL     1      -5.948   8.394  -0.497  0.00  0.00    +0.129 A 
ATOM      3  N   UNL     1      -6.407   8.958  -1.646  0.00  0.00    -0.340 N 
ATOM      4  H   UNL     1      -5.763   9.641  -2.219  0.00  0.00    +0.167 HD
ATOM      5  C   UNL     1      -7.693   8.498  -1.844  0.00  0.00    +0.066 A 
ATOM      6  C   UNL     1      -8.657   8.710  -2.821  0.00  0.00    +0.028 A 
ATOM      7  C   UNL     1      -9.881   8.085  -2.720  0.00  0.00    +0.002 A 
ATOM      8  C   UNL     1     -10.157   7.247  -1.649  0.00  0.00    +0.002 A 
ATOM      9  C   UNL     1      -9.221   7.026  -0.678  0.00  0.00    +0.030 A 
ATOM     10  C   UNL     1      -7.973   7.649  -0.760  0.00  0.00    +0.089 A 
ATOM     11  N   UNL     1      -6.864   7.631   0.024  0.00  0.00    -0.231 NA
ENDBRANCH   1   2
BRANCH   1  12
ATOM     12  N   UNL     1      -3.824   7.370   0.078  0.00  0.00    -0.300 N 
ATOM     13  C   UNL     1      -2.477   7.396   0.065  0.00  0.00    +0.261 C 
ATOM     14  O   UNL     1      -1.888   8.461   0.066  0.00  0.00    -0.269 OA
ATOM     15  H   UNL     1      -4.356   6.408   0.078  0.00  0.00    +0.150 HD
BRANCH  13  16
ATOM     16  C   UNL     1      -1.718   6.136   0.051  0.00  0.00    +0.103 A 
ATOM     17  C   UNL     1      -0.363   6.033   0.038  0.00  0.00    +0.040 A 
ATOM     18  C   UNL     1      -0.035   4.656   0.027  0.00  0.00    +0.000 A 
ATOM     19  C   UNL     1       1.178   3.956   0.012  0.00  0.00    +0.011 A 
ATOM     20  C   UNL     1       1.175   2.592   0.005  0.00  0.00    +0.016 A 
ATOM     21  C   UNL     1      -0.024   1.887   0.012  0.00  0.00    +0.020 A 
ATOM     22  C   UNL     1      -1.230   2.553   0.022  0.00  0.00    +0.041 A 
ATOM     23  C   UNL     1      -1.251   3.945   0.035  0.00  0.00    +0.048 A 
ATOM     24  N   UNL     1      -2.268   4.869   0.050  0.00  0.00    -0.351 N 
ATOM     25  H   UNL     1      -3.361   4.745   0.060  0.00  0.00    +0.166 HD
ATOM     26 BR   UNL     1       0.002  -0.004   0.002  0.00  0.00    -0.050 Br
ENDBRANCH  13  16
ENDBRANCH   1  12
BRANCH   1  27
ATOM     27  C   UNL     1      -4.722   9.119   1.533  0.00  0.00    +0.041 C 
BRANCH  27  28
ATOM     28  C   UNL     1      -3.341   9.473   2.090  0.00  0.00    +0.071 C 
BRANCH  28  30
ATOM     29  C   UNL     1      -1.807  10.430   4.304  0.00  0.00    +0.084 C 
ATOM     30  S   UNL     1      -3.509  10.058   3.798  0.00  0.00    -0.164 S 
ENDBRANCH  28  30
ENDBRANCH  27  28
ENDBRANCH   1  27
TORSDOF 6
