REMARK  Name = ZINC64392176
REMARK  5 active torsions:
REMARK  status: ('A' for Active; 'I' for Inactive)
REMARK    1  A    between atoms: C_4  and  C_7
REMARK    2  A    between atoms: C_7  and  C_8
REMARK    3  A    between atoms: C_8  and  N_9
REMARK    4  A    between atoms: C_15  and  C_22
REMARK    5  A    between atoms: C_25  and  C_28
REMARK                            x       y       z     vdW  Elec       q    Type
REMARK                         _______ _______ _______ _____ _____    ______ ____
ROOT
ATOM      1  N   UNL     1       5.364  -1.760   1.742  0.00  0.00    -0.260 N 
ATOM      2  C   UNL     1       5.387  -3.110   1.730  0.00  0.00    +0.264 A 
ATOM      3  O   UNL     1       4.357  -3.752   1.804  0.00  0.00    -0.267 OA
ATOM      4  C   UNL     1       6.692  -3.786   1.625  0.00  0.00    +0.063 A 
ATOM      5  C   UNL     1       6.800  -5.174   1.607  0.00  0.00    +0.016 A 
ATOM      6  C   UNL     1       8.045  -5.758   1.506  0.00  0.00    +0.009 A 
ATOM      7  C   UNL     1       9.184  -4.972   1.425  0.00  0.00    +0.006 A 
ATOM      8  C   UNL     1       9.092  -3.595   1.443  0.00  0.00    +0.034 A 
ATOM      9  C   UNL     1       7.848  -2.990   1.543  0.00  0.00    +0.056 A 
ATOM     10  N   UNL     1       7.711  -1.609   1.563  0.00  0.00    -0.307 N 
ATOM     11  H   UNL     1       8.500  -1.047   1.507  0.00  0.00    +0.170 HD
ATOM     12  C   UNL     1       6.495  -1.043   1.656  0.00  0.00    +0.330 A 
ATOM     13  O   UNL     1       6.418   0.170   1.666  0.00  0.00    -0.246 OA
ENDROOT
BRANCH   7  14
ATOM     14  C   UNL     1      10.537  -5.628   1.317  0.00  0.00    +0.274 C 
ATOM     15  N   UNL     1      10.418  -6.931   0.652  0.00  0.00    -0.339 N 
ATOM     16  C   UNL     1      10.819  -7.854   1.471  0.00  0.00    +0.135 C 
ATOM     17  N   UNL     1      11.217  -7.321   2.672  0.00  0.00    -0.247 N 
ATOM     18  O   UNL     1      11.058  -5.910   2.625  0.00  0.00    -0.243 OA
ATOM     19  H   UNL     1      11.553  -7.825   3.429  0.00  0.00    +0.196 HD
ATOM     20  H   UNL     1      10.094  -7.078  -0.250  0.00  0.00    +0.164 HD
BRANCH  16  21
ATOM     21  C   UNL     1      10.844  -9.299   1.151  0.00  0.00    +0.035 A 
ATOM     22  C   UNL     1       9.680  -9.945   0.736  0.00  0.00    +0.013 A 
ATOM     23  C   UNL     1       9.709 -11.291   0.439  0.00  0.00    +0.001 A 
ATOM     24  C   UNL     1      10.891 -12.003   0.553  0.00  0.00    +0.001 A 
ATOM     25  C   UNL     1      12.049 -11.370   0.964  0.00  0.00    +0.021 A 
ATOM     26  C   UNL     1      12.034 -10.020   1.258  0.00  0.00    +0.052 A 
ATOM     27 CL   UNL     1      13.491  -9.224   1.767  0.00  0.00    -0.083 Cl
ENDBRANCH  16  21
ENDBRANCH   7  14
BRANCH   1  28
ATOM     28  C   UNL     1       4.079  -1.064   1.845  0.00  0.00    +0.134 C 
BRANCH  28  29
ATOM     29  C   UNL     1       3.518  -0.817   0.443  0.00  0.00    +0.057 C 
BRANCH  29  33
ATOM     30  C   UNL     1      -0.229   1.212   0.742  0.00  0.00    +0.000 A 
ATOM     31  C   UNL     1       0.945   1.938   0.653  0.00  0.00    +0.000 A 
ATOM     32  C   UNL     1       2.158   1.281   0.557  0.00  0.00    +0.004 A 
ATOM     33  C   UNL     1       2.197  -0.101   0.549  0.00  0.00    -0.046 A 
ATOM     34  C   UNL     1       1.023  -0.826   0.639  0.00  0.00    +0.004 A 
ATOM     35  C   UNL     1      -0.190  -0.169   0.734  0.00  0.00    +0.000 A 
ENDBRANCH  29  33
ENDBRANCH  28  29
ENDBRANCH   1  28
TORSDOF 5
