REMARK  Name = ZINC43426997
REMARK  2 active torsions:
REMARK  status: ('A' for Active; 'I' for Inactive)
REMARK    1  A    between atoms: C_3  and  N_9
REMARK    2  A    between atoms: C_6  and  C_7
REMARK                            x       y       z     vdW  Elec       q    Type
REMARK                         _______ _______ _______ _____ _____    ______ ____
ROOT
ATOM      1  N   UNL     1       3.607   1.909  -0.023  0.00  0.00    -0.306 N 
ATOM      2  C   UNL     1       4.838   1.104  -0.045  0.00  0.00    +0.135 C 
ATOM      3  C   UNL     1       5.727   1.651  -1.170  0.00  0.00    +0.179 C 
ATOM      4  O   UNL     1       5.925   3.047  -0.954  0.00  0.00    -0.373 OA
ATOM      5  C   UNL     1       4.749   3.853  -1.033  0.00  0.00    +0.139 C 
ATOM      6  C   UNL     1       3.700   3.365  -0.016  0.00  0.00    +0.104 C 
ATOM      7  C   UNL     1       4.208   3.878   1.341  0.00  0.00    +0.025 C 
ATOM      8  C   UNL     1       5.114   5.085   1.036  0.00  0.00    +0.004 C 
ATOM      9  C   UNL     1       5.115   5.260  -0.486  0.00  0.00    +0.033 C 
ENDROOT
BRANCH   1  12
ATOM     10  C   UNL     1      -0.007   1.366   0.214  0.00  0.00    +0.030 A 
ATOM     11  C   UNL     1       1.208   2.034   0.216  0.00  0.00    +0.047 A 
ATOM     12  C   UNL     1       2.363   1.287  -0.014  0.00  0.00    +0.144 A 
ATOM     13  N   UNL     1       2.270  -0.018  -0.223  0.00  0.00    -0.134 NA
ATOM     14  N   UNL     1       1.142  -0.630  -0.223  0.00  0.00    -0.151 NA
ATOM     15  C   UNL     1       0.001  -0.002  -0.015  0.00  0.00    +0.078 A 
BRANCH  15  16
ATOM     16  C   UNL     1      -1.295  -0.772  -0.026  0.00  0.00    +0.165 C 
ATOM     17 CL   UNL     1      -1.963  -0.799  -1.700  0.00  0.00    -0.119 Cl
ENDBRANCH  15  16
ENDBRANCH   1  12
TORSDOF 2
