REMARK  Name = ZINC35778700
REMARK  18 active torsions:
REMARK  status: ('A' for Active; 'I' for Inactive)
REMARK    1  A    between atoms: C_1  and  C_2
REMARK    2  A    between atoms: C_2  and  C_3
REMARK    3  A    between atoms: C_3  and  N_4
REMARK    4  A    between atoms: N_4  and  C_5
REMARK    5  A    between atoms: N_4  and  C_15
REMARK    6  A    between atoms: C_5  and  C_6
REMARK    7  A    between atoms: C_6  and  C_8
REMARK    8  A    between atoms: C_6  and  O_14
REMARK    9  A    between atoms: C_8  and  O_9
REMARK   10  A    between atoms: O_9  and  C_10
REMARK   11  A    between atoms: C_10  and  C_11
REMARK   12  A    between atoms: C_10  and  C_12
REMARK   13  A    between atoms: C_10  and  C_13
REMARK   14  A    between atoms: C_15  and  C_16
REMARK   15  A    between atoms: C_26  and  C_28
REMARK   16  A    between atoms: C_28  and  O_29
REMARK   17  A    between atoms: O_29  and  C_30
REMARK   18  A    between atoms: C_33  and  C_36
REMARK                            x       y       z     vdW  Elec       q    Type
REMARK                         _______ _______ _______ _____ _____    ______ ____
ROOT
ATOM      1  C   UNL     1      -2.996  -2.591  -1.602  0.00  0.00    +0.200 C 
ATOM      2  O   UNL     1      -2.331  -1.922  -2.365  0.00  0.00    -0.278 OA
ATOM      3  N   UNL     1      -4.147  -3.151  -2.025  0.00  0.00    -0.292 N 
ATOM      4  C   UNL     1      -4.964  -3.959  -1.107  0.00  0.00    +0.113 C 
ATOM      5  C   UNL     1      -6.305  -3.240  -0.894  0.00  0.00    +0.061 C 
ATOM      6  C   UNL     1      -6.793  -2.735  -2.214  0.00  0.00    -0.004 A 
ATOM      7  C   UNL     1      -6.083  -2.582  -3.365  0.00  0.00    -0.014 A 
ATOM      8  C   UNL     1      -6.775  -2.079  -4.465  0.00  0.00    +0.013 A 
ATOM      9  C   UNL     1      -8.089  -1.774  -4.356  0.00  0.00    +0.046 A 
ATOM     10  S   UNL     1      -8.423  -2.192  -2.651  0.00  0.00    -0.101 S 
ATOM     11  C   UNL     1      -4.607  -2.956  -3.407  0.00  0.00    +0.144 C 
ENDROOT
BRANCH   1  12
ATOM     12  C   UNL     1      -2.535  -2.798  -0.182  0.00  0.00    +0.019 C 
BRANCH  12  13
ATOM     13  N   UNL     1      -1.264  -2.092   0.027  0.00  0.00    +0.387 N 
ATOM     14  H   UNL     1      -0.593  -2.396  -0.662  0.00  0.00    -0.081 HD
BRANCH  13  15
ATOM     15  C   UNL     1      -1.480  -0.645  -0.105  0.00  0.00    -0.078 C 
BRANCH  15  17
ATOM     16  C   UNL     1      -2.723   1.322   0.804  0.00  0.00    +0.002 C 
ATOM     17  C   UNL     1      -2.450  -0.173   0.980  0.00  0.00    -0.022 C 
ENDBRANCH  15  17
ENDBRANCH  13  15
BRANCH  13  18
ATOM     18  C   UNL     1      -0.754  -2.390   1.372  0.00  0.00    -0.044 C 
BRANCH  18  19
ATOM     19  C   UNL     1       0.628  -1.757   1.545  0.00  0.00    +0.124 C 
BRANCH  19  20
ATOM     20  O   UNL     1       1.524  -2.295   0.570  0.00  0.00    -0.391 OA
ATOM     21  H   UNL     1       1.640  -3.253   0.628  0.00  0.00    +0.210 HD
ENDBRANCH  19  20
BRANCH  19  22
ATOM     22  C   UNL     1       1.158  -2.064   2.948  0.00  0.00    +0.189 C 
BRANCH  22  23
ATOM     23  O   UNL     1       2.394  -1.377   3.151  0.00  0.00    -0.372 OA
BRANCH  23  24
ATOM     24  C   UNL     1       2.977  -1.597   4.437  0.00  0.00    +0.061 C 
ATOM     25  C   UNL     1       3.253  -3.090   4.623  0.00  0.00    +0.041 C 
ATOM     26  C   UNL     1       4.289  -0.818   4.543  0.00  0.00    +0.041 C 
ATOM     27  C   UNL     1       2.011  -1.118   5.523  0.00  0.00    +0.041 C 
ENDBRANCH  23  24
ENDBRANCH  22  23
ENDBRANCH  19  22
ENDBRANCH  18  19
ENDBRANCH  13  18
ENDBRANCH  12  13
ENDBRANCH   1  12
BRANCH  11  28
ATOM     28  C   UNL     1      -4.427  -4.252  -4.199  0.00  0.00    +0.256 C 
BRANCH  28  29
ATOM     29  O   UNL     1      -5.281  -5.263  -3.660  0.00  0.00    -0.490 OA
BRANCH  29  30
ATOM     30  C   UNL     1      -5.243  -6.484  -4.254  0.00  0.00    +0.121 A 
ATOM     31  C   UNL     1      -4.397  -6.707  -5.331  0.00  0.00    +0.046 A 
ATOM     32  C   UNL     1      -4.361  -7.950  -5.933  0.00  0.00    +0.007 A 
ATOM     33  C   UNL     1      -5.166  -8.971  -5.464  0.00  0.00    -0.050 A 
ATOM     34  C   UNL     1      -6.010  -8.751  -4.391  0.00  0.00    +0.007 A 
ATOM     35  C   UNL     1      -6.046  -7.512  -3.781  0.00  0.00    +0.046 A 
ATOM     36  C   UNL     1      -5.124 -10.326  -6.122  0.00  0.00    +0.044 C 
ENDBRANCH  29  30
ENDBRANCH  28  29
ENDBRANCH  11  28
TORSDOF 13
