REMARK  Name = ZINC09505383
REMARK  11 active torsions:
REMARK  status: ('A' for Active; 'I' for Inactive)
REMARK    1  A    between atoms: C_1  and  C_2
REMARK    2  A    between atoms: C_2  and  C_3
REMARK    3  A    between atoms: C_3  and  N_62
REMARK    4  A    between atoms: C_9  and  N_16
REMARK    5  A    between atoms: C_10  and  C_11
REMARK    6  A    between atoms: C_11  and  O_13
REMARK    7  A    between atoms: O_13  and  C_14
REMARK    8  A    between atoms: C_14  and  C_15
REMARK    9  A    between atoms: C_17  and  C_19
REMARK   10  A    between atoms: N_24  and  S_25
REMARK   11  A    between atoms: S_25  and  C_28
REMARK                            x       y       z     vdW  Elec       q    Type
REMARK                         _______ _______ _______ _____ _____    ______ ____
ROOT
ATOM      1  C   UNL     1      -7.678  -1.458  -3.597  0.00  0.00    -0.074 C 
ATOM      2  C   UNL     1      -7.173  -1.079  -2.202  0.00  0.00    +0.018 C 
ATOM      3  C   UNL     1      -5.651  -1.170  -2.207  0.00  0.00    -0.025 A 
ATOM      4  C   UNL     1      -5.016  -1.859  -3.181  0.00  0.00    -0.021 A 
ATOM      5  S   UNL     1      -3.296  -1.699  -2.800  0.00  0.00    -0.079 S 
ATOM      6  C   UNL     1      -3.416  -0.732  -1.367  0.00  0.00    +0.086 A 
ATOM      7  C   UNL     1      -4.787  -0.560  -1.214  0.00  0.00    +0.091 A 
ATOM      8  C   UNL     1      -5.660  -2.588  -4.318  0.00  0.00    -0.035 C 
ATOM      9  N   UNL     1      -7.097  -2.757  -3.993  0.00  0.00    +0.383 N 
ATOM     10  H   UNL     1      -7.188  -3.416  -3.211  0.00  0.00    -0.081 HD
ENDROOT
BRANCH   6  11
ATOM     11  N   UNL     1      -2.393  -0.251  -0.564  0.00  0.00    -0.278 N 
ATOM     12  C   UNL     1      -1.110  -0.527  -0.870  0.00  0.00    +0.236 C 
ATOM     13  O   UNL     1      -0.850  -1.196  -1.848  0.00  0.00    -0.274 OA
ATOM     14  H   UNL     1      -2.601   0.285   0.217  0.00  0.00    +0.155 HD
BRANCH  12  15
ATOM     15  C   UNL     1       0.002  -0.004   0.002  0.00  0.00    +0.166 C 
ATOM     16  C   UNL     1      -0.019   1.539   0.011  0.00  0.00    +0.031 C 
ATOM     17  C   UNL     1       1.488   1.907  -0.002  0.00  0.00    +0.019 C 
ATOM     18  C   UNL     1       2.075   0.785  -0.895  0.00  0.00    +0.110 C 
ATOM     19  N   UNL     1       1.303  -0.420  -0.543  0.00  0.00    -0.164 NA
BRANCH  19  20
ATOM     20  S   UNL     1       1.815  -1.984  -0.730  0.00  0.00    +0.068 S 
ATOM     21  O   UNL     1       3.236  -1.947  -0.736  0.00  0.00    -0.152 OA
ATOM     22  O   UNL     1       1.078  -2.767   0.199  0.00  0.00    -0.152 OA
BRANCH  20  23
ATOM     23  C   UNL     1       1.318  -2.506  -2.337  0.00  0.00    +0.143 A 
ATOM     24  C   UNL     1       1.987  -2.408  -3.512  0.00  0.00    +0.036 A 
ATOM     25  C   UNL     1       1.396  -2.896  -4.662  0.00  0.00    +0.010 A 
ATOM     26  C   UNL     1       0.161  -3.448  -4.584  0.00  0.00    +0.047 A 
ATOM     27  S   UNL     1      -0.202  -3.296  -2.842  0.00  0.00    -0.077 S 
ENDBRANCH  20  23
ENDBRANCH  19  20
ENDBRANCH  12  15
ENDBRANCH   6  11
BRANCH   7  28
ATOM     28  C   UNL     1      -5.337   0.210  -0.096  0.00  0.00    +0.342 C 
ATOM     29  O   UNL     1      -5.521   1.407  -0.214  0.00  0.00    -0.245 OA
BRANCH  28  30
ATOM     30  O   UNL     1      -5.639  -0.408   1.064  0.00  0.00    -0.461 OA
BRANCH  30  31
ATOM     31  C   UNL     1      -6.181   0.418   2.129  0.00  0.00    +0.229 C 
ATOM     32  C   UNL     1      -6.460  -0.452   3.356  0.00  0.00    +0.048 C 
ENDBRANCH  30  31
ENDBRANCH  28  30
ENDBRANCH   7  28
BRANCH   9  33
ATOM     33  C   UNL     1      -7.820  -3.299  -5.163  0.00  0.00    -0.079 C 
BRANCH  33  35
ATOM     34  C   UNL     1      -8.553  -2.877  -7.515  0.00  0.00    +0.002 C 
ATOM     35  C   UNL     1      -7.797  -2.295  -6.318  0.00  0.00    -0.022 C 
ENDBRANCH  33  35
ENDBRANCH   9  33
TORSDOF 9
