REMARK  Name = ZINC09469492
REMARK  6 active torsions:
REMARK  status: ('A' for Active; 'I' for Inactive)
REMARK    1  A    between atoms: C_3  and  C_6
REMARK    2  A    between atoms: C_9  and  C_27
REMARK    3  A    between atoms: C_12  and  C_14
REMARK    4  A    between atoms: C_14  and  N_55
REMARK    5  A    between atoms: N_17  and  C_20
REMARK    6  A    between atoms: C_23  and  O_26
REMARK                            x       y       z     vdW  Elec       q    Type
REMARK                         _______ _______ _______ _____ _____    ______ ____
ROOT
ATOM      1  C   UNL     1      -1.670   7.250  -3.665  0.00  0.00    +0.143 C 
ATOM      2  C   UNL     1      -2.408   7.512  -4.992  0.00  0.00    +0.088 C 
ATOM      3  C   UNL     1      -2.863   6.139  -5.434  0.00  0.00    +0.075 C 
ATOM      4  N   UNL     1      -2.478   5.260  -4.570  0.00  0.00    -0.180 NA
ATOM      5  N   UNL     1      -1.770   5.792  -3.495  0.00  0.00    -0.186 N 
ATOM      6  C   UNL     1      -1.263   5.086  -2.464  0.00  0.00    +0.219 C 
ATOM      7  O   UNL     1      -0.661   5.655  -1.578  0.00  0.00    -0.276 OA
ENDROOT
BRANCH   1  10
ATOM      8  C   UNL     1       1.730   8.960  -3.485  0.00  0.00    +0.008 A 
ATOM      9  C   UNL     1       0.378   8.776  -3.264  0.00  0.00    +0.013 A 
ATOM     10  C   UNL     1      -0.228   7.674  -3.771  0.00  0.00    +0.013 A 
ATOM     11  S   UNL     1       1.126   6.859  -4.603  0.00  0.00    -0.100 S 
ATOM     12  C   UNL     1       2.408   8.039  -4.212  0.00  0.00    +0.045 A 
ENDBRANCH   1  10
BRANCH   3  13
ATOM     13  C   UNL     1      -3.622   5.851  -6.655  0.00  0.00    +0.035 A 
ATOM     14  C   UNL     1      -4.071   4.633  -7.136  0.00  0.00    +0.017 A 
ATOM     15  C   UNL     1      -4.775   4.617  -8.318  0.00  0.00    +0.008 A 
ATOM     16  C   UNL     1      -4.997   5.785  -8.976  0.00  0.00    +0.046 A 
ATOM     17  S   UNL     1      -4.202   6.978  -7.912  0.00  0.00    -0.095 S 
ENDBRANCH   3  13
BRANCH   6  18
ATOM     18  C   UNL     1      -1.445   3.591  -2.413  0.00  0.00    +0.021 C 
BRANCH  18  24
ATOM     19  C   UNL     1      -0.754   1.593  -1.231  0.00  0.00    -0.059 C 
ATOM     20  C   UNL     1      -0.013   1.086   0.008  0.00  0.00    +0.086 C 
ATOM     21  N   UNL     1      -0.701   1.560   1.216  0.00  0.00    -0.333 N 
ATOM     22  C   UNL     1      -0.754   3.029   1.247  0.00  0.00    +0.086 C 
ATOM     23  C   UNL     1      -1.495   3.536   0.008  0.00  0.00    -0.059 C 
ATOM     24  N   UNL     1      -0.780   3.071  -1.199  0.00  0.00    +0.387 N 
ATOM     25  H   UNL     1       0.185   3.421  -1.171  0.00  0.00    -0.081 HD
BRANCH  21  26
ATOM     26  C   UNL     1      -0.093   1.056   2.371  0.00  0.00    +0.030 A 
ATOM     27  C   UNL     1       1.010   0.219   2.266  0.00  0.00    +0.026 A 
ATOM     28  C   UNL     1       1.613  -0.274   3.406  0.00  0.00    +0.047 A 
ATOM     29  C   UNL     1       1.112   0.058   4.656  0.00  0.00    +0.117 A 
ATOM     30  C   UNL     1       0.006   0.889   4.762  0.00  0.00    +0.047 A 
ATOM     31  C   UNL     1      -0.595   1.387   3.623  0.00  0.00    +0.026 A 
BRANCH  29  32
ATOM     32  O   UNL     1       1.703  -0.432   5.778  0.00  0.00    -0.507 OA
ATOM     33  H   UNL     1       1.342  -1.278   6.076  0.00  0.00    +0.292 HD
ENDBRANCH  29  32
ENDBRANCH  21  26
ENDBRANCH  18  24
ENDBRANCH   6  18
TORSDOF 6
