REMARK  Name = ZINC12281532
REMARK  8 active torsions:
REMARK  status: ('A' for Active; 'I' for Inactive)
REMARK    1  A    between atoms: C_1  and  N_2
REMARK    2  A    between atoms: C_4  and  C_7
REMARK    3  A    between atoms: C_7  and  N_61
REMARK    4  A    between atoms: C_8  and  N_61
REMARK    5  A    between atoms: C_9  and  C_10
REMARK    6  A    between atoms: C_9  and  N_61
REMARK    7  A    between atoms: C_13  and  C_18
REMARK    8  A    between atoms: N_20  and  C_21
REMARK                            x       y       z     vdW  Elec       q    Type
REMARK                         _______ _______ _______ _____ _____    ______ ____
ROOT
ATOM      1  C   UNL     1      -2.429   9.957  -0.752  0.00  0.00    +0.003 A 
ATOM      2  C   UNL     1      -3.027   9.302  -1.780  0.00  0.00    +0.020 A 
ATOM      3  C   UNL     1      -2.934   7.914  -1.875  0.00  0.00    +0.020 A 
ATOM      4  C   UNL     1      -2.229   7.217  -0.896  0.00  0.00    +0.101 A 
ATOM      5  C   UNL     1      -1.621   7.946   0.159  0.00  0.00    +0.261 A 
ATOM      6  O   UNL     1      -0.994   7.360   1.024  0.00  0.00    -0.267 OA
ATOM      7  N   UNL     1      -1.737   9.287   0.199  0.00  0.00    -0.327 N 
ATOM      8  H   UNL     1      -1.320   9.780   0.922  0.00  0.00    +0.169 HD
ENDROOT
BRANCH   4   9
ATOM      9  C   UNL     1      -2.112   5.752  -0.958  0.00  0.00    +0.250 C 
ATOM     10  O   UNL     1      -2.539   5.148  -1.923  0.00  0.00    -0.270 OA
ATOM     11  N   UNL     1      -1.531   5.079   0.055  0.00  0.00    -0.306 N 
ATOM     12  H   UNL     1      -1.126   5.564   0.791  0.00  0.00    +0.150 HD
BRANCH  11  13
ATOM     13  C   UNL     1      -1.510   3.614   0.044  0.00  0.00    +0.036 C 
ATOM     14  C   UNL     1      -0.767   3.124  -1.200  0.00  0.00    +0.029 C 
ATOM     15  C   UNL     1      -0.745   1.594  -1.211  0.00  0.00    -0.008 C 
ATOM     16  C   UNL     1      -0.032   1.085   0.043  0.00  0.00    +0.007 C 
ATOM     17  C   UNL     1      -0.775   1.575   1.288  0.00  0.00    -0.008 C 
ATOM     18  C   UNL     1      -0.796   3.105   1.299  0.00  0.00    +0.029 C 
ATOM     19  C   UNL     1      -2.210   1.045   1.266  0.00  0.00    +0.007 C 
ATOM     20  C   UNL     1      -2.923   1.554   0.012  0.00  0.00    -0.008 C 
ATOM     21  C   UNL     1      -2.180   1.064  -1.232  0.00  0.00    +0.007 C 
ATOM     22  C   UNL     1      -2.945   3.084   0.024  0.00  0.00    +0.029 C 
ENDBRANCH  11  13
ENDBRANCH   4   9
BRANCH   1  23
ATOM     23  C   UNL     1      -2.536  11.458  -0.670  0.00  0.00    -0.025 C 
BRANCH  23  25
ATOM     24  C   UNL     1      -4.695  11.384   0.424  0.00  0.00    -0.095 C 
ATOM     25  N   UNL     1      -3.287  11.816   0.552  0.00  0.00    +0.384 N 
ATOM     26  H   UNL     1      -2.864  11.337   1.356  0.00  0.00    -0.081 HD
BRANCH  25  27
ATOM     27  C   UNL     1      -3.224  13.275   0.774  0.00  0.00    -0.040 C 
BRANCH  27  31
ATOM     28  C   UNL     1      -6.436  14.437   4.443  0.00  0.00    +0.172 C 
ATOM     29  N   UNL     1      -5.207  14.092   3.724  0.00  0.00    -0.274 N 
ATOM     30  C   UNL     1      -5.097  13.882   2.396  0.00  0.00    +0.109 A 
ATOM     31  C   UNL     1      -3.803  13.586   2.131  0.00  0.00    -0.026 A 
ATOM     32  C   UNL     1      -3.097  13.624   3.338  0.00  0.00    +0.136 A 
ATOM     33  N   UNL     1      -3.938  13.928   4.293  0.00  0.00    -0.180 NA
ENDBRANCH  27  31
ENDBRANCH  25  27
ENDBRANCH  23  25
ENDBRANCH   1  23
TORSDOF 6
