REMARK  Name = ZINC16486406
REMARK  15 active torsions:
REMARK  status: ('A' for Active; 'I' for Inactive)
REMARK    1  A    between atoms: C_1  and  C_2
REMARK    2  A    between atoms: C_2  and  C_4
REMARK    3  A    between atoms: C_2  and  C_31
REMARK    4  A    between atoms: C_4  and  C_5
REMARK    5  A    between atoms: N_7  and  C_8
REMARK    6  A    between atoms: N_7  and  C_12
REMARK    7  A    between atoms: C_8  and  C_9
REMARK    8  A    between atoms: C_9  and  O_10
REMARK    9  A    between atoms: O_10  and  C_11
REMARK   10  A    between atoms: C_12  and  C_13
REMARK   11  A    between atoms: C_23  and  C_25
REMARK   12  A    between atoms: C_31  and  C_32
REMARK   13  A    between atoms: C_32  and  C_33
REMARK   14  A    between atoms: C_32  and  C_34
REMARK   15  A    between atoms: C_32  and  C_35
REMARK                            x       y       z     vdW  Elec       q    Type
REMARK                         _______ _______ _______ _____ _____    ______ ____
ROOT
ATOM      1  C   UNL     1       0.558   3.691   2.872  0.00  0.00    +0.234 C 
ATOM      2  O   UNL     1       0.383   2.637   3.446  0.00  0.00    -0.274 OA
ATOM      3  N   UNL     1       0.003   4.821   3.353  0.00  0.00    -0.289 N 
ATOM      4  C   UNL     1       0.173   6.097   2.641  0.00  0.00    +0.114 C 
ATOM      5  C   UNL     1      -1.214   6.556   2.147  0.00  0.00    +0.062 C 
ATOM      6  C   UNL     1      -2.207   6.340   3.243  0.00  0.00    -0.003 A 
ATOM      7  C   UNL     1      -2.071   5.568   4.355  0.00  0.00    -0.012 A 
ATOM      8  C   UNL     1      -3.158   5.531   5.227  0.00  0.00    +0.013 A 
ATOM      9  C   UNL     1      -4.274   6.243   4.948  0.00  0.00    +0.046 A 
ATOM     10  S   UNL     1      -3.837   7.021   3.401  0.00  0.00    -0.101 S 
ATOM     11  C   UNL     1      -0.775   4.797   4.599  0.00  0.00    +0.137 C 
ENDROOT
BRANCH  11  12
ATOM     12  C   UNL     1      -1.091   3.373   4.976  0.00  0.00    -0.023 A 
ATOM     13  C   UNL     1      -1.918   2.612   4.171  0.00  0.00    +0.006 A 
ATOM     14  C   UNL     1      -2.204   1.304   4.515  0.00  0.00    +0.000 A 
ATOM     15  C   UNL     1      -1.670   0.759   5.668  0.00  0.00    +0.000 A 
ATOM     16  C   UNL     1      -0.847   1.522   6.475  0.00  0.00    +0.000 A 
ATOM     17  C   UNL     1      -0.558   2.829   6.129  0.00  0.00    +0.006 A 
ENDBRANCH  11  12
BRANCH   1  18
ATOM     18  C   UNL     1       1.397   3.737   1.621  0.00  0.00    +0.203 C 
BRANCH  18  21
ATOM     19  C   UNL     1       1.153   1.578   0.519  0.00  0.00    +0.216 C 
ATOM     20  O   UNL     1       0.098   1.964   0.062  0.00  0.00    -0.276 OA
ATOM     21  N   UNL     1       1.883   2.391   1.309  0.00  0.00    -0.290 N 
BRANCH  19  22
ATOM     22  C   UNL     1       1.652   0.193   0.197  0.00  0.00    +0.099 C 
BRANCH  22  24
ATOM     23  C   UNL     1       0.570   0.211  -2.055  0.00  0.00    +0.008 C 
ATOM     24  C   UNL     1       0.643  -0.515  -0.710  0.00  0.00    -0.005 C 
BRANCH  24  25
ATOM     25  C   UNL     1       1.087  -1.961  -0.935  0.00  0.00    +0.010 C 
BRANCH  25  26
ATOM     26  C   UNL     1       0.005  -2.711  -1.715  0.00  0.00    -0.037 C 
ATOM     27  C   UNL     1      -0.083  -2.147  -3.135  0.00  0.00    +0.010 C 
ATOM     28  C   UNL     1       0.360  -4.198  -1.778  0.00  0.00    +0.010 C 
ATOM     29  C   UNL     1      -1.343  -2.538  -1.012  0.00  0.00    +0.010 C 
ENDBRANCH  25  26
ENDBRANCH  24  25
ENDBRANCH  22  24
ENDBRANCH  19  22
BRANCH  21  30
ATOM     30  C   UNL     1       3.160   1.927   1.855  0.00  0.00    +0.136 C 
BRANCH  30  31
ATOM     31  C   UNL     1       4.289   2.281   0.884  0.00  0.00    +0.178 C 
BRANCH  31  32
ATOM     32  O   UNL     1       4.410   3.703   0.792  0.00  0.00    -0.381 OA
ATOM     33  C   UNL     1       5.441   4.142  -0.094  0.00  0.00    +0.194 C 
ENDBRANCH  31  32
ENDBRANCH  30  31
ENDBRANCH  21  30
ENDBRANCH  18  21
ENDBRANCH   1  18
TORSDOF 10
