REMARK  Name = ZINC14994470
REMARK  9 active torsions:
REMARK  status: ('A' for Active; 'I' for Inactive)
REMARK    1  A    between atoms: C_1  and  C_2
REMARK    2  A    between atoms: C_2  and  C_4
REMARK    3  A    between atoms: C_2  and  O_28
REMARK    4  A    between atoms: C_12  and  S_18
REMARK    5  A    between atoms: C_13  and  C_14
REMARK    6  A    between atoms: C_14  and  O_16
REMARK    7  A    between atoms: O_16  and  C_17
REMARK    8  A    between atoms: S_18  and  N_21
REMARK    9  A    between atoms: O_28  and  C_29
REMARK                            x       y       z     vdW  Elec       q    Type
REMARK                         _______ _______ _______ _____ _____    ______ ____
ROOT
ATOM      1  C   UNL     1       3.379   1.821   1.012  0.00  0.00    +0.256 C 
ATOM      2  O   UNL     1       4.427   1.210   0.991  0.00  0.00    -0.272 OA
ATOM      3  N   UNL     1       2.275   1.284   0.456  0.00  0.00    -0.293 N 
ATOM      4  C   UNL     1       2.332   0.012  -0.279  0.00  0.00    +0.113 C 
ATOM      5  C   UNL     1       1.500  -1.042   0.455  0.00  0.00    +0.056 C 
ATOM      6  C   UNL     1       0.142  -0.450   0.809  0.00  0.00    -0.018 A 
ATOM      7  C   UNL     1      -0.053   0.888   0.848  0.00  0.00    +0.013 A 
ATOM      8  S   UNL     1      -1.753   1.084   1.298  0.00  0.00    -0.071 S 
ATOM      9  C   UNL     1      -2.196  -0.585   1.438  0.00  0.00    +0.157 A 
ATOM     10  C   UNL     1      -1.028  -1.248   1.130  0.00  0.00    +0.096 A 
ATOM     11  C   UNL     1       0.963   1.953   0.561  0.00  0.00    +0.150 C 
ENDROOT
BRANCH   9  12
ATOM     12  S   UNL     1      -3.762  -1.269   1.866  0.00  0.00    +0.068 S 
ATOM     13  O   UNL     1      -4.736  -0.284   1.548  0.00  0.00    -0.152 OA
ATOM     14  O   UNL     1      -3.797  -2.579   1.316  0.00  0.00    -0.152 OA
BRANCH  12  15
ATOM     15  N   UNL     1      -3.787  -1.446   3.512  0.00  0.00    -0.176 NA
ATOM     16  C   UNL     1      -3.327  -2.693   4.138  0.00  0.00    +0.109 C 
ATOM     17  C   UNL     1      -2.260  -2.348   5.189  0.00  0.00    +0.017 C 
ATOM     18  C   UNL     1      -2.834  -1.325   6.173  0.00  0.00    +0.003 C 
ATOM     19  C   UNL     1      -3.203  -0.044   5.422  0.00  0.00    +0.017 C 
ATOM     20  C   UNL     1      -4.274  -0.360   4.374  0.00  0.00    +0.109 C 
ENDBRANCH  12  15
ENDBRANCH   9  12
BRANCH   1  22
ATOM     21  C   UNL     1       2.670   3.056   3.042  0.00  0.00    +0.062 C 
ATOM     22  C   UNL     1       3.313   3.181   1.659  0.00  0.00    +0.256 C 
BRANCH  22  23
ATOM     23  O   UNL     1       4.633   3.709   1.794  0.00  0.00    -0.480 OA
BRANCH  23  24
ATOM     24  C   UNL     1       4.753   5.061   1.860  0.00  0.00    +0.122 A 
ATOM     25  C   UNL     1       3.618   5.858   1.911  0.00  0.00    +0.045 A 
ATOM     26  C   UNL     1       3.742   7.231   1.984  0.00  0.00    +0.004 A 
ATOM     27  C   UNL     1       4.996   7.814   1.995  0.00  0.00    +0.000 A 
ATOM     28  C   UNL     1       6.129   7.023   1.939  0.00  0.00    +0.004 A 
ATOM     29  C   UNL     1       6.010   5.648   1.871  0.00  0.00    +0.045 A 
ENDBRANCH  23  24
ENDBRANCH  22  23
ENDBRANCH   1  22
BRANCH  10  30
ATOM     30  C   UNL     1      -0.967  -2.717   1.126  0.00  0.00    +0.342 C 
ATOM     31  O   UNL     1      -0.670  -3.316   2.141  0.00  0.00    -0.245 OA
BRANCH  30  32
ATOM     32  O   UNL     1      -1.242  -3.400  -0.003  0.00  0.00    -0.464 OA
ATOM     33  C   UNL     1      -1.163  -4.848   0.067  0.00  0.00    +0.280 C 
ENDBRANCH  30  32
ENDBRANCH  10  30
TORSDOF 7
