REMARK  Name = ZINC09374978
REMARK  13 active torsions:
REMARK  status: ('A' for Active; 'I' for Inactive)
REMARK    1  A    between atoms: C_1  and  C_2
REMARK    2  A    between atoms: C_2  and  N_65
REMARK    3  A    between atoms: C_3  and  C_4
REMARK    4  A    between atoms: C_3  and  N_65
REMARK    5  A    between atoms: C_5  and  C_6
REMARK    6  A    between atoms: C_5  and  N_65
REMARK    7  A    between atoms: C_6  and  N_7
REMARK    8  A    between atoms: C_8  and  C_31
REMARK    9  A    between atoms: C_11  and  C_12
REMARK   10  A    between atoms: C_11  and  O_26
REMARK   11  A    between atoms: C_15  and  O_18
REMARK   12  A    between atoms: O_18  and  C_19
REMARK   13  A    between atoms: C_19  and  C_20
REMARK                            x       y       z     vdW  Elec       q    Type
REMARK                         _______ _______ _______ _____ _____    ______ ____
ROOT
ATOM      1  N   UNL     1      11.528  -4.731   0.253  0.00  0.00    -0.285 N 
ATOM      2  C   UNL     1      11.091  -4.593  -1.140  0.00  0.00    +0.151 C 
ATOM      3  C   UNL     1       9.721  -3.957  -1.102  0.00  0.00    +0.072 C 
ATOM      4  C   UNL     1       8.925  -3.637  -2.185  0.00  0.00    +0.133 C 
ATOM      5  C   UNL     1       9.424  -3.750   0.253  0.00  0.00    +0.249 C 
ATOM      6  O   UNL     1       8.404  -3.250   0.692  0.00  0.00    -0.282 OA
ATOM      7  C   UNL     1      10.569  -4.249   1.061  0.00  0.00    +0.288 C 
ATOM      8  O   UNL     1      10.630  -4.221   2.273  0.00  0.00    -0.266 OA
ENDROOT
BRANCH   4   9
ATOM      9  C   UNL     1       7.556  -3.142  -1.971  0.00  0.00    +0.017 A 
ATOM     10  C   UNL     1       7.141  -1.945  -2.567  0.00  0.00    +0.015 A 
ATOM     11  C   UNL     1       5.860  -1.486  -2.364  0.00  0.00    +0.046 A 
ATOM     12  C   UNL     1       4.978  -2.208  -1.567  0.00  0.00    +0.121 A 
ATOM     13  C   UNL     1       5.387  -3.395  -0.968  0.00  0.00    +0.046 A 
ATOM     14  C   UNL     1       6.664  -3.865  -1.170  0.00  0.00    +0.015 A 
BRANCH  12  15
ATOM     15  O   UNL     1       3.716  -1.751  -1.370  0.00  0.00    -0.487 OA
BRANCH  15  16
ATOM     16  C   UNL     1       2.862  -2.542  -0.541  0.00  0.00    +0.264 C 
BRANCH  16  17
ATOM     17  C   UNL     1       1.511  -1.882  -0.437  0.00  0.00    -0.010 A 
ATOM     18  C   UNL     1       0.520  -2.187  -1.352  0.00  0.00    +0.007 A 
ATOM     19  C   UNL     1      -0.719  -1.582  -1.256  0.00  0.00    +0.000 A 
ATOM     20  C   UNL     1      -0.967  -0.671  -0.246  0.00  0.00    +0.000 A 
ATOM     21  C   UNL     1       0.023  -0.366   0.668  0.00  0.00    +0.000 A 
ATOM     22  C   UNL     1       1.262  -0.972   0.573  0.00  0.00    +0.007 A 
ENDBRANCH  16  17
ENDBRANCH  15  16
ENDBRANCH  12  15
ENDBRANCH   4   9
BRANCH   2  23
ATOM     23  C   UNL     1      12.050  -3.711  -1.896  0.00  0.00    +0.015 A 
ATOM     24  C   UNL     1      12.502  -3.834  -3.168  0.00  0.00    +0.013 A 
ATOM     25  C   UNL     1      13.386  -2.893  -3.660  0.00  0.00    +0.008 A 
ATOM     26  C   UNL     1      13.783  -1.878  -2.852  0.00  0.00    +0.045 A 
ATOM     27  S   UNL     1      12.891  -2.234  -1.347  0.00  0.00    -0.099 S 
ENDBRANCH   2  23
BRANCH   4  28
ATOM     28  O   UNL     1       9.402  -3.780  -3.440  0.00  0.00    -0.506 OA
ATOM     29  H   UNL     1       8.700  -3.506  -4.097  0.00  0.00    +0.292 HD
ENDBRANCH   4  28
BRANCH   1  30
ATOM     30  C   UNL     1      12.803  -5.303   0.692  0.00  0.00    +0.090 C 
BRANCH  30  31
ATOM     31  C   UNL     1      13.854  -4.194   0.784  0.00  0.00    -0.060 C 
BRANCH  31  32
ATOM     32  N   UNL     1      15.128  -4.783   1.249  0.00  0.00    +0.380 N 
ATOM     33  H   UNL     1      14.953  -5.326   2.102  0.00  0.00    -0.082 HD
BRANCH  32  35
ATOM     34  C   UNL     1      16.002  -4.897  -1.061  0.00  0.00    -0.017 C 
ATOM     35  C   UNL     1      15.677  -5.682   0.212  0.00  0.00    -0.082 C 
ENDBRANCH  32  35
BRANCH  32  36
ATOM     36  C   UNL     1      16.098  -3.710   1.553  0.00  0.00    -0.082 C 
ATOM     37  C   UNL     1      17.256  -4.308   2.355  0.00  0.00    -0.017 C 
ENDBRANCH  32  36
ENDBRANCH  31  32
ENDBRANCH  30  31
ENDBRANCH   1  30
TORSDOF 11
