REMARK  Name = ZINC64713651
REMARK  10 active torsions:
REMARK  status: ('A' for Active; 'I' for Inactive)
REMARK    1  A    between atoms: C_1  and  C_2
REMARK    2  A    between atoms: C_5  and  N_13
REMARK    3  A    between atoms: C_7  and  S_8
REMARK    4  A    between atoms: S_8  and  N_11
REMARK    5  A    between atoms: N_11  and  C_12
REMARK    6  A    between atoms: C_14  and  C_16
REMARK    7  A    between atoms: C_16  and  C_18
REMARK    8  A    between atoms: C_16  and  N_28
REMARK    9  A    between atoms: C_18  and  C_19
REMARK   10  A    between atoms: C_29  and  C_31
REMARK                            x       y       z     vdW  Elec       q    Type
REMARK                         _______ _______ _______ _____ _____    ______ ____
ROOT
ATOM      1  C   UNL     1      -0.981  -5.849  -1.807  0.00  0.00    +0.163 C 
ENDROOT
BRANCH   1   3
ATOM      2  N   UNL     1      -0.521  -3.836  -0.444  0.00  0.00    -0.284 N 
ATOM      3  C   UNL     1      -0.647  -4.386  -1.669  0.00  0.00    +0.238 C 
ATOM      4  O   UNL     1      -0.491  -3.703  -2.659  0.00  0.00    -0.273 OA
ATOM      5  H   UNL     1      -0.577  -4.396   0.346  0.00  0.00    +0.155 HD
BRANCH   2  10
ATOM      6  C   UNL     1       0.340   1.746   0.086  0.00  0.00    +0.046 C 
ATOM      7  C   UNL     1       0.111   0.263  -0.055  0.00  0.00    -0.024 A 
ATOM      8  C   UNL     1      -0.664  -0.407   0.875  0.00  0.00    +0.007 A 
ATOM      9  C   UNL     1      -0.875  -1.766   0.748  0.00  0.00    +0.023 A 
ATOM     10  C   UNL     1      -0.309  -2.459  -0.314  0.00  0.00    +0.035 A 
ATOM     11  C   UNL     1       0.468  -1.784  -1.245  0.00  0.00    +0.052 A 
ATOM     12  C   UNL     1       0.672  -0.423  -1.116  0.00  0.00    +0.110 A 
BRANCH  12  13
ATOM     13  S   UNL     1       1.652   0.436  -2.301  0.00  0.00    +0.058 S 
ATOM     14  O   UNL     1       2.111  -0.536  -3.230  0.00  0.00    -0.153 OA
ATOM     15  O   UNL     1       0.902   1.576  -2.699  0.00  0.00    -0.153 OA
BRANCH  13  16
ATOM     16  N   UNL     1       2.991   1.004  -1.509  0.00  0.00    -0.193 NA
ATOM     17  C   UNL     1       3.952   0.063  -0.928  0.00  0.00    +0.127 C 
ATOM     18  H   UNL     1       3.140   1.959  -1.431  0.00  0.00    +0.148 HD
ENDBRANCH  13  16
ENDBRANCH  12  13
ENDBRANCH   2  10
ENDBRANCH   1   3
BRANCH   1  19
ATOM     19  N   UNL     1      -0.602  -6.311  -3.145  0.00  0.00    -0.299 N 
ATOM     20  C   UNL     1      -1.157  -5.746  -4.235  0.00  0.00    +0.251 C 
ATOM     21  O   UNL     1      -1.972  -4.851  -4.109  0.00  0.00    -0.270 OA
ATOM     22  H   UNL     1       0.047  -7.024  -3.246  0.00  0.00    +0.150 HD
BRANCH  20  23
ATOM     23  C   UNL     1      -0.778  -6.209  -5.574  0.00  0.00    +0.074 A 
ATOM     24  C   UNL     1      -1.221  -5.763  -6.810  0.00  0.00    +0.021 A 
ATOM     25  C   UNL     1      -0.679  -6.398  -7.902  0.00  0.00    +0.008 A 
ATOM     26  C   UNL     1       0.226  -7.389  -7.707  0.00  0.00    +0.046 A 
ATOM     27  S   UNL     1       0.376  -7.486  -6.036  0.00  0.00    -0.092 S 
ENDBRANCH  20  23
ENDBRANCH   1  19
BRANCH   1  28
ATOM     28  C   UNL     1      -2.484  -6.050  -1.604  0.00  0.00    +0.065 C 
BRANCH  28  29
ATOM     29  C   UNL     1      -2.800  -7.524  -1.621  0.00  0.00    -0.039 C 
ATOM     30  C   UNL     1      -2.917  -8.342  -0.550  0.00  0.00    -0.001 A 
ATOM     31  C   UNL     1      -2.789  -8.115   0.894  0.00  0.00    +0.010 A 
ATOM     32  C   UNL     1      -2.965  -9.155   1.740  0.00  0.00    +0.001 A 
ATOM     33  C   UNL     1      -3.265 -10.442   1.273  0.00  0.00    +0.002 A 
ATOM     34  C   UNL     1      -3.399 -10.729  -0.039  0.00  0.00    +0.026 A 
ATOM     35  C   UNL     1      -3.235  -9.710  -1.018  0.00  0.00    +0.043 A 
ATOM     36  N   UNL     1      -3.312  -9.736  -2.326  0.00  0.00    -0.380 N 
ATOM     37  C   UNL     1      -3.056  -8.385  -2.837  0.00  0.00    +0.144 C 
ATOM     38  H   UNL     1      -3.509 -10.518  -2.866  0.00  0.00    +0.160 HD
ENDBRANCH  28  29
ENDBRANCH   1  28
TORSDOF 8
