REMARK  Name = ZINC11947704
REMARK  8 active torsions:
REMARK  status: ('A' for Active; 'I' for Inactive)
REMARK    1  A    between atoms: C_1  and  N_52
REMARK    2  A    between atoms: C_2  and  C_3
REMARK    3  A    between atoms: C_2  and  N_52
REMARK    4  A    between atoms: C_8  and  C_9
REMARK    5  A    between atoms: C_8  and  N_52
REMARK    6  A    between atoms: N_11  and  C_23
REMARK    7  A    between atoms: C_13  and  C_14
REMARK    8  A    between atoms: C_23  and  C_24
REMARK                            x       y       z     vdW  Elec       q    Type
REMARK                         _______ _______ _______ _____ _____    ______ ____
ROOT
ATOM      1  C   UNL     1       3.466   5.223  -3.213  0.00  0.00    -0.016 A 
ATOM      2  C   UNL     1       3.129   5.404  -1.919  0.00  0.00    +0.111 A 
ATOM      3  N   UNL     1       2.858   4.194  -1.384  0.00  0.00    -0.266 N 
ATOM      4  N   UNL     1       3.038   3.226  -2.381  0.00  0.00    -0.168 NA
ATOM      5  C   UNL     1       3.399   3.842  -3.489  0.00  0.00    +0.129 A 
ENDROOT
BRANCH   5   6
ATOM      6  C   UNL     1       3.690   3.198  -4.788  0.00  0.00    +0.156 A 
ATOM      7  C   UNL     1       4.269   1.984  -4.942  0.00  0.00    +0.060 A 
ATOM      8  C   UNL     1       4.357   1.756  -6.387  0.00  0.00    +0.021 A 
ATOM      9  C   UNL     1       4.843   0.717  -7.181  0.00  0.00    +0.011 A 
ATOM     10  C   UNL     1       4.776   0.816  -8.543  0.00  0.00    +0.001 A 
ATOM     11  C   UNL     1       4.227   1.942  -9.139  0.00  0.00    +0.004 A 
ATOM     12  C   UNL     1       3.741   2.979  -8.371  0.00  0.00    +0.047 A 
ATOM     13  C   UNL     1       3.800   2.900  -6.985  0.00  0.00    +0.136 A 
ATOM     14  O   UNL     1       3.412   3.729  -5.995  0.00  0.00    -0.453 OA
ENDBRANCH   5   6
BRANCH   1  15
ATOM     15  C   UNL     1       3.847   6.306  -4.191  0.00  0.00    -0.039 C 
BRANCH  15  17
ATOM     16  C   UNL     1       1.611   7.232  -4.251  0.00  0.00    -0.095 C 
ATOM     17  N   UNL     1       2.682   6.602  -5.051  0.00  0.00    +0.385 N 
ATOM     18  H   UNL     1       2.329   5.724  -5.449  0.00  0.00    -0.081 HD
BRANCH  17  19
ATOM     19  C   UNL     1       3.084   7.500  -6.154  0.00  0.00    -0.000 C 
BRANCH  19  20
ATOM     20  C   UNL     1       1.944   7.609  -7.133  0.00  0.00    +0.121 A 
ATOM     21  C   UNL     1       0.945   8.524  -7.117  0.00  0.00    +0.065 A 
ATOM     22  C   UNL     1       0.154   8.187  -8.239  0.00  0.00    +0.157 A 
ATOM     23  N   UNL     1       0.719   7.151  -8.789  0.00  0.00    -0.087 NA
ATOM     24  O   UNL     1       1.714   6.815  -8.189  0.00  0.00    -0.362 OA
ENDBRANCH  19  20
ENDBRANCH  17  19
ENDBRANCH  15  17
ENDBRANCH   1  15
BRANCH   3  25
ATOM     25  C   UNL     1       2.451   3.937  -0.001  0.00  0.00    +0.178 C 
BRANCH  25  26
ATOM     26  C   UNL     1       1.156   3.165   0.008  0.00  0.00    -0.026 A 
ATOM     27  C   UNL     1       1.175   1.783   0.000  0.00  0.00    +0.005 A 
ATOM     28  C   UNL     1      -0.013   1.076   0.008  0.00  0.00    +0.000 A 
ATOM     29  C   UNL     1      -1.219   1.751   0.017  0.00  0.00    +0.000 A 
ATOM     30  C   UNL     1      -1.238   3.133   0.030  0.00  0.00    +0.000 A 
ATOM     31  C   UNL     1      -0.050   3.840   0.023  0.00  0.00    +0.005 A 
ENDBRANCH  25  26
ENDBRANCH   3  25
TORSDOF 7
