REMARK  Name = ZINC09505820
REMARK  4 active torsions:
REMARK  status: ('A' for Active; 'I' for Inactive)
REMARK    1  A    between atoms: C_3  and  S_6
REMARK    2  A    between atoms: S_6  and  N_9
REMARK    3  A    between atoms: C_13  and  C_15
REMARK    4  A    between atoms: C_20  and  C_23
REMARK                            x       y       z     vdW  Elec       q    Type
REMARK                         _______ _______ _______ _____ _____    ______ ____
ROOT
ATOM      1  C   UNL     1      -5.919  -1.143   0.052  0.00  0.00    +0.238 C 
ATOM      2  O   UNL     1      -5.726  -2.340   0.044  0.00  0.00    -0.274 OA
ATOM      3  N   UNL     1      -4.874  -0.291   0.046  0.00  0.00    -0.263 N 
ATOM      4  C   UNL     1      -3.575  -0.785   0.032  0.00  0.00    +0.165 A 
ATOM      5  N   UNL     1      -2.431  -0.127   0.029  0.00  0.00    -0.225 NA
ATOM      6  C   UNL     1      -1.271  -0.765   0.010  0.00  0.00    +0.080 A 
ATOM      7  C   UNL     1      -1.257  -2.132   0.002  0.00  0.00    +0.076 A 
ATOM      8  S   UNL     1      -3.011  -2.481   0.017  0.00  0.00    -0.060 S 
ATOM      9  H   UNL     1      -5.029   0.666   0.052  0.00  0.00    +0.157 HD
ENDROOT
BRANCH   6  10
ATOM     10  C   UNL     1       0.002  -0.004   0.002  0.00  0.00    +0.002 A 
ATOM     11  C   UNL     1       1.221  -0.680  -0.013  0.00  0.00    +0.011 A 
ATOM     12  C   UNL     1       2.403   0.032  -0.021  0.00  0.00    +0.022 A 
ATOM     13  C   UNL     1       2.380   1.416  -0.013  0.00  0.00    +0.059 A 
ATOM     14  C   UNL     1       1.171   2.094   0.002  0.00  0.00    +0.060 A 
ATOM     15  C   UNL     1      -0.017   1.389   0.010  0.00  0.00    +0.031 A 
ATOM     16 CL   UNL     1       1.150   3.829   0.012  0.00  0.00    -0.082 Cl
ATOM     17 CL   UNL     1       3.870   2.307  -0.022  0.00  0.00    -0.082 Cl
ENDBRANCH   6  10
BRANCH   1  22
ATOM     18  N   UNL     1      -8.286  -1.721   0.071  0.00  0.00    -0.164 NA
ATOM     19  C   UNL     1      -9.143  -1.611  -1.124  0.00  0.00    +0.110 C 
ATOM     20  C   UNL     1      -8.304  -0.796  -2.140  0.00  0.00    +0.019 C 
ATOM     21  C   UNL     1      -7.589   0.219  -1.209  0.00  0.00    +0.031 C 
ATOM     22  C   UNL     1      -7.327  -0.607   0.068  0.00  0.00    +0.166 C 
BRANCH  18  23
ATOM     23  S   UNL     1      -8.388  -2.903   1.226  0.00  0.00    +0.068 S 
ATOM     24  O   UNL     1      -9.001  -4.025   0.606  0.00  0.00    -0.152 OA
ATOM     25  O   UNL     1      -7.111  -2.977   1.845  0.00  0.00    -0.152 OA
BRANCH  23  28
ATOM     26  C   UNL     1     -11.541  -1.957   3.601  0.00  0.00    +0.010 A 
ATOM     27  C   UNL     1     -10.856  -2.495   2.527  0.00  0.00    +0.036 A 
ATOM     28  C   UNL     1      -9.512  -2.333   2.457  0.00  0.00    +0.143 A 
ATOM     29  S   UNL     1      -9.178  -1.385   3.933  0.00  0.00    -0.077 S 
ATOM     30  C   UNL     1     -10.850  -1.275   4.546  0.00  0.00    +0.047 A 
ENDBRANCH  23  28
ENDBRANCH  18  23
ENDBRANCH   1  22
TORSDOF 4
