REMARK  Name = ZINC63874096
REMARK  9 active torsions:
REMARK  status: ('A' for Active; 'I' for Inactive)
REMARK    1  A    between atoms: C_7  and  C_10
REMARK    2  A    between atoms: C_10  and  C_11
REMARK    3  A    between atoms: C_11  and  C_12
REMARK    4  A    between atoms: C_12  and  O_14
REMARK    5  A    between atoms: O_14  and  C_15
REMARK    6  A    between atoms: C_15  and  C_16
REMARK    7  A    between atoms: N_18  and  C_19
REMARK    8  A    between atoms: C_23  and  S_25
REMARK    9  A    between atoms: S_25  and  N_28
REMARK                            x       y       z     vdW  Elec       q    Type
REMARK                         _______ _______ _______ _____ _____    ______ ____
ROOT
ATOM      1  C   UNL     1      -2.858  -8.934  -3.054  0.00  0.00    +0.255 C 
ATOM      2  O   UNL     1      -3.098 -10.111  -3.226  0.00  0.00    -0.272 OA
ATOM      3  N   UNL     1      -2.833  -8.091  -4.105  0.00  0.00    -0.283 N 
ATOM      4  H   UNL     1      -2.708  -7.140  -3.961  0.00  0.00    +0.155 HD
ENDROOT
BRANCH   3   5
ATOM      5  C   UNL     1      -2.987  -8.587  -5.404  0.00  0.00    +0.035 A 
ATOM      6  C   UNL     1      -2.292  -8.008  -6.458  0.00  0.00    +0.023 A 
ATOM      7  C   UNL     1      -2.446  -8.500  -7.739  0.00  0.00    +0.004 A 
ATOM      8  C   UNL     1      -3.293  -9.568  -7.973  0.00  0.00    +0.029 A 
ATOM      9  C   UNL     1      -3.987 -10.147  -6.927  0.00  0.00    +0.114 A 
ATOM     10  C   UNL     1      -3.832  -9.663  -5.642  0.00  0.00    +0.052 A 
BRANCH   9  11
ATOM     11  S   UNL     1      -5.065 -11.507  -7.231  0.00  0.00    +0.100 S 
ATOM     12  O   UNL     1      -6.014 -11.518  -6.173  0.00  0.00    -0.146 OA
ATOM     13  O   UNL     1      -5.449 -11.424  -8.597  0.00  0.00    -0.146 OA
BRANCH  11  14
ATOM     14  N   UNL     1      -4.166 -12.889  -7.075  0.00  0.00    -0.118 NA
ATOM     15  C   UNL     1      -4.720 -14.044  -7.249  0.00  0.00    +0.117 C 
ATOM     16  C   UNL     1      -6.202 -14.136  -7.605  0.00  0.00    +0.073 C 
ATOM     17  C   UNL     1      -6.292 -14.620  -9.036  0.00  0.00    +0.008 C 
ATOM     18  C   UNL     1      -6.311 -16.145  -9.163  0.00  0.00    +0.002 C 
ATOM     19  C   UNL     1      -5.303 -16.836  -8.244  0.00  0.00    +0.019 C 
ATOM     20  C   UNL     1      -3.956 -16.148  -8.211  0.00  0.00    +0.102 C 
ATOM     21  N   UNL     1      -4.006 -15.145  -7.125  0.00  0.00    -0.331 N 
ATOM     22  H   UNL     1      -3.505 -15.303  -6.310  0.00  0.00    +0.147 HD
ENDBRANCH  11  14
ENDBRANCH   9  11
ENDBRANCH   3   5
BRANCH   1  23
ATOM     23  C   UNL     1      -2.588  -8.415  -1.665  0.00  0.00    +0.328 C 
BRANCH  23  24
ATOM     24  O   UNL     1      -2.671  -9.493  -0.730  0.00  0.00    -0.455 OA
BRANCH  24  25
ATOM     25  C   UNL     1      -2.455  -9.197   0.561  0.00  0.00    +0.308 C 
ATOM     26  O   UNL     1      -2.204  -8.061   0.887  0.00  0.00    -0.251 OA
BRANCH  25  27
ATOM     27  C   UNL     1      -2.526 -10.281   1.605  0.00  0.00    +0.125 C 
BRANCH  27  28
ATOM     28  C   UNL     1      -2.243  -9.682   2.984  0.00  0.00    +0.044 C 
BRANCH  28  35
ATOM     29  C   UNL     1       0.964 -12.327   4.928  0.00  0.00    +0.001 A 
ATOM     30  C   UNL     1       0.452 -13.227   5.874  0.00  0.00    +0.002 A 
ATOM     31  C   UNL     1      -0.862 -13.299   6.176  0.00  0.00    +0.026 A 
ATOM     32  C   UNL     1      -1.796 -12.444   5.529  0.00  0.00    +0.043 A 
ATOM     33  N   UNL     1      -3.096 -12.324   5.646  0.00  0.00    -0.380 N 
ATOM     34  C   UNL     1      -3.554 -11.274   4.729  0.00  0.00    +0.144 C 
ATOM     35  C   UNL     1      -2.313 -10.766   4.028  0.00  0.00    -0.041 C 
ATOM     36  C   UNL     1      -1.281 -11.484   4.526  0.00  0.00    -0.001 A 
ATOM     37  C   UNL     1       0.162 -11.469   4.257  0.00  0.00    +0.010 A 
ATOM     38  H   UNL     1      -3.661 -12.844   6.239  0.00  0.00    +0.160 HD
ENDBRANCH  28  35
ENDBRANCH  27  28
ENDBRANCH  25  27
ENDBRANCH  24  25
ENDBRANCH  23  24
ENDBRANCH   1  23
TORSDOF 9
