REMARK  Name = ZINC43212154
REMARK  5 active torsions:
REMARK  status: ('A' for Active; 'I' for Inactive)
REMARK    1  A    between atoms: C_1  and  C_2
REMARK    2  A    between atoms: C_2  and  C_3
REMARK    3  A    between atoms: C_2  and  C_4
REMARK    4  A    between atoms: C_4  and  C_30
REMARK    5  A    between atoms: C_9  and  C_12
REMARK                            x       y       z     vdW  Elec       q    Type
REMARK                         _______ _______ _______ _____ _____    ______ ____
ROOT
ATOM      1  C   UNL     1       0.724  -0.573  -1.221  0.00  0.00    +0.050 C 
ATOM      2  C   UNL     1       0.604  -2.111  -1.249  0.00  0.00    +0.088 C 
ATOM      3  C   UNL     1       1.975  -2.607  -1.784  0.00  0.00    +0.078 C 
ATOM      4  C   UNL     1       2.786  -1.321  -2.046  0.00  0.00    -0.027 C 
ATOM      5  N   UNL     1       2.183  -0.310  -1.130  0.00  0.00    +0.396 N 
ATOM      6  C   UNL     1       2.554  -3.345  -0.597  0.00  0.00    +0.242 C 
ATOM      7  O   UNL     1       3.747  -3.959  -0.577  0.00  0.00    -0.273 OA
ATOM      8  N   UNL     1       1.724  -3.295   0.401  0.00  0.00    -0.145 NA
ATOM      9  C   UNL     1       0.573  -2.632   0.171  0.00  0.00    +0.242 C 
ATOM     10  O   UNL     1      -0.335  -2.473   0.961  0.00  0.00    -0.273 OA
ATOM     11  H   UNL     1       2.394   0.623  -1.453  0.00  0.00    -0.083 HD
ATOM     12  H   UNL     1       2.506  -0.438  -0.183  0.00  0.00    -0.083 HD
ENDROOT
BRANCH   4  13
ATOM     13  C   UNL     1       4.235  -1.533  -1.689  0.00  0.00    -0.060 A 
ATOM     14  C   UNL     1       4.638  -1.470  -0.367  0.00  0.00    +0.002 A 
ATOM     15  C   UNL     1       5.963  -1.662  -0.035  0.00  0.00    +0.009 A 
ATOM     16  C   UNL     1       6.902  -1.922  -1.034  0.00  0.00    -0.014 A 
ATOM     17  C   UNL     1       6.487  -1.984  -2.361  0.00  0.00    -0.035 A 
ATOM     18  C   UNL     1       5.160  -1.796  -2.684  0.00  0.00    +0.006 A 
ATOM     19  C   UNL     1       7.704  -2.276  -3.205  0.00  0.00    +0.071 C 
ATOM     20  C   UNL     1       8.863  -2.377  -2.244  0.00  0.00    -0.035 A 
ATOM     21  C   UNL     1       8.365  -2.164  -0.962  0.00  0.00    -0.014 A 
ATOM     22  C   UNL     1       9.237  -2.203   0.127  0.00  0.00    +0.009 A 
ATOM     23  C   UNL     1      10.579  -2.451  -0.074  0.00  0.00    +0.001 A 
ATOM     24  C   UNL     1      11.065  -2.661  -1.352  0.00  0.00    +0.000 A 
ATOM     25  C   UNL     1      10.206  -2.625  -2.436  0.00  0.00    +0.004 A 
ENDBRANCH   4  13
BRANCH   1  27
ATOM     26  C   UNL     1       0.224   1.508   0.068  0.00  0.00    +0.006 C 
ATOM     27  C   UNL     1       0.002  -0.004   0.002  0.00  0.00    -0.017 C 
ATOM     28  C   UNL     1      -1.496  -0.295  -0.108  0.00  0.00    +0.006 C 
ENDBRANCH   1  27
BRANCH   1  29
ATOM     29  C   UNL     1       0.161   0.023  -2.486  0.00  0.00    +0.346 C 
ATOM     30  O   UNL     1       0.882   0.666  -3.230  0.00  0.00    -0.248 OA
ATOM     31  O   UNL     1      -1.015  -0.137  -2.764  0.00  0.00    -0.248 OA
ENDBRANCH   1  29
TORSDOF 3
