REMARK  Name = ZINC36551802
REMARK  10 active torsions:
REMARK  status: ('A' for Active; 'I' for Inactive)
REMARK    1  A    between atoms: C_1  and  C_2
REMARK    2  A    between atoms: C_5  and  S_8
REMARK    3  A    between atoms: S_8  and  C_11
REMARK    4  A    between atoms: C_11  and  N_12
REMARK    5  A    between atoms: C_13  and  C_15
REMARK    6  A    between atoms: C_15  and  C_17
REMARK    7  A    between atoms: C_15  and  N_24
REMARK    8  A    between atoms: C_21  and  O_23
REMARK    9  A    between atoms: N_24  and  C_25
REMARK   10  A    between atoms: C_32  and  C_34
REMARK                            x       y       z     vdW  Elec       q    Type
REMARK                         _______ _______ _______ _____ _____    ______ ____
ROOT
ATOM      1  C   UNL     1       3.184  -4.647   3.759  0.00  0.00    +0.197 C 
ENDROOT
BRANCH   1   2
ATOM      2  C   UNL     1       2.503  -4.074   4.975  0.00  0.00    -0.014 A 
ATOM      3  C   UNL     1       1.623  -4.852   5.705  0.00  0.00    +0.006 A 
ATOM      4  C   UNL     1       0.997  -4.329   6.821  0.00  0.00    +0.004 A 
ATOM      5  C   UNL     1       1.249  -3.027   7.210  0.00  0.00    +0.045 A 
ATOM      6  C   UNL     1       2.131  -2.245   6.479  0.00  0.00    +0.117 A 
ATOM      7  C   UNL     1       2.763  -2.774   5.363  0.00  0.00    +0.051 A 
BRANCH   6   8
ATOM      8  O   UNL     1       2.380  -0.964   6.859  0.00  0.00    -0.507 OA
ATOM      9  H   UNL     1       3.120  -0.873   7.475  0.00  0.00    +0.292 HD
ENDBRANCH   6   8
ENDBRANCH   1   2
BRANCH   1  11
ATOM     10  N   UNL     1       2.538  -2.662   2.433  0.00  0.00    -0.294 N 
ATOM     11  C   UNL     1       2.621  -4.004   2.518  0.00  0.00    +0.240 C 
ATOM     12  O   UNL     1       2.242  -4.695   1.596  0.00  0.00    -0.273 OA
ATOM     13  H   UNL     1       2.841  -2.110   3.170  0.00  0.00    +0.150 HD
BRANCH  10  14
ATOM     14  C   UNL     1       1.991  -2.037   1.226  0.00  0.00    +0.278 C 
BRANCH  14  15
ATOM     15  S   UNL     1       0.226  -1.697   1.469  0.00  0.00    +0.013 S 
ATOM     16  O   UNL     1      -0.423  -2.840   2.010  0.00  0.00    -0.168 OA
ATOM     17  O   UNL     1      -0.306  -1.033   0.331  0.00  0.00    -0.168 OA
BRANCH  15  22
ATOM     18  C   UNL     1       0.029   2.415   5.880  0.00  0.00    +0.044 C 
ATOM     19  C   UNL     1       0.078   1.388   4.779  0.00  0.00    -0.050 A 
ATOM     20  C   UNL     1       0.158   1.793   3.459  0.00  0.00    +0.005 A 
ATOM     21  C   UNL     1       0.203   0.851   2.449  0.00  0.00    +0.027 A 
ATOM     22  C   UNL     1       0.169  -0.496   2.757  0.00  0.00    +0.090 A 
ATOM     23  C   UNL     1       0.090  -0.901   4.077  0.00  0.00    +0.027 A 
ATOM     24  C   UNL     1       0.049   0.041   5.088  0.00  0.00    +0.005 A 
ENDBRANCH  15  22
ENDBRANCH  14  15
ENDBRANCH  10  14
ENDBRANCH   1  11
BRANCH   1  25
ATOM     25  N   UNL     1       2.955  -6.093   3.707  0.00  0.00    -0.254 N 
ATOM     26  C   UNL     1       1.725  -6.571   3.433  0.00  0.00    +0.235 C 
ATOM     27  O   UNL     1       0.842  -5.813   3.091  0.00  0.00    -0.274 OA
BRANCH  25  28
ATOM     28  C   UNL     1       4.013  -6.979   3.942  0.00  0.00    +0.039 A 
ATOM     29  C   UNL     1       5.283  -6.687   3.463  0.00  0.00    +0.023 A 
ATOM     30  C   UNL     1       6.326  -7.562   3.697  0.00  0.00    +0.003 A 
ATOM     31  C   UNL     1       6.106  -8.729   4.407  0.00  0.00    +0.020 A 
ATOM     32  C   UNL     1       4.841  -9.022   4.885  0.00  0.00    +0.043 A 
ATOM     33  C   UNL     1       3.795  -8.147   4.660  0.00  0.00    +0.043 A 
ATOM     34 CL   UNL     1       4.569 -10.488   5.775  0.00  0.00    -0.083 Cl
ENDBRANCH  25  28
BRANCH  26  35
ATOM     35  C   UNL     1       1.446  -8.047   3.551  0.00  0.00    +0.204 C 
ATOM     36 CL   UNL     1       0.295  -8.547   2.257  0.00  0.00    -0.116 Cl
ENDBRANCH  26  35
ENDBRANCH   1  25
TORSDOF 9
