REMARK  Name = ZINC34896531
REMARK  10 active torsions:
REMARK  status: ('A' for Active; 'I' for Inactive)
REMARK    1  A    between atoms: C_1  and  C_2
REMARK    2  A    between atoms: C_7  and  N_12
REMARK    3  A    between atoms: C_9  and  C_11
REMARK    4  A    between atoms: C_13  and  C_15
REMARK    5  A    between atoms: C_15  and  N_16
REMARK    6  A    between atoms: N_19  and  S_22
REMARK    7  A    between atoms: S_22  and  C_25
REMARK    8  A    between atoms: C_28  and  C_31
REMARK    9  A    between atoms: C_31  and  C_32
REMARK   10  A    between atoms: C_31  and  C_33
REMARK                            x       y       z     vdW  Elec       q    Type
REMARK                         _______ _______ _______ _____ _____    ______ ____
ROOT
ATOM      1  N   UNL     1       3.330  -5.577   3.359  0.00  0.00    -0.291 NA
ATOM      2  C   UNL     1       2.251  -6.555   3.163  0.00  0.00    +0.102 C 
ATOM      3  C   UNL     1       2.852  -7.890   2.710  0.00  0.00    +0.125 C 
ATOM      4  N   UNL     1       3.885  -8.289   3.678  0.00  0.00    -0.174 NA
ATOM      5  C   UNL     1       4.925  -7.310   4.030  0.00  0.00    +0.125 C 
ATOM      6  C   UNL     1       4.242  -5.998   4.431  0.00  0.00    +0.102 C 
ENDROOT
BRANCH   4   7
ATOM      7  S   UNL     1       3.878  -9.802   4.353  0.00  0.00    +0.061 S 
ATOM      8  O   UNL     1       4.585  -9.701   5.582  0.00  0.00    -0.153 OA
ATOM      9  O   UNL     1       2.540 -10.273   4.279  0.00  0.00    -0.153 OA
BRANCH   7  10
ATOM     10  C   UNL     1       4.837 -10.844   3.304  0.00  0.00    +0.105 A 
ATOM     11  C   UNL     1       4.231 -11.523   2.264  0.00  0.00    +0.029 A 
ATOM     12  C   UNL     1       4.984 -12.341   1.442  0.00  0.00    +0.006 A 
ATOM     13  C   UNL     1       6.342 -12.479   1.659  0.00  0.00    -0.045 A 
ATOM     14  C   UNL     1       6.948 -11.799   2.699  0.00  0.00    +0.006 A 
ATOM     15  C   UNL     1       6.196 -10.978   3.519  0.00  0.00    +0.029 A 
BRANCH  13  16
ATOM     16  C   UNL     1       7.162 -13.372   0.764  0.00  0.00    +0.013 C 
ATOM     17  C   UNL     1       8.251 -12.544   0.079  0.00  0.00    +0.012 C 
ATOM     18  C   UNL     1       7.810 -14.476   1.600  0.00  0.00    +0.012 C 
ENDBRANCH  13  16
ENDBRANCH   7  10
ENDBRANCH   4   7
BRANCH   1  19
ATOM     19  C   UNL     1       2.785  -4.239   3.627  0.00  0.00    +0.180 C 
BRANCH  19  21
ATOM     20  N   UNL     1       1.471  -2.526   2.420  0.00  0.00    -0.311 N 
ATOM     21  C   UNL     1       2.056  -3.740   2.406  0.00  0.00    +0.227 C 
ATOM     22  O   UNL     1       1.996  -4.431   1.411  0.00  0.00    -0.274 OA
ATOM     23  H   UNL     1       1.520  -1.974   3.216  0.00  0.00    +0.149 HD
BRANCH  20  29
ATOM     24  C   UNL     1      -0.019   1.526   0.010  0.00  0.00    +0.008 C 
ATOM     25  C   UNL     1       0.002  -0.004   0.002  0.00  0.00    -0.009 C 
ATOM     26  C   UNL     1      -1.433  -0.534   0.013  0.00  0.00    +0.003 C 
ATOM     27  C   UNL     1      -1.413  -2.063   0.004  0.00  0.00    +0.002 C 
ATOM     28  C   UNL     1      -0.673  -2.570   1.244  0.00  0.00    +0.022 C 
ATOM     29  C   UNL     1       0.763  -2.041   1.233  0.00  0.00    +0.076 C 
ATOM     30  C   UNL     1       0.742  -0.511   1.242  0.00  0.00    +0.009 C 
ATOM     31  C   UNL     1       0.026  -0.018   2.500  0.00  0.00    +0.009 C 
ENDBRANCH  20  29
ENDBRANCH  19  21
ENDBRANCH   1  19
TORSDOF 6
