REMARK  Name = ZINC21230280
REMARK  8 active torsions:
REMARK  status: ('A' for Active; 'I' for Inactive)
REMARK    1  A    between atoms: C_1  and  C_2
REMARK    2  A    between atoms: C_2  and  C_3
REMARK    3  A    between atoms: C_3  and  O_4
REMARK    4  A    between atoms: O_4  and  C_5
REMARK    5  A    between atoms: C_10  and  C_11
REMARK    6  A    between atoms: C_16  and  C_21
REMARK    7  A    between atoms: C_26  and  O_27
REMARK    8  A    between atoms: O_27  and  C_28
REMARK                            x       y       z     vdW  Elec       q    Type
REMARK                         _______ _______ _______ _____ _____    ______ ____
ROOT
ATOM      1  C   UNL     1       0.715   9.575  -0.029  0.00  0.00    +0.139 C 
ATOM      2  C   UNL     1       0.772   8.067  -0.047  0.00  0.00    +0.037 C 
ATOM      3  C   UNL     1       0.728   7.263   1.029  0.00  0.00    +0.017 C 
ATOM      4  C   UNL     1       0.799   5.754   0.867  0.00  0.00    +0.060 C 
ATOM      5  C   UNL     1       0.141   5.339  -0.448  0.00  0.00    +0.035 C 
ATOM      6  C   UNL     1       0.896   6.034  -1.588  0.00  0.00    +0.088 C 
ATOM      7  C   UNL     1       0.869   7.513  -1.346  0.00  0.00    +0.163 C 
ATOM      8  O   UNL     1       0.933   8.264  -2.299  0.00  0.00    -0.292 OA
ATOM      9  N   UNL     1       0.632   7.693   2.313  0.00  0.00    -0.316 N 
ATOM     10  C   UNL     1      -0.255   8.664   2.762  0.00  0.00    +0.052 A 
ATOM     11  C   UNL     1      -1.271   8.381   3.659  0.00  0.00    +0.025 A 
ATOM     12  C   UNL     1      -2.090   9.406   4.102  0.00  0.00    +0.002 A 
ATOM     13  C   UNL     1      -1.893  10.700   3.654  0.00  0.00    +0.002 A 
ATOM     14  C   UNL     1      -0.889  10.981   2.743  0.00  0.00    +0.025 A 
ATOM     15  C   UNL     1      -0.082   9.954   2.282  0.00  0.00    +0.049 A 
ATOM     16  N   UNL     1       0.867  10.167   1.283  0.00  0.00    -0.331 N 
ATOM     17  H   UNL     1       1.289   7.267   3.086  0.00  0.00    +0.152 HD
ATOM     18  H   UNL     1       1.742  10.796   1.505  0.00  0.00    +0.147 HD
ENDROOT
BRANCH   1  24
ATOM     19  C   UNL     1      -0.767  11.285  -1.108  0.00  0.00    +0.126 A 
ATOM     20  C   UNL     1      -1.990  11.677  -1.633  0.00  0.00    +0.046 A 
ATOM     21  C   UNL     1      -3.054  10.796  -1.635  0.00  0.00    +0.004 A 
ATOM     22  C   UNL     1      -2.899   9.523  -1.119  0.00  0.00    +0.001 A 
ATOM     23  C   UNL     1      -1.681   9.128  -0.600  0.00  0.00    +0.009 A 
ATOM     24  C   UNL     1      -0.613  10.005  -0.596  0.00  0.00    +0.019 A 
BRANCH  19  25
ATOM     25  O   UNL     1       0.279  12.152  -1.100  0.00  0.00    -0.492 OA
BRANCH  25  26
ATOM     26  C   UNL     1       0.048  13.453  -1.644  0.00  0.00    +0.229 C 
BRANCH  26  28
ATOM     27  C   UNL     1       1.084  15.674  -2.131  0.00  0.00    +0.007 C 
ATOM     28  C   UNL     1       1.331  14.281  -1.549  0.00  0.00    +0.038 C 
ENDBRANCH  26  28
ENDBRANCH  25  26
ENDBRANCH  19  25
ENDBRANCH   1  24
BRANCH   5  29
ATOM     29  C   UNL     1       0.229   3.844  -0.615  0.00  0.00    -0.002 A 
ATOM     30  C   UNL     1       1.463   3.224  -0.656  0.00  0.00    +0.007 A 
ATOM     31  C   UNL     1       1.544   1.853  -0.809  0.00  0.00    +0.001 A 
ATOM     32  C   UNL     1       0.391   1.098  -0.920  0.00  0.00    +0.004 A 
ATOM     33  C   UNL     1      -0.845   1.713  -0.884  0.00  0.00    +0.046 A 
ATOM     34  C   UNL     1      -0.930   3.089  -0.726  0.00  0.00    +0.124 A 
BRANCH  34  35
ATOM     35  O   UNL     1      -2.145   3.696  -0.686  0.00  0.00    -0.495 OA
ATOM     36  C   UNL     1      -3.294   2.856  -0.806  0.00  0.00    +0.277 C 
ENDBRANCH  34  35
ENDBRANCH   5  29
TORSDOF 6
