REMARK  Name = ZINC37036586
REMARK  4 active torsions:
REMARK  status: ('A' for Active; 'I' for Inactive)
REMARK    1  A    between atoms: C_1  and  C_2
REMARK    2  A    between atoms: C_3  and  S_8
REMARK    3  A    between atoms: S_8  and  C_9
REMARK    4  A    between atoms: C_9  and  C_10
REMARK                            x       y       z     vdW  Elec       q    Type
REMARK                         _______ _______ _______ _____ _____    ______ ____
ROOT
ATOM      1  S   UNL     1      -0.012  -0.066  -2.829  0.00  0.00    -0.109 S 
ENDROOT
BRANCH   1   4
ATOM      2  C   UNL     1      -0.018   1.503   0.010  0.00  0.00    +0.067 C 
ATOM      3  C   UNL     1       0.002  -0.004   0.002  0.00  0.00    +0.061 A 
ATOM      4  C   UNL     1       0.005  -0.682  -1.178  0.00  0.00    +0.070 A 
ATOM      5  S   UNL     1       0.031  -2.370  -0.589  0.00  0.00    -0.046 S 
ATOM      6  C   UNL     1       0.035  -1.995   1.158  0.00  0.00    +0.157 A 
ATOM      7  N   UNL     1       0.022  -0.675   1.141  0.00  0.00    -0.229 NA
ATOM      8  N   UNL     1       0.052  -2.861   2.245  0.00  0.00    -0.337 N 
ATOM      9  H   UNL     1       0.065  -3.820   2.100  0.00  0.00    +0.144 HD
ATOM     10  H   UNL     1       0.052  -2.507   3.148  0.00  0.00    +0.144 HD
ENDBRANCH   1   4
BRANCH   1  11
ATOM     11  C   UNL     1       0.003  -1.562  -3.855  0.00  0.00    +0.149 C 
BRANCH  11  12
ATOM     12  C   UNL     1      -0.010  -1.173  -5.311  0.00  0.00    +0.119 A 
ATOM     13  C   UNL     1       1.120  -1.284  -6.038  0.00  0.00    +0.097 A 
ATOM     14  C   UNL     1       1.097  -0.915  -7.406  0.00  0.00    +0.232 A 
ATOM     15  O   UNL     1       2.100  -1.003  -8.097  0.00  0.00    -0.284 OA
ATOM     16  C   UNL     1      -0.128  -0.441  -7.952  0.00  0.00    +0.260 A 
ATOM     17  C   UNL     1      -1.213  -0.362  -7.151  0.00  0.00    +0.249 A 
ATOM     18  O   UNL     1      -1.144  -0.727  -5.863  0.00  0.00    -0.463 OA
ATOM     19  O   UNL     1      -0.206  -0.074  -9.260  0.00  0.00    -0.281 OA
ENDBRANCH  11  12
ENDBRANCH   1  11
TORSDOF 3
