REMARK  Name = ZINC12832945
REMARK  14 active torsions:
REMARK  status: ('A' for Active; 'I' for Inactive)
REMARK    1  A    between atoms: C_1  and  C_2
REMARK    2  A    between atoms: C_7  and  C_15
REMARK    3  A    between atoms: C_13  and  C_14
REMARK    4  A    between atoms: C_15  and  N_77
REMARK    5  A    between atoms: C_16  and  C_17
REMARK    6  A    between atoms: C_16  and  N_77
REMARK    7  A    between atoms: C_17  and  C_18
REMARK    8  A    between atoms: C_21  and  O_26
REMARK    9  A    between atoms: C_22  and  O_24
REMARK   10  A    between atoms: O_24  and  C_25
REMARK   11  A    between atoms: O_26  and  C_27
REMARK   12  A    between atoms: C_28  and  C_29
REMARK   13  A    between atoms: C_28  and  N_77
REMARK   14  A    between atoms: N_33  and  C_34
REMARK                            x       y       z     vdW  Elec       q    Type
REMARK                         _______ _______ _______ _____ _____    ______ ____
ROOT
ATOM      1  N   UNL     1      -0.658  -3.002  -2.010  0.00  0.00    +0.387 N 
ATOM      2  H   UNL     1      -1.396  -3.656  -1.723  0.00  0.00    -0.081 HD
ENDROOT
BRANCH   1   3
ATOM      3  C   UNL     1       0.295  -2.834  -0.894  0.00  0.00    -0.037 C 
BRANCH   3  10
ATOM      4  C   UNL     1      -3.692  -3.299   5.998  0.00  0.00    +0.044 C 
ATOM      5  C   UNL     1      -2.911  -3.442   4.718  0.00  0.00    -0.046 A 
ATOM      6  C   UNL     1      -2.458  -4.695   4.326  0.00  0.00    +0.004 A 
ATOM      7  C   UNL     1      -1.748  -4.846   3.169  0.00  0.00    +0.010 A 
ATOM      8  C   UNL     1      -1.475  -3.729   2.372  0.00  0.00    -0.001 A 
ATOM      9  C   UNL     1      -0.721  -3.857   1.123  0.00  0.00    +0.017 A 
ATOM     10  C   UNL     1      -0.481  -2.739   0.394  0.00  0.00    +0.001 A 
ATOM     11  C   UNL     1      -0.962  -1.487   0.835  0.00  0.00    +0.251 A 
ATOM     12  O   UNL     1      -0.739  -0.495   0.162  0.00  0.00    -0.268 OA
ATOM     13  N   UNL     1      -1.659  -1.361   1.978  0.00  0.00    -0.322 N 
ATOM     14  H   UNL     1      -1.974  -0.485   2.251  0.00  0.00    +0.169 HD
ATOM     15  C   UNL     1      -1.932  -2.458   2.766  0.00  0.00    +0.052 A 
ATOM     16  C   UNL     1      -2.653  -2.328   3.949  0.00  0.00    -0.024 A 
ATOM     17  C   UNL     1      -3.149  -0.975   4.387  0.00  0.00    +0.046 C 
ENDBRANCH   3  10
ENDBRANCH   1   3
BRANCH   1  18
ATOM     18  C   UNL     1       0.039  -3.554  -3.191  0.00  0.00    -0.073 C 
BRANCH  18  19
ATOM     19  C   UNL     1      -0.992  -4.235  -4.093  0.00  0.00    +0.017 C 
BRANCH  19  20
ATOM     20  C   UNL     1      -0.285  -4.936  -5.224  0.00  0.00    -0.045 A 
ATOM     21  C   UNL     1      -0.042  -4.264  -6.408  0.00  0.00    +0.007 A 
ATOM     22  C   UNL     1       0.612  -4.901  -7.446  0.00  0.00    +0.049 A 
ATOM     23  C   UNL     1       1.015  -6.220  -7.306  0.00  0.00    +0.161 A 
ATOM     24  C   UNL     1       0.766  -6.897  -6.117  0.00  0.00    +0.162 A 
ATOM     25  C   UNL     1       0.115  -6.252  -5.078  0.00  0.00    +0.053 A 
BRANCH  24  26
ATOM     26  O   UNL     1       1.160  -8.191  -5.974  0.00  0.00    -0.491 OA
ATOM     27  C   UNL     1       0.871  -8.824  -4.726  0.00  0.00    +0.277 C 
ENDBRANCH  24  26
BRANCH  23  28
ATOM     28  O   UNL     1       1.654  -6.849  -8.328  0.00  0.00    -0.491 OA
ATOM     29  C   UNL     1       1.876  -6.091  -9.519  0.00  0.00    +0.277 C 
ENDBRANCH  23  28
ENDBRANCH  19  20
ENDBRANCH  18  19
ENDBRANCH   1  18
BRANCH   1  30
ATOM     30  C   UNL     1      -1.274  -1.702  -2.349  0.00  0.00    +0.001 C 
BRANCH  30  31
ATOM     31  C   UNL     1      -2.540  -1.955  -3.126  0.00  0.00    +0.135 A 
ATOM     32  N   UNL     1      -2.694  -1.864  -4.424  0.00  0.00    -0.115 NA
ATOM     33  N   UNL     1      -3.917  -2.156  -4.702  0.00  0.00    -0.023 NA
ATOM     34  N   UNL     1      -4.547  -2.437  -3.615  0.00  0.00    -0.044 NA
ATOM     35  N   UNL     1      -3.734  -2.319  -2.620  0.00  0.00    -0.228 N 
BRANCH  35  36
ATOM     36  C   UNL     1      -4.048  -2.544  -1.207  0.00  0.00    +0.111 C 
ATOM     37  C   UNL     1      -5.055  -1.493  -0.735  0.00  0.00    +0.027 C 
ATOM     38  C   UNL     1      -5.384  -1.728   0.741  0.00  0.00    +0.002 C 
ATOM     39  C   UNL     1      -5.985  -3.125   0.913  0.00  0.00    +0.000 C 
ATOM     40  C   UNL     1      -4.978  -4.175   0.441  0.00  0.00    +0.002 C 
ATOM     41  C   UNL     1      -4.650  -3.940  -1.035  0.00  0.00    +0.027 C 
ENDBRANCH  35  36
ENDBRANCH  30  31
ENDBRANCH   1  30
TORSDOF 10
