REMARK  Name = ZINC63393821
REMARK  6 active torsions:
REMARK  status: ('A' for Active; 'I' for Inactive)
REMARK    1  A    between atoms: C_1  and  C_2
REMARK    2  A    between atoms: C_2  and  C_15
REMARK    3  A    between atoms: N_3  and  C_4
REMARK    4  A    between atoms: C_4  and  C_5
REMARK    5  A    between atoms: C_5  and  C_6
REMARK    6  A    between atoms: C_16  and  C_31
REMARK                            x       y       z     vdW  Elec       q    Type
REMARK                         _______ _______ _______ _____ _____    ______ ____
ROOT
ATOM      1  C   UNL     1      -0.033  -0.687  -1.293  0.00  0.00    +0.091 A 
ATOM      2  C   UNL     1       0.925  -1.484  -1.887  0.00  0.00    +0.150 A 
ATOM      3  N   UNL     1       0.429  -1.952  -3.051  0.00  0.00    -0.284 N 
ATOM      4  H   UNL     1       0.902  -2.537  -3.663  0.00  0.00    +0.187 HD
ATOM      5  N   UNL     1      -0.869  -1.469  -3.243  0.00  0.00    -0.194 N 
ATOM      6  C   UNL     1      -1.199  -0.694  -2.190  0.00  0.00    +0.283 A 
ATOM      7  O   UNL     1      -2.253  -0.111  -2.017  0.00  0.00    -0.265 OA
ATOM      8  C   UNL     1      -1.681  -1.744  -4.330  0.00  0.00    +0.196 A 
ATOM      9  N   UNL     1      -2.900  -1.322  -4.575  0.00  0.00    -0.221 NA
ATOM     10  C   UNL     1      -3.580  -1.673  -5.687  0.00  0.00    +0.081 A 
ATOM     11  C   UNL     1      -4.887  -1.292  -6.069  0.00  0.00    +0.029 A 
ATOM     12  C   UNL     1      -5.434  -1.743  -7.242  0.00  0.00    +0.002 A 
ATOM     13  C   UNL     1      -4.732  -2.584  -8.093  0.00  0.00    +0.001 A 
ATOM     14  C   UNL     1      -3.451  -2.978  -7.751  0.00  0.00    +0.017 A 
ATOM     15  C   UNL     1      -2.895  -2.531  -6.579  0.00  0.00    +0.041 A 
ATOM     16  S   UNL     1      -1.335  -2.759  -5.760  0.00  0.00    -0.048 S 
ENDROOT
BRANCH   2  17
ATOM     17  C   UNL     1       2.293  -1.781  -1.330  0.00  0.00    +0.434 C 
ATOM     18  F   UNL     1       2.410  -1.216  -0.056  0.00  0.00    -0.164 F 
ATOM     19  F   UNL     1       2.471  -3.166  -1.245  0.00  0.00    -0.164 F 
ATOM     20  F   UNL     1       3.268  -1.236  -2.173  0.00  0.00    -0.164 F 
ENDBRANCH   2  17
BRANCH   1  22
ATOM     21  C   UNL     1       0.307   1.513   0.004  0.00  0.00    +0.066 C 
ATOM     22  C   UNL     1       0.087   0.023  -0.013  0.00  0.00    +0.047 C 
ATOM     23  N   UNL     1       0.004  -0.633   1.103  0.00  0.00    -0.287 NA
BRANCH  23  24
ATOM     24  C   UNL     1       0.010   0.087   2.378  0.00  0.00    +0.146 C 
BRANCH  24  25
ATOM     25  C   UNL     1      -1.338  -0.102   3.077  0.00  0.00    +0.056 C 
BRANCH  25  26
ATOM     26  C   UNL     1      -1.332   0.639   4.389  0.00  0.00    -0.040 C 
ATOM     27  C   UNL     1      -1.801   1.886   4.621  0.00  0.00    -0.001 A 
ATOM     28  C   UNL     1      -2.432   2.888   3.753  0.00  0.00    +0.010 A 
ATOM     29  C   UNL     1      -2.803   4.076   4.284  0.00  0.00    +0.001 A 
ATOM     30  C   UNL     1      -2.600   4.373   5.639  0.00  0.00    +0.002 A 
ATOM     31  C   UNL     1      -2.026   3.504   6.498  0.00  0.00    +0.026 A 
ATOM     32  C   UNL     1      -1.598   2.224   6.048  0.00  0.00    +0.043 A 
ATOM     33  N   UNL     1      -1.026   1.225   6.674  0.00  0.00    -0.380 N 
ATOM     34  C   UNL     1      -0.806   0.136   5.715  0.00  0.00    +0.144 C 
ATOM     35  H   UNL     1      -0.790   1.207   7.615  0.00  0.00    +0.160 HD
ENDBRANCH  25  26
ENDBRANCH  24  25
ENDBRANCH  23  24
ENDBRANCH   1  22
TORSDOF 5
