REMARK  Name = ZINC49431394
REMARK  2 active torsions:
REMARK  status: ('A' for Active; 'I' for Inactive)
REMARK    1  A    between atoms: C_1  and  N_2
REMARK    2  A    between atoms: C_4  and  C_7
REMARK                            x       y       z     vdW  Elec       q    Type
REMARK                         _______ _______ _______ _____ _____    ______ ____
ROOT
ATOM      1  C   UNL     1       0.040  -3.294  -1.522  0.00  0.00    +0.250 C 
ATOM      2  O   UNL     1      -0.018  -3.177  -2.731  0.00  0.00    -0.270 OA
ATOM      3  N   UNL     1       0.161  -4.517  -0.969  0.00  0.00    -0.294 N 
ATOM      4  C   UNL     1       0.160  -4.622   0.463  0.00  0.00    +0.112 C 
ATOM      5  C   UNL     1       1.042  -5.722   0.970  0.00  0.00    +0.007 C 
ATOM      6  C   UNL     1       2.406  -5.742   0.301  0.00  0.00    +0.008 C 
ATOM      7  C   UNL     1       2.461  -6.549  -0.980  0.00  0.00    -0.009 C 
ATOM      8  C   UNL     1       1.853  -7.940  -0.779  0.00  0.00    +0.007 C 
ATOM      9  C   UNL     1       0.400  -7.740  -0.340  0.00  0.00    -0.009 C 
ATOM     10  C   UNL     1       0.402  -7.080   1.039  0.00  0.00    +0.008 C 
ATOM     11  C   UNL     1      -0.371  -6.899  -1.331  0.00  0.00    +0.026 C 
ATOM     12  C   UNL     1       0.280  -5.666  -1.850  0.00  0.00    +0.077 C 
ATOM     13  C   UNL     1       1.752  -5.885  -2.151  0.00  0.00    +0.026 C 
ENDROOT
BRANCH   1  17
ATOM     14  C   UNL     1      -0.871  -0.243   2.328  0.00  0.00    +0.172 C 
ATOM     15  N   UNL     1      -0.425  -0.763   1.033  0.00  0.00    -0.274 N 
ATOM     16  C   UNL     1      -0.576  -2.026   0.601  0.00  0.00    +0.121 A 
ATOM     17  C   UNL     1      -0.022  -2.099  -0.662  0.00  0.00    +0.074 A 
ATOM     18  C   UNL     1       0.473  -0.813  -0.975  0.00  0.00    +0.147 A 
ATOM     19  N   UNL     1       0.223  -0.027   0.035  0.00  0.00    -0.179 NA
ENDBRANCH   1  17
TORSDOF 1
