REMARK  Name = ZINC59785353
REMARK  5 active torsions:
REMARK  status: ('A' for Active; 'I' for Inactive)
REMARK    1  A    between atoms: C_3  and  C_6
REMARK    2  A    between atoms: C_6  and  N_7
REMARK    3  A    between atoms: N_7  and  C_8
REMARK    4  A    between atoms: C_16  and  C_18
REMARK    5  A    between atoms: C_22  and  N_24
REMARK                            x       y       z     vdW  Elec       q    Type
REMARK                         _______ _______ _______ _____ _____    ______ ____
ROOT
ATOM      1  N   UNL     1       3.520   0.626   1.112  0.00  0.00    -0.257 N 
ATOM      2  C   UNL     1       3.753   1.670   1.932  0.00  0.00    +0.251 C 
ATOM      3  O   UNL     1       4.060   2.751   1.467  0.00  0.00    -0.270 OA
ENDROOT
BRANCH   1   4
ATOM      4  C   UNL     1       3.285  -0.646   1.649  0.00  0.00    +0.072 A 
ATOM      5  C   UNL     1       4.279  -1.615   1.600  0.00  0.00    +0.029 A 
ATOM      6  C   UNL     1       4.045  -2.869   2.130  0.00  0.00    +0.040 A 
ATOM      7  C   UNL     1       2.822  -3.163   2.708  0.00  0.00    +0.126 A 
ATOM      8  C   UNL     1       1.829  -2.199   2.758  0.00  0.00    +0.078 A 
ATOM      9  C   UNL     1       2.059  -0.940   2.235  0.00  0.00    +0.147 A 
ATOM     10  F   UNL     1       1.093   0.002   2.289  0.00  0.00    -0.203 F 
ATOM     11  F   UNL     1       2.597  -4.391   3.224  0.00  0.00    -0.205 F 
ENDBRANCH   1   4
BRANCH   2  12
ATOM     12  C   UNL     1       3.636   1.502   3.395  0.00  0.00    +0.039 A 
ATOM     13  C   UNL     1       3.949   0.276   3.986  0.00  0.00    +0.014 A 
ATOM     14  C   UNL     1       3.838   0.124   5.352  0.00  0.00    +0.023 A 
ATOM     15  C   UNL     1       3.417   1.185   6.138  0.00  0.00    +0.071 A 
ATOM     16  C   UNL     1       3.106   2.403   5.557  0.00  0.00    +0.145 A 
ATOM     17  C   UNL     1       3.219   2.569   4.192  0.00  0.00    +0.047 A 
ATOM     18 CL   UNL     1       3.279   0.986   7.856  0.00  0.00    -0.081 Cl
BRANCH  16  19
ATOM     19  N   UNL     1       2.657   3.532   6.403  0.00  0.00    +0.058 N 
ATOM     20  O   UNL     1       2.385   4.596   5.897  0.00  0.00    -0.126 OA
ATOM     21  O   UNL     1       2.561   3.389   7.600  0.00  0.00    -0.126 OA
ENDBRANCH  16  19
ENDBRANCH   2  12
BRANCH   1  22
ATOM     22  C   UNL     1       3.512   0.822  -0.340  0.00  0.00    +0.188 C 
BRANCH  22  25
ATOM     23  C   UNL     1       0.387   2.489  -1.359  0.00  0.00    +0.041 A 
ATOM     24  C   UNL     1       1.736   2.537  -0.939  0.00  0.00    +0.046 A 
ATOM     25  C   UNL     1       2.139   1.263  -0.779  0.00  0.00    +0.122 A 
ATOM     26  O   UNL     1       1.112   0.452  -1.079  0.00  0.00    -0.466 OA
ATOM     27  C   UNL     1       0.046   1.190  -1.431  0.00  0.00    +0.195 A 
ENDBRANCH  22  25
ENDBRANCH   1  22
TORSDOF 5
