REMARK  Name = ZINC21237634
REMARK  7 active torsions:
REMARK  status: ('A' for Active; 'I' for Inactive)
REMARK    1  A    between atoms: C_1  and  C_2
REMARK    2  A    between atoms: C_2  and  N_3
REMARK    3  A    between atoms: N_3  and  C_4
REMARK    4  A    between atoms: C_12  and  C_14
REMARK    5  A    between atoms: C_14  and  S_15
REMARK    6  A    between atoms: S_15  and  C_16
REMARK    7  A    between atoms: C_26  and  C_30
REMARK                            x       y       z     vdW  Elec       q    Type
REMARK                         _______ _______ _______ _____ _____    ______ ____
ROOT
ATOM      1  C   UNL     1      -2.873  -3.281   2.335  0.00  0.00    +0.191 A 
ATOM      2  N   UNL     1      -3.380  -2.650   1.283  0.00  0.00    -0.207 NA
ATOM      3  C   UNL     1      -4.465  -3.079   0.662  0.00  0.00    +0.129 A 
ATOM      4  C   UNL     1      -5.123  -4.248   1.139  0.00  0.00    +0.051 A 
ATOM      5  C   UNL     1      -6.329  -4.896   0.618  0.00  0.00    -0.025 A 
ATOM      6  C   UNL     1      -6.751  -6.005   1.257  0.00  0.00    -0.004 A 
ATOM      7  S   UNL     1      -5.589  -6.253   2.572  0.00  0.00    -0.073 S 
ATOM      8  C   UNL     1      -4.533  -4.862   2.261  0.00  0.00    +0.115 A 
ATOM      9  N   UNL     1      -3.443  -4.375   2.823  0.00  0.00    -0.214 NA
ATOM     10  C   UNL     1      -7.947  -6.845   0.924  0.00  0.00    +0.046 C 
ATOM     11  C   UNL     1      -8.845  -6.050  -0.035  0.00  0.00    -0.009 C 
ATOM     12  C   UNL     1      -7.976  -5.467  -1.153  0.00  0.00    +0.008 C 
ATOM     13  C   UNL     1      -7.086  -4.357  -0.592  0.00  0.00    +0.037 C 
ATOM     14  C   UNL     1      -9.904  -6.976  -0.638  0.00  0.00    +0.008 C 
ATOM     15  N   UNL     1      -4.960  -2.397  -0.435  0.00  0.00    -0.343 N 
ATOM     16  H   UNL     1      -5.863  -2.760  -0.947  0.00  0.00    +0.144 HD
ATOM     17  H   UNL     1      -4.449  -1.492  -0.796  0.00  0.00    +0.144 HD
ENDROOT
BRANCH   1  18
ATOM     18  S   UNL     1      -1.418  -2.650   3.103  0.00  0.00    -0.077 S 
BRANCH  18  19
ATOM     19  C   UNL     1      -1.107  -1.210   2.051  0.00  0.00    +0.173 C 
BRANCH  19  21
ATOM     20  N   UNL     1       0.555   0.616   1.898  0.00  0.00    -0.296 N 
ATOM     21  C   UNL     1       0.128  -0.493   2.534  0.00  0.00    +0.226 C 
ATOM     22  O   UNL     1       0.737  -0.913   3.494  0.00  0.00    -0.275 OA
BRANCH  20  23
ATOM     23  C   UNL     1       1.755   1.314   2.367  0.00  0.00    +0.098 C 
ATOM     24  C   UNL     1       2.957   0.356   2.336  0.00  0.00    +0.046 C 
ATOM     25  C   UNL     1       4.142   0.971   3.119  0.00  0.00    +0.168 C 
ATOM     26  S   UNL     1       3.297   2.038   4.356  0.00  0.00    -0.029 S 
ATOM     27  O   UNL     1       3.658   3.393   4.121  0.00  0.00    -0.174 OA
ATOM     28  O   UNL     1       3.480   1.479   5.650  0.00  0.00    -0.174 OA
ATOM     29  C   UNL     1       1.548   1.785   3.835  0.00  0.00    +0.188 C 
ENDBRANCH  20  23
BRANCH  20  31
ATOM     30  C   UNL     1       0.375   0.489  -0.538  0.00  0.00    +0.024 C 
ATOM     31  C   UNL     1      -0.181   1.125   0.737  0.00  0.00    +0.105 C 
ENDBRANCH  20  31
ENDBRANCH  19  21
ENDBRANCH  18  19
ENDBRANCH   1  18
TORSDOF 5
