REMARK  Name = ZINC09013879
REMARK  10 active torsions:
REMARK  status: ('A' for Active; 'I' for Inactive)
REMARK    1  A    between atoms: C_1  and  C_2
REMARK    2  A    between atoms: C_2  and  O_3
REMARK    3  A    between atoms: O_3  and  C_4
REMARK    4  A    between atoms: C_7  and  N_10
REMARK    5  A    between atoms: C_13  and  C_19
REMARK    6  A    between atoms: C_14  and  O_18
REMARK    7  A    between atoms: C_16  and  S_17
REMARK    8  A    between atoms: C_26  and  O_27
REMARK    9  A    between atoms: O_27  and  C_28
REMARK   10  A    between atoms: C_34  and  N_59
REMARK                            x       y       z     vdW  Elec       q    Type
REMARK                         _______ _______ _______ _____ _____    ______ ____
ROOT
ATOM      1  N   UNL     1       1.863   3.079   0.450  0.00  0.00    -0.256 N 
ATOM      2  C   UNL     1       3.174   3.155   0.759  0.00  0.00    +0.265 A 
ATOM      3  O   UNL     1       3.631   4.157   1.288  0.00  0.00    -0.267 OA
ATOM      4  C   UNL     1       4.003   2.067   0.461  0.00  0.00    +0.070 A 
ATOM      5  C   UNL     1       3.446   0.950  -0.139  0.00  0.00    +0.222 A 
ATOM      6  N   UNL     1       2.140   0.927  -0.418  0.00  0.00    -0.188 NA
ATOM      7  C   UNL     1       1.364   1.956  -0.141  0.00  0.00    +0.177 A 
ENDROOT
BRANCH   4   8
ATOM      8  C   UNL     1       5.473   2.109   0.789  0.00  0.00    +0.007 C 
ATOM      9  C   UNL     1       5.647   2.198   2.283  0.00  0.00    -0.008 A 
ATOM     10  C   UNL     1       6.577   3.036   2.859  0.00  0.00    -0.040 A 
ATOM     11  C   UNL     1       6.708   3.082   4.239  0.00  0.00    +0.053 A 
ATOM     12  C   UNL     1       5.909   2.292   5.048  0.00  0.00    +0.170 A 
ATOM     13  C   UNL     1       4.968   1.446   4.471  0.00  0.00    +0.208 A 
ATOM     14  C   UNL     1       4.839   1.402   3.090  0.00  0.00    +0.167 A 
ATOM     15  O   UNL     1       4.311   0.779   5.467  0.00  0.00    -0.449 OA
ATOM     16  C   UNL     1       5.140   0.922   6.636  0.00  0.00    +0.467 C 
ATOM     17  O   UNL     1       5.845   2.156   6.405  0.00  0.00    -0.452 OA
ATOM     18  C   UNL     1       7.469   3.919   2.025  0.00  0.00    +0.017 C 
ATOM     19  C   UNL     1       7.476   3.433   0.575  0.00  0.00    -0.073 C 
ATOM     20  C   UNL     1       6.005   3.147  -1.330  0.00  0.00    -0.095 C 
ATOM     21  N   UNL     1       6.071   3.289   0.142  0.00  0.00    +0.386 N 
ATOM     22  H   UNL     1       5.546   4.127   0.421  0.00  0.00    -0.081 HD
BRANCH  14  23
ATOM     23  O   UNL     1       3.919   0.577   2.523  0.00  0.00    -0.491 OA
ATOM     24  C   UNL     1       4.300  -0.788   2.334  0.00  0.00    +0.277 C 
ENDBRANCH  14  23
ENDBRANCH   4   8
BRANCH   1  28
ATOM     25  C   UNL     1      -0.668   6.282   1.307  0.00  0.00    +0.121 A 
ATOM     26  C   UNL     1      -0.552   5.231   2.204  0.00  0.00    +0.047 A 
ATOM     27  C   UNL     1       0.286   4.170   1.921  0.00  0.00    +0.030 A 
ATOM     28  C   UNL     1       1.012   4.156   0.738  0.00  0.00    +0.052 A 
ATOM     29  C   UNL     1       0.899   5.210  -0.158  0.00  0.00    +0.030 A 
ATOM     30  C   UNL     1       0.057   6.268   0.124  0.00  0.00    +0.047 A 
BRANCH  25  31
ATOM     31  O   UNL     1      -1.492   7.326   1.586  0.00  0.00    -0.492 OA
BRANCH  31  33
ATOM     32  C   UNL     1      -2.534   9.452   1.102  0.00  0.00    +0.048 C 
ATOM     33  C   UNL     1      -1.563   8.374   0.617  0.00  0.00    +0.225 C 
ENDBRANCH  31  33
ENDBRANCH  25  31
ENDBRANCH   1  28
BRANCH   7  34
ATOM     34  S   UNL     1      -0.351   1.876  -0.535  0.00  0.00    -0.105 S 
ATOM     35  H   UNL     1      -0.411   0.588  -1.106  0.00  0.00    +0.110 HD
ENDBRANCH   7  34
BRANCH   5  36
ATOM     36  O   UNL     1       4.223  -0.118  -0.438  0.00  0.00    -0.492 OA
ATOM     37  H   UNL     1       3.744  -0.848  -0.855  0.00  0.00    +0.294 HD
ENDBRANCH   5  36
TORSDOF 7
