REMARK  Name = ZINC39673928
REMARK  6 active torsions:
REMARK  status: ('A' for Active; 'I' for Inactive)
REMARK    1  A    between atoms: C_1  and  C_2
REMARK    2  A    between atoms: C_4  and  C_12
REMARK    3  A    between atoms: C_12  and  C_13
REMARK    4  A    between atoms: C_13  and  N_14
REMARK    5  A    between atoms: C_15  and  C_17
REMARK    6  A    between atoms: C_28  and  C_30
REMARK                            x       y       z     vdW  Elec       q    Type
REMARK                         _______ _______ _______ _____ _____    ______ ____
ROOT
ATOM      1  C   UNL     1      -5.346   3.406   4.231  0.00  0.00    +0.100 C 
ATOM      2  C   UNL     1      -6.673   3.268   3.453  0.00  0.00    +0.121 C 
ATOM      3  N   UNL     1      -7.642   4.090   4.215  0.00  0.00    -0.296 N 
ATOM      4  C   UNL     1      -6.866   5.284   4.630  0.00  0.00    +0.115 C 
ATOM      5  C   UNL     1      -5.476   4.731   5.001  0.00  0.00    -0.004 C 
ATOM      6  C   UNL     1      -4.387   5.706   4.564  0.00  0.00    -0.010 C 
ATOM      7  C   UNL     1      -4.501   6.994   5.384  0.00  0.00    -0.082 C 
ATOM      8  N   UNL     1      -4.361   6.681   6.812  0.00  0.00    +0.379 N 
ATOM      9  C   UNL     1      -5.465   5.817   7.246  0.00  0.00    -0.082 C 
ATOM     10  C   UNL     1      -5.392   4.480   6.504  0.00  0.00    -0.010 C 
ATOM     11  C   UNL     1      -8.935   3.815   4.474  0.00  0.00    +0.249 C 
ATOM     12  O   UNL     1      -9.631   4.638   5.037  0.00  0.00    -0.270 OA
ATOM     13  H   UNL     1      -3.484   6.207   6.966  0.00  0.00    -0.086 HD
ATOM     14  H   UNL     1      -4.375   7.537   7.345  0.00  0.00    -0.086 HD
ENDROOT
BRANCH  11  15
ATOM     15  C   UNL     1      -9.508   2.514   4.074  0.00  0.00    +0.072 A 
ATOM     16  C   UNL     1      -9.085   1.893   2.897  0.00  0.00    +0.016 A 
ATOM     17  C   UNL     1      -9.623   0.678   2.529  0.00  0.00    +0.001 A 
ATOM     18  C   UNL     1     -10.582   0.072   3.322  0.00  0.00    +0.003 A 
ATOM     19  C   UNL     1     -11.008   0.679   4.489  0.00  0.00    +0.039 A 
ATOM     20  C   UNL     1     -10.473   1.895   4.875  0.00  0.00    +0.135 A 
ATOM     21  F   UNL     1     -10.885   2.485   6.018  0.00  0.00    -0.205 F 
ENDBRANCH  11  15
BRANCH   1  23
ATOM     22  N   UNL     1      -2.971   3.016   3.660  0.00  0.00    -0.315 N 
ATOM     23  C   UNL     1      -4.181   3.467   3.276  0.00  0.00    +0.218 C 
ATOM     24  O   UNL     1      -4.334   3.921   2.163  0.00  0.00    -0.275 OA
ATOM     25  H   UNL     1      -2.849   2.652   4.551  0.00  0.00    +0.149 HD
BRANCH  22  26
ATOM     26  C   UNL     1      -1.839   3.075   2.732  0.00  0.00    +0.109 C 
BRANCH  26  27
ATOM     27  C   UNL     1      -0.592   2.504   3.411  0.00  0.00    +0.056 C 
BRANCH  27  31
ATOM     28  C   UNL     1       1.402   4.863   3.106  0.00  0.00    +0.063 C 
ATOM     29  C   UNL     1       1.439   3.580   2.317  0.00  0.00    +0.017 A 
ATOM     30  H   UNL     1       3.083   3.860   1.070  0.00  0.00    +0.166 HD
ATOM     31  C   UNL     1       0.572   2.564   2.456  0.00  0.00    -0.018 A 
ATOM     32  C   UNL     1       0.973   1.526   1.504  0.00  0.00    +0.003 A 
ATOM     33  C   UNL     1       0.476   0.262   1.180  0.00  0.00    +0.010 A 
ATOM     34  C   UNL     1       1.093  -0.483   0.215  0.00  0.00    +0.001 A 
ATOM     35  C   UNL     1       2.211   0.006  -0.446  0.00  0.00    +0.002 A 
ATOM     36  C   UNL     1       2.718   1.251  -0.143  0.00  0.00    +0.026 A 
ATOM     37  C   UNL     1       2.105   2.027   0.836  0.00  0.00    +0.047 A 
ATOM     38  N   UNL     1       2.359   3.279   1.350  0.00  0.00    -0.358 N 
ENDBRANCH  27  31
ENDBRANCH  26  27
ENDBRANCH  22  26
ENDBRANCH   1  23
TORSDOF 5
