REMARK  Name = ZINC63456351
REMARK  12 active torsions:
REMARK  status: ('A' for Active; 'I' for Inactive)
REMARK    1  A    between atoms: C_1  and  C_2
REMARK    2  A    between atoms: C_2  and  C_3
REMARK    3  A    between atoms: C_2  and  N_4
REMARK    4  A    between atoms: N_4  and  C_5
REMARK    5  A    between atoms: C_5  and  C_6
REMARK    6  A    between atoms: C_5  and  C_7
REMARK    7  A    between atoms: C_8  and  C_10
REMARK    8  A    between atoms: C_10  and  O_11
REMARK    9  A    between atoms: O_11  and  N_12
REMARK   10  A    between atoms: C_13  and  C_14
REMARK   11  A    between atoms: C_15  and  N_25
REMARK   12  A    between atoms: N_21  and  C_24
REMARK                            x       y       z     vdW  Elec       q    Type
REMARK                         _______ _______ _______ _____ _____    ______ ____
ROOT
ATOM      1  N   UNL     1      -4.315  -2.620  -4.184  0.00  0.00    -0.068 NA
ATOM      2  C   UNL     1      -4.338  -2.995  -5.432  0.00  0.00    +0.169 C 
ATOM      3  N   UNL     1      -5.482  -3.566  -5.963  0.00  0.00    -0.340 N 
ATOM      4  H   UNL     1      -6.289  -3.621  -5.428  0.00  0.00    +0.144 HD
ATOM      5  H   UNL     1      -5.476  -3.911  -6.870  0.00  0.00    +0.144 HD
ENDROOT
BRANCH   2   6
ATOM      6  C   UNL     1      -3.144  -2.811  -6.279  0.00  0.00    +0.098 C 
ATOM      7  C   UNL     1      -2.598  -1.605  -6.629  0.00  0.00    +0.041 C 
ATOM      8  C   UNL     1      -1.409  -1.924  -7.489  0.00  0.00    +0.076 C 
ATOM      9  C   UNL     1      -0.117  -1.329  -6.903  0.00  0.00    +0.032 C 
ATOM     10  C   UNL     1       0.828  -1.209  -8.119  0.00  0.00    +0.003 C 
ATOM     11  C   UNL     1      -0.067  -1.167  -9.371  0.00  0.00    +0.003 C 
ATOM     12  C   UNL     1      -1.527  -1.264  -8.874  0.00  0.00    +0.032 C 
ATOM     13  N   UNL     1      -1.332  -3.375  -7.593  0.00  0.00    -0.289 N 
ATOM     14  C   UNL     1      -2.351  -3.888  -6.874  0.00  0.00    +0.252 C 
ATOM     15  O   UNL     1      -2.582  -5.076  -6.743  0.00  0.00    -0.270 OA
ATOM     16  C   UNL     1      -0.326  -4.138  -8.337  0.00  0.00    +0.133 C 
BRANCH   7  17
ATOM     17  N   UNL     1      -3.042  -0.370  -6.271  0.00  0.00    -0.359 N 
ATOM     18  H   UNL     1      -3.782  -0.282  -5.650  0.00  0.00    +0.142 HD
ATOM     19  H   UNL     1      -2.618   0.422  -6.636  0.00  0.00    +0.142 HD
ENDBRANCH   7  17
ENDBRANCH   2   6
BRANCH   1  20
ATOM     20  O   UNL     1      -3.181  -1.949  -3.667  0.00  0.00    -0.383 OA
BRANCH  20  21
ATOM     21  C   UNL     1      -3.293  -1.598  -2.286  0.00  0.00    +0.358 C 
BRANCH  21  23
ATOM     22  N   UNL     1      -1.860  -0.582  -0.544  0.00  0.00    -0.294 N 
ATOM     23  C   UNL     1      -2.037  -0.892  -1.843  0.00  0.00    +0.256 C 
ATOM     24  O   UNL     1      -1.184  -0.604  -2.657  0.00  0.00    -0.272 OA
BRANCH  22  26
ATOM     25  C   UNL     1      -1.171   1.502   0.536  0.00  0.00    +0.028 C 
ATOM     26  C   UNL     1      -0.698   0.208  -0.131  0.00  0.00    +0.070 C 
ATOM     27  C   UNL     1       0.142  -0.600   0.861  0.00  0.00    +0.028 C 
ENDBRANCH  22  26
BRANCH  22  28
ATOM     28  C   UNL     1      -2.831  -1.034   0.456  0.00  0.00    +0.070 C 
ATOM     29  C   UNL     1      -4.239  -0.616   0.025  0.00  0.00    +0.028 C 
ATOM     30  C   UNL     1      -2.767  -2.558   0.577  0.00  0.00    +0.028 C 
ENDBRANCH  22  28
ENDBRANCH  21  23
ENDBRANCH  20  21
ENDBRANCH   1  20
TORSDOF 7
