REMARK  Name = ZINC02371615
REMARK  11 active torsions:
REMARK  status: ('A' for Active; 'I' for Inactive)
REMARK    1  A    between atoms: C_1  and  C_2
REMARK    2  A    between atoms: C_14  and  S_25
REMARK    3  A    between atoms: C_15  and  N_16
REMARK    4  A    between atoms: N_17  and  C_18
REMARK    5  A    between atoms: C_18  and  C_19
REMARK    6  A    between atoms: C_19  and  C_20
REMARK    7  A    between atoms: C_20  and  O_21
REMARK    8  A    between atoms: O_21  and  C_22
REMARK    9  A    between atoms: C_22  and  C_23
REMARK   10  A    between atoms: C_22  and  C_24
REMARK   11  A    between atoms: S_25  and  C_28
REMARK                            x       y       z     vdW  Elec       q    Type
REMARK                         _______ _______ _______ _____ _____    ______ ____
ROOT
ATOM      1  C   UNL     1      -4.300  -1.891  -3.084  0.00  0.00    +0.047 C 
ATOM      2  C   UNL     1      -4.024  -3.373  -3.074  0.00  0.00    -0.007 A 
ATOM      3  C   UNL     1      -4.956  -4.247  -3.547  0.00  0.00    +0.008 A 
ATOM      4  C   UNL     1      -4.685  -5.623  -3.531  0.00  0.00    +0.019 A 
ATOM      5  C   UNL     1      -3.508  -6.077  -3.047  0.00  0.00    +0.096 A 
ATOM      6  N   UNL     1      -2.568  -5.210  -2.572  0.00  0.00    -0.267 N 
ATOM      7  C   UNL     1      -2.802  -3.863  -2.575  0.00  0.00    +0.145 A 
ATOM      8  N   UNL     1      -1.898  -2.998  -2.116  0.00  0.00    -0.211 NA
ATOM      9  C   UNL     1      -0.731  -3.408  -1.635  0.00  0.00    +0.150 A 
ATOM     10  C   UNL     1      -0.437  -4.787  -1.608  0.00  0.00    +0.084 A 
ATOM     11  C   UNL     1      -1.400  -5.698  -2.097  0.00  0.00    +0.268 A 
ATOM     12  O   UNL     1      -1.183  -6.897  -2.091  0.00  0.00    -0.267 OA
ATOM     13  C   UNL     1       0.802  -5.236  -1.099  0.00  0.00    +0.047 A 
ATOM     14  C   UNL     1       1.702  -4.333  -0.638  0.00  0.00    +0.132 A 
ATOM     15  C   UNL     1       1.403  -2.950  -0.673  0.00  0.00    +0.124 A 
ATOM     16  N   UNL     1       0.194  -2.507  -1.164  0.00  0.00    -0.312 N 
ENDROOT
BRANCH  15  17
ATOM     17  N   UNL     1       2.283  -2.082  -0.229  0.00  0.00    -0.343 N 
ATOM     18  H   UNL     1       2.055  -1.006  -0.254  0.00  0.00    +0.144 HD
ATOM     19  H   UNL     1       3.248  -2.431   0.168  0.00  0.00    +0.144 HD
ENDBRANCH  15  17
BRANCH  14  20
ATOM     20  S   UNL     1       3.250  -4.882   0.001  0.00  0.00    +0.028 S 
ATOM     21  O   UNL     1       3.240  -6.301  -0.073  0.00  0.00    -0.164 OA
ATOM     22  O   UNL     1       4.251  -4.094  -0.629  0.00  0.00    -0.164 OA
BRANCH  20  23
ATOM     23  C   UNL     1       3.284  -4.466   1.713  0.00  0.00    +0.094 A 
ATOM     24  C   UNL     1       3.915  -3.309   2.130  0.00  0.00    +0.029 A 
ATOM     25  C   UNL     1       3.937  -2.980   3.472  0.00  0.00    +0.022 A 
ATOM     26  C   UNL     1       3.338  -3.814   4.399  0.00  0.00    +0.041 A 
ATOM     27  C   UNL     1       2.712  -4.975   3.981  0.00  0.00    +0.022 A 
ATOM     28  C   UNL     1       2.686  -5.301   2.638  0.00  0.00    +0.029 A 
ATOM     29 CL   UNL     1       3.372  -3.405   6.086  0.00  0.00    -0.084 Cl
ENDBRANCH  20  23
ENDBRANCH  14  20
BRANCH  16  30
ATOM     30  C   UNL     1      -0.104  -1.073  -1.189  0.00  0.00    +0.127 C 
BRANCH  30  31
ATOM     31  C   UNL     1      -0.786  -0.670   0.120  0.00  0.00    +0.050 C 
BRANCH  31  32
ATOM     32  C   UNL     1      -1.097   0.828   0.094  0.00  0.00    +0.162 C 
BRANCH  32  33
ATOM     33  O   UNL     1      -1.734   1.204   1.317  0.00  0.00    -0.377 OA
BRANCH  33  34
ATOM     34  C   UNL     1      -2.068   2.591   1.395  0.00  0.00    +0.112 C 
ATOM     35  C   UNL     1      -3.477   2.808   0.838  0.00  0.00    +0.037 C 
ATOM     36  C   UNL     1      -2.022   3.045   2.855  0.00  0.00    +0.037 C 
ENDBRANCH  33  34
ENDBRANCH  32  33
ENDBRANCH  31  32
ENDBRANCH  30  31
ENDBRANCH  16  30
TORSDOF 8
