REMARK  Name = ZINC48896365
REMARK  5 active torsions:
REMARK  status: ('A' for Active; 'I' for Inactive)
REMARK    1  A    between atoms: C_3  and  S_12
REMARK    2  A    between atoms: C_4  and  N_9
REMARK    3  A    between atoms: C_6  and  N_7
REMARK    4  A    between atoms: N_7  and  N_8
REMARK    5  A    between atoms: S_12  and  N_15
REMARK                            x       y       z     vdW  Elec       q    Type
REMARK                         _______ _______ _______ _____ _____    ______ ____
ROOT
ATOM      1  C   UNL     1       0.973  -0.194   1.026  0.00  0.00    +0.026 A 
ATOM      2  C   UNL     1       2.143   0.540   1.035  0.00  0.00    +0.033 A 
ATOM      3  C   UNL     1       2.399   1.449   0.025  0.00  0.00    +0.136 A 
ATOM      4  C   UNL     1       1.485   1.627  -0.997  0.00  0.00    +0.154 A 
ATOM      5  C   UNL     1       0.313   0.897  -1.013  0.00  0.00    +0.059 A 
ATOM      6  C   UNL     1       0.053  -0.018   0.000  0.00  0.00    +0.043 A 
ENDROOT
BRANCH   4   7
ATOM      7  N   UNL     1       1.762   2.602  -2.076  0.00  0.00    +0.058 N 
ATOM      8  O   UNL     1       0.913   2.851  -2.899  0.00  0.00    -0.126 OA
ATOM      9  O   UNL     1       2.839   3.149  -2.133  0.00  0.00    -0.126 OA
ENDBRANCH   4   7
BRANCH   3  10
ATOM     10  S   UNL     1       3.893   2.384   0.042  0.00  0.00    +0.063 S 
ATOM     11  O   UNL     1       4.770   1.763  -0.888  0.00  0.00    -0.153 OA
ATOM     12  O   UNL     1       3.518   3.751  -0.061  0.00  0.00    -0.153 OA
BRANCH  10  13
ATOM     13  N   UNL     1       4.575   2.191   1.538  0.00  0.00    -0.176 NA
ATOM     14  C   UNL     1       4.182   3.011   2.646  0.00  0.00    +0.110 C 
ATOM     15  C   UNL     1       4.795   4.427   2.583  0.00  0.00    +0.028 C 
ATOM     16  C   UNL     1       6.272   4.408   2.109  0.00  0.00    +0.070 C 
ATOM     17  S   UNL     1       7.229   3.071   2.818  0.00  0.00    -0.159 S 
ATOM     18  C   UNL     1       6.950   1.700   1.637  0.00  0.00    +0.086 C 
ATOM     19  C   UNL     1       5.614   1.156   1.785  0.00  0.00    +0.120 C 
ENDBRANCH  10  13
ENDBRANCH   3  10
BRANCH   6  20
ATOM     20  N   UNL     1      -1.131  -0.759  -0.013  0.00  0.00    -0.283 N 
ATOM     21  H   UNL     1      -1.772  -0.635  -0.729  0.00  0.00    +0.166 HD
BRANCH  20  22
ATOM     22  N   UNL     1      -1.385  -1.658   0.984  0.00  0.00    -0.257 NA
ATOM     23  H   UNL     1      -2.273  -2.115   0.841  0.00  0.00    +0.140 HD
ATOM     24  H   UNL     1      -0.639  -2.333   1.061  0.00  0.00    +0.140 HD
ENDBRANCH  20  22
ENDBRANCH   6  20
TORSDOF 5
