REMARK  Name = ZINC11855333
REMARK  4 active torsions:
REMARK  status: ('A' for Active; 'I' for Inactive)
REMARK    1  A    between atoms: C_4  and  C_7
REMARK    2  A    between atoms: C_16  and  N_25
REMARK    3  A    between atoms: C_18  and  C_20
REMARK    4  A    between atoms: C_26  and  C_28
REMARK                            x       y       z     vdW  Elec       q    Type
REMARK                         _______ _______ _______ _____ _____    ______ ____
ROOT
ATOM      1  C   UNL     1      -4.833   6.007   0.093  0.00  0.00    +0.080 A 
ATOM      2  C   UNL     1      -6.027   6.699  -0.042  0.00  0.00    +0.098 A 
ATOM      3  C   UNL     1      -7.230   5.974  -0.030  0.00  0.00    +0.253 A 
ATOM      4  O   UNL     1      -8.301   6.546  -0.146  0.00  0.00    -0.268 OA
ATOM      5  N   UNL     1      -7.179   4.632   0.107  0.00  0.00    -0.291 N 
ATOM      6  H   UNL     1      -8.000   4.115   0.114  0.00  0.00    +0.172 HD
ATOM      7  C   UNL     1      -5.980   4.004   0.241  0.00  0.00    +0.234 A 
ATOM      8  N   UNL     1      -4.850   4.673   0.231  0.00  0.00    -0.212 NA
ATOM      9  N   UNL     1      -5.950   2.630   0.385  0.00  0.00    -0.185 N 
ATOM     10  C   UNL     1      -4.829   1.849   0.404  0.00  0.00    +0.133 A 
ATOM     11  C   UNL     1      -5.228   0.561   0.558  0.00  0.00    +0.074 A 
ATOM     12  C   UNL     1      -6.636   0.552   0.644  0.00  0.00    +0.102 A 
ATOM     13  N   UNL     1      -7.063   1.794   0.537  0.00  0.00    -0.162 NA
ENDROOT
BRANCH   1  17
ATOM     14  C   UNL     1      -1.136   8.104   0.067  0.00  0.00    +0.000 A 
ATOM     15  C   UNL     1      -1.144   6.721   0.043  0.00  0.00    +0.001 A 
ATOM     16  C   UNL     1      -2.341   6.034   0.051  0.00  0.00    +0.010 A 
ATOM     17  C   UNL     1      -3.545   6.738   0.084  0.00  0.00    +0.001 A 
ATOM     18  C   UNL     1      -3.530   8.132   0.103  0.00  0.00    +0.010 A 
ATOM     19  C   UNL     1      -2.327   8.807   0.100  0.00  0.00    +0.001 A 
ENDBRANCH   1  17
BRANCH  12  20
ATOM     20  C   UNL     1      -7.486  -0.645   0.819  0.00  0.00    +0.039 A 
ATOM     21  C   UNL     1      -8.850  -0.729   0.905  0.00  0.00    +0.018 A 
ATOM     22  C   UNL     1      -9.428  -1.969   1.069  0.00  0.00    +0.008 A 
ATOM     23  C   UNL     1      -8.631  -3.066   1.139  0.00  0.00    +0.046 A 
ATOM     24  S   UNL     1      -7.002  -2.357   0.964  0.00  0.00    -0.095 S 
ENDBRANCH  12  20
BRANCH  10  25
ATOM     25  N   UNL     1      -3.516   2.293   0.282  0.00  0.00    -0.264 N 
ATOM     26  C   UNL     1      -2.513   1.403   0.145  0.00  0.00    +0.285 C 
ATOM     27  O   UNL     1      -2.764   0.221   0.009  0.00  0.00    -0.266 OA
ATOM     28  H   UNL     1      -3.322   3.244   0.294  0.00  0.00    +0.157 HD
BRANCH  26  29
ATOM     29  C   UNL     1      -1.117   1.861   0.161  0.00  0.00    +0.191 A 
ATOM     30  C   UNL     1      -0.029   1.057   0.038  0.00  0.00    +0.063 A 
ATOM     31  C   UNL     1       1.135   1.939   0.102  0.00  0.00    +0.021 A 
ATOM     32  C   UNL     1       2.516   1.736   0.034  0.00  0.00    +0.011 A 
ATOM     33  C   UNL     1       3.363   2.803   0.128  0.00  0.00    +0.001 A 
ATOM     34  C   UNL     1       2.861   4.087   0.292  0.00  0.00    +0.004 A 
ATOM     35  C   UNL     1       1.503   4.309   0.362  0.00  0.00    +0.047 A 
ATOM     36  C   UNL     1       0.621   3.239   0.268  0.00  0.00    +0.136 A 
ATOM     37  O   UNL     1      -0.722   3.144   0.301  0.00  0.00    -0.450 OA
ENDBRANCH  26  29
ENDBRANCH  10  25
TORSDOF 4
