REMARK  Name = ZINC20238803
REMARK  7 active torsions:
REMARK  status: ('A' for Active; 'I' for Inactive)
REMARK    1  A    between atoms: C_1  and  C_2
REMARK    2  A    between atoms: C_2  and  O_3
REMARK    3  A    between atoms: O_3  and  C_4
REMARK    4  A    between atoms: C_7  and  C_13
REMARK    5  A    between atoms: C_8  and  N_10
REMARK    6  A    between atoms: C_16  and  C_18
REMARK    7  A    between atoms: C_28  and  C_30
REMARK                            x       y       z     vdW  Elec       q    Type
REMARK                         _______ _______ _______ _____ _____    ______ ____
ROOT
ATOM      1  C   UNL     1      -3.334  -9.107   2.277  0.00  0.00    +0.063 C 
ATOM      2  C   UNL     1      -2.747 -10.316   2.644  0.00  0.00    +0.084 C 
ATOM      3  C   UNL     1      -1.457 -10.772   2.053  0.00  0.00    +0.153 C 
ATOM      4  N   UNL     1      -0.503  -9.956   1.702  0.00  0.00    -0.283 NA
ATOM      5  N   UNL     1      -1.368 -12.182   1.911  0.00  0.00    -0.151 N 
ATOM      6  C   UNL     1      -2.185 -12.948   2.734  0.00  0.00    +0.181 C 
ATOM      7  N   UNL     1      -3.087 -12.532   3.571  0.00  0.00    -0.152 NA
ATOM      8  C   UNL     1      -3.367 -11.209   3.644  0.00  0.00    +0.273 C 
ATOM      9  O   UNL     1      -4.112 -10.768   4.505  0.00  0.00    -0.268 OA
ATOM     10  S   UNL     1      -1.681 -14.596   2.305  0.00  0.00    -0.032 S 
ATOM     11  C   UNL     1      -0.509 -14.118   1.037  0.00  0.00    +0.136 C 
ATOM     12  N   UNL     1      -0.599 -12.780   1.101  0.00  0.00    -0.164 NA
ATOM     13  H   UNL     1       0.318 -10.306   1.322  0.00  0.00    +0.188 HD
ENDROOT
BRANCH   1  17
ATOM     14  C   UNL     1      -2.280  -6.672  -0.084  0.00  0.00    +0.138 A 
ATOM     15  C   UNL     1      -1.761  -7.815  -0.684  0.00  0.00    +0.050 A 
ATOM     16  C   UNL     1      -2.091  -8.887   0.129  0.00  0.00    +0.050 A 
ATOM     17  C   UNL     1      -2.807  -8.368   1.212  0.00  0.00    +0.129 A 
ATOM     18  O   UNL     1      -2.898  -7.030   1.055  0.00  0.00    -0.455 OA
BRANCH  14  22
ATOM     19  C   UNL     1      -1.950  -2.729  -1.583  0.00  0.00    +0.123 A 
ATOM     20  C   UNL     1      -0.801  -3.471  -1.326  0.00  0.00    +0.046 A 
ATOM     21  C   UNL     1      -0.902  -4.744  -0.842  0.00  0.00    +0.017 A 
ATOM     22  C   UNL     1      -2.166  -5.303  -0.604  0.00  0.00    +0.048 A 
ATOM     23  C   UNL     1      -3.320  -4.551  -0.865  0.00  0.00    +0.140 A 
ATOM     24  C   UNL     1      -3.207  -3.277  -1.344  0.00  0.00    +0.079 A 
BRANCH  23  25
ATOM     25  N   UNL     1      -4.657  -5.135  -0.617  0.00  0.00    +0.057 N 
ATOM     26  O   UNL     1      -5.735  -4.390  -0.747  0.00  0.00    -0.126 OA
ATOM     27  O   UNL     1      -4.769  -6.400  -0.267  0.00  0.00    -0.126 OA
ENDBRANCH  23  25
BRANCH  19  28
ATOM     28  O   UNL     1      -1.845  -1.465  -2.064  0.00  0.00    -0.492 OA
BRANCH  28  30
ATOM     29  C   UNL     1      -0.607   0.466  -2.826  0.00  0.00    +0.048 C 
ATOM     30  C   UNL     1      -0.525  -0.964  -2.287  0.00  0.00    +0.225 C 
ENDBRANCH  28  30
ENDBRANCH  19  28
ENDBRANCH  14  22
ENDBRANCH   1  17
BRANCH  11  31
ATOM     31  C   UNL     1       0.289 -14.926   0.201  0.00  0.00    +0.046 A 
ATOM     32  C   UNL     1       0.369 -16.330   0.140  0.00  0.00    +0.018 A 
ATOM     33  C   UNL     1       1.241 -16.831  -0.779  0.00  0.00    +0.008 A 
ATOM     34  C   UNL     1       1.962 -15.952  -1.562  0.00  0.00    +0.046 A 
ATOM     35  S   UNL     1       1.452 -14.433  -1.057  0.00  0.00    -0.095 S 
ENDBRANCH  11  31
TORSDOF 6
