REMARK  Name = ZINC13637709
REMARK  10 active torsions:
REMARK  status: ('A' for Active; 'I' for Inactive)
REMARK    1  A    between atoms: C_1  and  C_2
REMARK    2  A    between atoms: C_6  and  C_22
REMARK    3  A    between atoms: C_7  and  N_8
REMARK    4  A    between atoms: N_8  and  C_9
REMARK    5  A    between atoms: C_9  and  N_11
REMARK    6  A    between atoms: N_11  and  C_12
REMARK    7  A    between atoms: C_12  and  C_13
REMARK    8  A    between atoms: C_13  and  C_14
REMARK    9  A    between atoms: C_17  and  O_21
REMARK   10  A    between atoms: C_18  and  O_20
REMARK                            x       y       z     vdW  Elec       q    Type
REMARK                         _______ _______ _______ _____ _____    ______ ____
ROOT
ATOM      1  N   UNL     1      -0.350  -1.339   4.940  0.00  0.00    -0.326 N 
ATOM      2  H   UNL     1      -0.243  -0.414   5.210  0.00  0.00    +0.148 HD
ENDROOT
BRANCH   1   3
ATOM      3  C   UNL     1      -0.244  -1.678   3.639  0.00  0.00    +0.135 C 
ATOM      4  S   UNL     1      -0.435  -3.312   3.162  0.00  0.00    -0.019 S 
BRANCH   3   5
ATOM      5  N   UNL     1       0.012  -0.732   2.715  0.00  0.00    -0.296 N 
ATOM      6  H   UNL     1       0.187   0.181   2.992  0.00  0.00    +0.154 HD
BRANCH   5  13
ATOM      7  C   UNL     1       2.533  -0.986   1.420  0.00  0.00    +0.045 C 
ATOM      8  C   UNL     1       1.235  -1.200   0.686  0.00  0.00    -0.029 A 
ATOM      9  C   UNL     1       1.245  -1.537  -0.654  0.00  0.00    +0.005 A 
ATOM     10  C   UNL     1       0.054  -1.734  -1.328  0.00  0.00    +0.001 A 
ATOM     11  C   UNL     1      -1.151  -1.595  -0.664  0.00  0.00    +0.005 A 
ATOM     12  C   UNL     1      -1.168  -1.259   0.675  0.00  0.00    -0.029 A 
ATOM     13  C   UNL     1       0.026  -1.066   1.357  0.00  0.00    +0.038 A 
ATOM     14  C   UNL     1      -2.482  -1.108   1.398  0.00  0.00    +0.045 C 
ENDBRANCH   5  13
ENDBRANCH   3   5
ENDBRANCH   1   3
BRANCH   1  15
ATOM     15  C   UNL     1      -0.629  -2.369   5.944  0.00  0.00    +0.108 C 
BRANCH  15  16
ATOM     16  C   UNL     1      -0.699  -1.723   7.330  0.00  0.00    +0.054 C 
BRANCH  16  17
ATOM     17  C   UNL     1      -0.986  -2.782   8.363  0.00  0.00    -0.042 A 
ATOM     18  C   UNL     1      -2.293  -3.091   8.689  0.00  0.00    +0.007 A 
ATOM     19  C   UNL     1      -2.561  -4.061   9.637  0.00  0.00    +0.049 A 
ATOM     20  C   UNL     1      -1.519  -4.726  10.262  0.00  0.00    +0.158 A 
ATOM     21  C   UNL     1      -0.203  -4.415   9.933  0.00  0.00    +0.158 A 
ATOM     22  C   UNL     1       0.059  -3.445   8.979  0.00  0.00    +0.052 A 
BRANCH  21  23
ATOM     23  O   UNL     1       0.824  -5.065  10.544  0.00  0.00    -0.503 OA
ATOM     24  H   UNL     1       1.108  -5.869  10.087  0.00  0.00    +0.292 HD
ENDBRANCH  21  23
BRANCH  20  25
ATOM     25  O   UNL     1      -1.781  -5.681  11.194  0.00  0.00    -0.503 OA
ATOM     26  H   UNL     1      -1.869  -6.572  10.831  0.00  0.00    +0.292 HD
ENDBRANCH  20  25
ENDBRANCH  16  17
ENDBRANCH  15  16
ENDBRANCH   1  15
TORSDOF 8
