REMARK  Name = ZINC09358742
REMARK  16 active torsions:
REMARK  status: ('A' for Active; 'I' for Inactive)
REMARK    1  A    between atoms: C_1  and  C_2
REMARK    2  A    between atoms: C_2  and  C_3
REMARK    3  A    between atoms: C_6  and  C_9
REMARK    4  A    between atoms: C_11  and  C_22
REMARK    5  A    between atoms: C_12  and  O_21
REMARK    6  A    between atoms: N_15  and  C_16
REMARK    7  A    between atoms: C_16  and  C_17
REMARK    8  A    between atoms: C_17  and  C_18
REMARK    9  A    between atoms: C_18  and  N_74
REMARK   10  A    between atoms: C_19  and  N_74
REMARK   11  A    between atoms: C_20  and  N_74
REMARK   12  A    between atoms: C_22  and  C_24
REMARK   13  A    between atoms: C_27  and  O_31
REMARK   14  A    between atoms: C_28  and  C_30
REMARK   15  A    between atoms: O_31  and  C_32
REMARK   16  A    between atoms: C_32  and  C_33
REMARK                            x       y       z     vdW  Elec       q    Type
REMARK                         _______ _______ _______ _____ _____    ______ ____
ROOT
ATOM      1  C   UNL     1       2.639  -2.987   2.840  0.00  0.00    +0.144 C 
ATOM      2  C   UNL     1       2.471  -3.308   4.307  0.00  0.00    +0.071 C 
ATOM      3  C   UNL     1       1.166  -3.107   4.603  0.00  0.00    +0.188 C 
ATOM      4  C   UNL     1       0.456  -2.656   3.388  0.00  0.00    +0.282 C 
ATOM      5  O   UNL     1      -0.729  -2.392   3.329  0.00  0.00    -0.267 OA
ATOM      6  N   UNL     1       1.315  -2.581   2.355  0.00  0.00    -0.284 N 
ENDROOT
BRANCH   1  10
ATOM      7  C   UNL     1       3.986  -6.441   0.718  0.00  0.00    -0.048 A 
ATOM      8  C   UNL     1       4.851  -5.387   0.942  0.00  0.00    +0.004 A 
ATOM      9  C   UNL     1       4.416  -4.269   1.629  0.00  0.00    +0.006 A 
ATOM     10  C   UNL     1       3.115  -4.206   2.091  0.00  0.00    -0.022 A 
ATOM     11  C   UNL     1       2.251  -5.263   1.872  0.00  0.00    +0.006 A 
ATOM     12  C   UNL     1       2.685  -6.378   1.181  0.00  0.00    +0.004 A 
BRANCH   7  14
ATOM     13  C   UNL     1       5.035  -8.675   0.961  0.00  0.00    +0.009 C 
ATOM     14  C   UNL     1       4.462  -7.660  -0.030  0.00  0.00    +0.032 C 
ENDBRANCH   7  14
ENDBRANCH   1  10
BRANCH   3  15
ATOM     15  O   UNL     1       0.601  -3.289   5.819  0.00  0.00    -0.502 OA
ATOM     16  H   UNL     1      -0.374  -3.071   5.769  0.00  0.00    +0.292 HD
ENDBRANCH   3  15
BRANCH   2  17
ATOM     17  C   UNL     1       3.518  -3.758   5.230  0.00  0.00    +0.195 C 
ATOM     18  O   UNL     1       3.459  -4.869   5.722  0.00  0.00    -0.287 OA
BRANCH  17  19
ATOM     19  C   UNL     1       4.643  -2.862   5.562  0.00  0.00    +0.023 A 
ATOM     20  C   UNL     1       4.671  -1.557   5.062  0.00  0.00    +0.015 A 
ATOM     21  C   UNL     1       5.722  -0.725   5.375  0.00  0.00    +0.046 A 
ATOM     22  C   UNL     1       6.755  -1.181   6.186  0.00  0.00    +0.124 A 
ATOM     23  C   UNL     1       6.731  -2.478   6.686  0.00  0.00    -0.008 A 
ATOM     24  C   UNL     1       5.681  -3.315   6.383  0.00  0.00    +0.018 A 
ATOM     25  C   UNL     1       7.853  -2.967   7.564  0.00  0.00    +0.047 C 
BRANCH  22  26
ATOM     26  O   UNL     1       7.790  -0.358   6.492  0.00  0.00    -0.487 OA
BRANCH  26  27
ATOM     27  C   UNL     1       7.752   0.962   5.945  0.00  0.00    +0.264 C 
BRANCH  27  28
ATOM     28  C   UNL     1       8.973   1.725   6.389  0.00  0.00    -0.010 A 
ATOM     29  C   UNL     1       8.941   2.463   7.557  0.00  0.00    +0.007 A 
ATOM     30  C   UNL     1      10.063   3.159   7.967  0.00  0.00    +0.000 A 
ATOM     31  C   UNL     1      11.214   3.125   7.203  0.00  0.00    +0.000 A 
ATOM     32  C   UNL     1      11.245   2.391   6.032  0.00  0.00    +0.000 A 
ATOM     33  C   UNL     1      10.125   1.691   5.625  0.00  0.00    +0.007 A 
ENDBRANCH  27  28
ENDBRANCH  26  27
ENDBRANCH  22  26
ENDBRANCH  17  19
ENDBRANCH   2  17
BRANCH   6  34
ATOM     34  C   UNL     1       0.986  -2.173   0.987  0.00  0.00    +0.107 C 
BRANCH  34  35
ATOM     35  C   UNL     1       1.161  -0.659   0.851  0.00  0.00    +0.000 C 
BRANCH  35  36
ATOM     36  C   UNL     1       0.817  -0.233  -0.578  0.00  0.00    -0.078 C 
BRANCH  36  39
ATOM     37  C   UNL     1       2.395   1.603  -0.560  0.00  0.00    -0.097 C 
ATOM     38  C   UNL     1       0.441   1.700  -1.987  0.00  0.00    -0.097 C 
ATOM     39  N   UNL     1       0.970   1.233  -0.688  0.00  0.00    +0.376 N 
ATOM     40  H   UNL     1       0.440   1.681   0.069  0.00  0.00    -0.083 HD
ENDBRANCH  36  39
ENDBRANCH  35  36
ENDBRANCH  34  35
ENDBRANCH   6  34
TORSDOF 12
