REMARK  Name = ZINC40409289
REMARK  12 active torsions:
REMARK  status: ('A' for Active; 'I' for Inactive)
REMARK    1  A    between atoms: C_1  and  C_2
REMARK    2  A    between atoms: C_2  and  O_3
REMARK    3  A    between atoms: O_3  and  C_4
REMARK    4  A    between atoms: C_4  and  C_6
REMARK    5  A    between atoms: N_11  and  C_13
REMARK    6  A    between atoms: C_13  and  C_14
REMARK    7  A    between atoms: C_17  and  C_32
REMARK    8  A    between atoms: C_20  and  C_22
REMARK    9  A    between atoms: C_25  and  O_30
REMARK   10  A    between atoms: C_27  and  O_28
REMARK   11  A    between atoms: O_28  and  C_29
REMARK   12  A    between atoms: O_30  and  C_31
REMARK                            x       y       z     vdW  Elec       q    Type
REMARK                         _______ _______ _______ _____ _____    ______ ____
ROOT
ATOM      1  C   UNL     1       2.968  -6.452  -4.723  0.00  0.00    +0.219 C 
ATOM      2  O   UNL     1       3.455  -5.701  -5.543  0.00  0.00    -0.276 OA
ATOM      3  N   UNL     1       3.146  -7.782  -4.839  0.00  0.00    -0.187 N 
ATOM      4  C   UNL     1       3.910  -8.455  -5.902  0.00  0.00    +0.137 C 
ATOM      5  C   UNL     1       3.786  -9.950  -5.546  0.00  0.00    +0.087 C 
ATOM      6  C   UNL     1       2.944  -9.957  -4.290  0.00  0.00    +0.072 C 
ATOM      7  N   UNL     1       2.642  -8.746  -3.968  0.00  0.00    -0.181 NA
ENDROOT
BRANCH   4   8
ATOM      8  C   UNL     1       3.301  -8.175  -7.251  0.00  0.00    -0.021 A 
ATOM      9  C   UNL     1       1.926  -8.122  -7.389  0.00  0.00    +0.009 A 
ATOM     10  C   UNL     1       1.362  -7.864  -8.625  0.00  0.00    +0.050 A 
ATOM     11  C   UNL     1       2.174  -7.659  -9.729  0.00  0.00    +0.166 A 
ATOM     12  C   UNL     1       3.559  -7.713  -9.589  0.00  0.00    +0.167 A 
ATOM     13  C   UNL     1       4.117  -7.965  -8.347  0.00  0.00    +0.055 A 
ATOM     14  O   UNL     1       4.129  -7.481 -10.808  0.00  0.00    -0.453 OA
ATOM     15  C   UNL     1       3.079  -7.690 -11.770  0.00  0.00    +0.466 C 
ATOM     16  O   UNL     1       1.877  -7.394 -11.034  0.00  0.00    -0.453 OA
ENDBRANCH   4   8
BRANCH   6  17
ATOM     17  C   UNL     1       2.537 -11.161  -3.547  0.00  0.00    +0.040 A 
ATOM     18  C   UNL     1       2.936 -12.426  -3.987  0.00  0.00    +0.017 A 
ATOM     19  C   UNL     1       2.554 -13.550  -3.289  0.00  0.00    +0.046 A 
ATOM     20  C   UNL     1       1.772 -13.431  -2.146  0.00  0.00    +0.124 A 
ATOM     21  C   UNL     1       1.370 -12.180  -1.700  0.00  0.00    +0.091 A 
ATOM     22  C   UNL     1       1.753 -11.043  -2.390  0.00  0.00    +0.132 A 
BRANCH  22  23
ATOM     23  O   UNL     1       1.366  -9.818  -1.952  0.00  0.00    -0.494 OA
ATOM     24  C   UNL     1       0.568  -9.774  -0.767  0.00  0.00    +0.277 C 
ENDBRANCH  22  23
BRANCH  20  25
ATOM     25  O   UNL     1       1.399 -14.544  -1.462  0.00  0.00    -0.495 OA
ATOM     26  C   UNL     1       1.846 -15.801  -1.975  0.00  0.00    +0.277 C 
ENDBRANCH  20  25
ENDBRANCH   6  17
BRANCH   1  27
ATOM     27  C   UNL     1       2.165  -5.896  -3.576  0.00  0.00    +0.021 C 
BRANCH  27  32
ATOM     28  C   UNL     1       1.468  -2.353  -2.550  0.00  0.00    +0.081 C 
ATOM     29  C   UNL     1       0.740  -1.887  -3.814  0.00  0.00    +0.011 C 
ATOM     30  C   UNL     1       1.403  -2.524  -5.038  0.00  0.00    -0.018 C 
ATOM     31  C   UNL     1       1.385  -4.046  -4.887  0.00  0.00    -0.078 C 
ATOM     32  N   UNL     1       2.119  -4.431  -3.675  0.00  0.00    +0.386 N 
ATOM     33  C   UNL     1       1.448  -3.882  -2.490  0.00  0.00    -0.064 C 
ATOM     34  H   UNL     1       3.059  -4.069  -3.724  0.00  0.00    -0.081 HD
BRANCH  28  35
ATOM     35  C   UNL     1       0.775  -1.794  -1.334  0.00  0.00    +0.308 C 
ATOM     36  O   UNL     1       0.314  -2.540  -0.504  0.00  0.00    -0.251 OA
BRANCH  35  37
ATOM     37  O   UNL     1       0.671  -0.465  -1.174  0.00  0.00    -0.465 OA
BRANCH  37  39
ATOM     38  C   UNL     1      -0.019   1.526   0.010  0.00  0.00    +0.048 C 
ATOM     39  C   UNL     1       0.002  -0.004   0.002  0.00  0.00    +0.229 C 
ENDBRANCH  37  39
ENDBRANCH  35  37
ENDBRANCH  28  35
ENDBRANCH  27  32
ENDBRANCH   1  27
TORSDOF 9
