REMARK  Name = ZINC09312182
REMARK  13 active torsions:
REMARK  status: ('A' for Active; 'I' for Inactive)
REMARK    1  A    between atoms: C_1  and  C_2
REMARK    2  A    between atoms: C_2  and  N_66
REMARK    3  A    between atoms: C_3  and  C_4
REMARK    4  A    between atoms: C_3  and  N_66
REMARK    5  A    between atoms: C_5  and  C_6
REMARK    6  A    between atoms: C_5  and  N_66
REMARK    7  A    between atoms: C_6  and  N_7
REMARK    8  A    between atoms: C_8  and  C_28
REMARK    9  A    between atoms: C_11  and  C_12
REMARK   10  A    between atoms: C_11  and  O_23
REMARK   11  A    between atoms: C_19  and  C_22
REMARK   12  A    between atoms: C_31  and  O_34
REMARK   13  A    between atoms: O_34  and  C_35
REMARK                            x       y       z     vdW  Elec       q    Type
REMARK                         _______ _______ _______ _____ _____    ______ ____
ROOT
ATOM      1  N   UNL     1       0.593   0.883   1.483  0.00  0.00    -0.285 N 
ATOM      2  C   UNL     1       0.489   2.236   2.039  0.00  0.00    +0.144 C 
ATOM      3  C   UNL     1      -0.016   2.083   3.455  0.00  0.00    +0.071 C 
ATOM      4  C   UNL     1      -0.267   3.096   4.360  0.00  0.00    +0.133 C 
ATOM      5  C   UNL     1      -0.172   0.706   3.668  0.00  0.00    +0.249 C 
ATOM      6  O   UNL     1      -0.557   0.181   4.697  0.00  0.00    -0.282 OA
ATOM      7  C   UNL     1       0.216  -0.004   2.419  0.00  0.00    +0.288 C 
ATOM      8  O   UNL     1       0.197  -1.208   2.268  0.00  0.00    -0.266 OA
ENDROOT
BRANCH   4   9
ATOM      9  C   UNL     1      -0.890   2.787   5.657  0.00  0.00    +0.017 A 
ATOM     10  C   UNL     1      -0.312   3.249   6.846  0.00  0.00    +0.015 A 
ATOM     11  C   UNL     1      -0.894   2.956   8.055  0.00  0.00    +0.046 A 
ATOM     12  C   UNL     1      -2.064   2.195   8.113  0.00  0.00    +0.124 A 
ATOM     13  C   UNL     1      -2.639   1.744   6.927  0.00  0.00    -0.002 A 
ATOM     14  C   UNL     1      -2.068   2.031   5.712  0.00  0.00    +0.019 A 
ATOM     15  C   UNL     1      -3.892   0.979   7.305  0.00  0.00    +0.083 C 
ATOM     16  C   UNL     1      -4.106   1.421   8.772  0.00  0.00    +0.175 C 
ATOM     17  O   UNL     1      -2.780   1.783   9.192  0.00  0.00    -0.488 OA
ATOM     18  C   UNL     1      -5.045   2.627   8.843  0.00  0.00    +0.052 C 
ENDBRANCH   4   9
BRANCH   2  19
ATOM     19  C   UNL     1      -0.488   3.052   1.232  0.00  0.00    -0.022 A 
ATOM     20  C   UNL     1      -1.653   2.472   0.766  0.00  0.00    +0.009 A 
ATOM     21  C   UNL     1      -2.552   3.220   0.031  0.00  0.00    +0.046 A 
ATOM     22  C   UNL     1      -2.280   4.551  -0.250  0.00  0.00    +0.120 A 
ATOM     23  C   UNL     1      -1.107   5.129   0.214  0.00  0.00    +0.046 A 
ATOM     24  C   UNL     1      -0.214   4.378   0.954  0.00  0.00    +0.009 A 
BRANCH  22  25
ATOM     25  O   UNL     1      -3.160   5.287  -0.977  0.00  0.00    -0.495 OA
ATOM     26  C   UNL     1      -4.347   4.626  -1.422  0.00  0.00    +0.277 C 
ENDBRANCH  22  25
ENDBRANCH   2  19
BRANCH   4  27
ATOM     27  O   UNL     1       0.058   4.371   4.055  0.00  0.00    -0.506 OA
ATOM     28  H   UNL     1      -0.191   4.970   4.816  0.00  0.00    +0.292 HD
ENDBRANCH   4  27
BRANCH   1  29
ATOM     29  C   UNL     1       1.040   0.553   0.128  0.00  0.00    +0.090 C 
BRANCH  29  30
ATOM     30  C   UNL     1      -0.166   0.520  -0.814  0.00  0.00    -0.060 C 
BRANCH  30  31
ATOM     31  N   UNL     1       0.299   0.164  -2.171  0.00  0.00    +0.380 N 
ATOM     32  H   UNL     1       0.866  -0.690  -2.117  0.00  0.00    -0.082 HD
BRANCH  31  34
ATOM     33  C   UNL     1      -1.429  -1.470  -2.735  0.00  0.00    -0.017 C 
ATOM     34  C   UNL     1      -0.861  -0.085  -3.053  0.00  0.00    -0.082 C 
ENDBRANCH  31  34
BRANCH  31  35
ATOM     35  C   UNL     1       1.127   1.256  -2.724  0.00  0.00    -0.082 C 
ATOM     36  C   UNL     1       1.892   0.727  -3.939  0.00  0.00    -0.017 C 
ENDBRANCH  31  35
ENDBRANCH  30  31
ENDBRANCH  29  30
ENDBRANCH   1  29
TORSDOF 9
