REMARK  Name = ZINC39983873
REMARK  6 active torsions:
REMARK  status: ('A' for Active; 'I' for Inactive)
REMARK    1  A    between atoms: C_1  and  C_2
REMARK    2  A    between atoms: C_7  and  C_9
REMARK    3  A    between atoms: C_9  and  S_10
REMARK    4  A    between atoms: S_10  and  C_11
REMARK    5  A    between atoms: C_15  and  C_21
REMARK    6  A    between atoms: N_17  and  C_18
REMARK                            x       y       z     vdW  Elec       q    Type
REMARK                         _______ _______ _______ _____ _____    ______ ____
ROOT
ATOM      1  C   UNL     1      -9.809   2.069  -4.519  0.00  0.00    +0.078 C 
ATOM      2  N   UNL     1      -9.668   2.511  -3.107  0.00  0.00    -0.261 NA
ATOM      3  N   UNL     1     -10.217   3.876  -3.130  0.00  0.00    -0.264 NA
ATOM      4  C   UNL     1      -9.766   4.435  -4.425  0.00  0.00    +0.086 C 
ATOM      5  N   UNL     1      -9.508   3.282  -5.315  0.00  0.00    +0.414 N 
ATOM      6  H   UNL     1      -8.699   2.516  -2.825  0.00  0.00    +0.140 HD
ATOM      7  H   UNL     1     -11.225   3.861  -3.074  0.00  0.00    +0.139 HD
ATOM      8  H   UNL     1      -8.541   3.276  -5.603  0.00  0.00    -0.075 HD
ENDROOT
BRANCH   4   9
ATOM      9  C   UNL     1     -10.843   5.310  -5.013  0.00  0.00    +0.106 A 
ATOM     10  C   UNL     1     -12.135   4.970  -5.169  0.00  0.00    +0.044 A 
ATOM     11  C   UNL     1     -12.783   6.081  -5.755  0.00  0.00    +0.041 A 
ATOM     12  C   UNL     1     -11.849   7.034  -5.923  0.00  0.00    +0.195 A 
ATOM     13  O   UNL     1     -10.676   6.563  -5.466  0.00  0.00    -0.468 OA
ENDBRANCH   4   9
BRANCH   5  14
ATOM     14  C   UNL     1     -10.386   3.343  -6.492  0.00  0.00    -0.062 C 
ATOM     15  C   UNL     1     -11.401   2.213  -6.675  0.00  0.00    -0.017 C 
ATOM     16  C   UNL     1     -10.174   2.295  -7.586  0.00  0.00    -0.017 C 
ENDBRANCH   5  14
BRANCH   1  17
ATOM     17  S   UNL     1      -8.619   0.752  -4.894  0.00  0.00    -0.150 S 
BRANCH  17  18
ATOM     18  C   UNL     1      -7.010   1.489  -4.496  0.00  0.00    +0.164 C 
BRANCH  18  25
ATOM     19  C   UNL     1      -0.002  -0.794  -4.736  0.00  0.00    +0.066 C 
ATOM     20  C   UNL     1      -1.490  -0.949  -4.915  0.00  0.00    +0.047 A 
ATOM     21  C   UNL     1      -2.032  -2.104  -5.375  0.00  0.00    +0.071 A 
ATOM     22  S   UNL     1      -3.767  -1.683  -5.367  0.00  0.00    -0.060 S 
ATOM     23  C   UNL     1      -3.622  -0.109  -4.790  0.00  0.00    +0.165 A 
ATOM     24  N   UNL     1      -4.630   0.816  -4.541  0.00  0.00    -0.264 N 
ATOM     25  C   UNL     1      -5.917   0.487  -4.766  0.00  0.00    +0.228 C 
ATOM     26  O   UNL     1      -6.197  -0.616  -5.185  0.00  0.00    -0.275 OA
ATOM     27  N   UNL     1      -2.325   0.032  -4.626  0.00  0.00    -0.230 NA
ATOM     28  H   UNL     1      -4.406   1.698  -4.205  0.00  0.00    +0.157 HD
ENDBRANCH  18  25
ENDBRANCH  17  18
ENDBRANCH   1  17
TORSDOF 5
