REMARK  Name = ZINC36770363
REMARK  5 active torsions:
REMARK  status: ('A' for Active; 'I' for Inactive)
REMARK    1  A    between atoms: C_1  and  C_2
REMARK    2  A    between atoms: C_2  and  C_3
REMARK    3  A    between atoms: N_6  and  C_10
REMARK    4  A    between atoms: C_13  and  N_18
REMARK    5  A    between atoms: C_15  and  C_16
REMARK                            x       y       z     vdW  Elec       q    Type
REMARK                         _______ _______ _______ _____ _____    ______ ____
ROOT
ATOM      1  C   UNL     1      -3.356  -3.449   0.862  0.00  0.00    +0.034 A 
ATOM      2  C   UNL     1      -4.063  -2.966   1.956  0.00  0.00    +0.025 A 
ATOM      3  C   UNL     1      -4.624  -3.849   2.858  0.00  0.00    +0.034 A 
ATOM      4  C   UNL     1      -4.483  -5.213   2.672  0.00  0.00    +0.127 A 
ATOM      5  C   UNL     1      -3.780  -5.696   1.584  0.00  0.00    +0.039 A 
ATOM      6  C   UNL     1      -3.221  -4.818   0.675  0.00  0.00    -0.010 A 
ENDROOT
BRANCH   1   9
ATOM      7  C   UNL     1      -1.433  -0.534   0.013  0.00  0.00    +0.135 C 
ATOM      8  C   UNL     1      -1.414  -2.062   0.128  0.00  0.00    +0.136 C 
ATOM      9  N   UNL     1      -2.788  -2.558  -0.052  0.00  0.00    -0.325 N 
ATOM     10  C   UNL     1      -3.545  -2.089  -1.223  0.00  0.00    +0.133 C 
ATOM     11  C   UNL     1      -3.460  -0.559  -1.272  0.00  0.00    +0.179 C 
ATOM     12  O   UNL     1      -2.089  -0.160  -1.201  0.00  0.00    -0.373 OA
BRANCH   7  14
ATOM     13  C   UNL     1      -0.019   1.526   0.010  0.00  0.00    +0.006 C 
ATOM     14  C   UNL     1       0.002  -0.004   0.002  0.00  0.00    +0.030 C 
ENDBRANCH   7  14
ENDBRANCH   1   9
BRANCH   4  15
ATOM     15  N   UNL     1      -5.085  -6.156   3.640  0.00  0.00    +0.056 N 
ATOM     16  O   UNL     1      -5.700  -5.735   4.592  0.00  0.00    -0.126 OA
ATOM     17  O   UNL     1      -4.963  -7.348   3.478  0.00  0.00    -0.126 OA
ENDBRANCH   4  15
BRANCH   6  18
ATOM     18  C   UNL     1      -2.460  -5.346  -0.514  0.00  0.00    +0.145 C 
ATOM     19 CL   UNL     1      -0.721  -5.539  -0.077  0.00  0.00    -0.120 Cl
ENDBRANCH   6  18
TORSDOF 4
