REMARK  Name = ZINC63403976
REMARK  11 active torsions:
REMARK  status: ('A' for Active; 'I' for Inactive)
REMARK    1  A    between atoms: C_1  and  C_2
REMARK    2  A    between atoms: C_2  and  C_4
REMARK    3  A    between atoms: C_2  and  S_16
REMARK    4  A    between atoms: N_6  and  C_7
REMARK    5  A    between atoms: C_10  and  N_13
REMARK    6  A    between atoms: N_13  and  C_14
REMARK    7  A    between atoms: N_13  and  C_15
REMARK    8  A    between atoms: S_16  and  C_17
REMARK    9  A    between atoms: C_21  and  C_30
REMARK   10  A    between atoms: N_22  and  C_23
REMARK   11  A    between atoms: C_23  and  C_24
REMARK                            x       y       z     vdW  Elec       q    Type
REMARK                         _______ _______ _______ _____ _____    ______ ____
ROOT
ATOM      1  C   UNL     1       1.265  -0.206  -2.693  0.00  0.00    +0.237 C 
ATOM      2  N   UNL     1       1.985  -1.236  -1.927  0.00  0.00    -0.237 N 
ATOM      3  N   UNL     1       2.963  -0.567  -1.182  0.00  0.00    -0.169 NA
ATOM      4  C   UNL     1       2.925   0.722  -1.397  0.00  0.00    +0.147 C 
ATOM      5  N   UNL     1       1.919   1.057  -2.312  0.00  0.00    -0.283 N 
ATOM      6  H   UNL     1       1.816  -2.191  -1.937  0.00  0.00    +0.171 HD
ENDROOT
BRANCH   4   7
ATOM      7  C   UNL     1       3.783   1.651  -0.790  0.00  0.00    +0.022 C 
ATOM      8  C   UNL     1       4.871   1.378   0.039  0.00  0.00    +0.006 A 
ATOM      9  C   UNL     1       5.432   0.172   0.509  0.00  0.00    +0.010 A 
ATOM     10  C   UNL     1       6.518   0.206   1.324  0.00  0.00    +0.001 A 
ATOM     11  C   UNL     1       7.102   1.414   1.713  0.00  0.00    +0.002 A 
ATOM     12  C   UNL     1       6.616   2.610   1.299  0.00  0.00    +0.026 A 
ATOM     13  C   UNL     1       5.483   2.654   0.446  0.00  0.00    +0.043 A 
ATOM     14  N   UNL     1       4.831   3.669  -0.086  0.00  0.00    -0.380 N 
ATOM     15  C   UNL     1       3.726   3.159  -0.904  0.00  0.00    +0.152 C 
ATOM     16  H   UNL     1       5.050   4.605   0.041  0.00  0.00    +0.160 HD
ENDBRANCH   4   7
BRANCH   1  17
ATOM     17  S   UNL     1      -0.488  -0.178  -2.227  0.00  0.00    -0.106 S 
BRANCH  17  19
ATOM     18  C   UNL     1      -0.011   1.244   0.061  0.00  0.00    +0.029 C 
ATOM     19  C   UNL     1      -0.459  -0.140  -0.413  0.00  0.00    +0.133 C 
BRANCH  19  20
ATOM     20  C   UNL     1      -1.840  -0.430   0.117  0.00  0.00    +0.230 C 
ATOM     21  O   UNL     1      -2.808  -0.285  -0.599  0.00  0.00    -0.274 OA
ATOM     22  N   UNL     1      -1.999  -0.851   1.387  0.00  0.00    -0.285 N 
ATOM     23  H   UNL     1      -1.234  -0.898   1.982  0.00  0.00    +0.155 HD
BRANCH  22  24
ATOM     24  C   UNL     1      -3.269  -1.220   1.849  0.00  0.00    +0.034 A 
ATOM     25  C   UNL     1      -3.627  -0.974   3.168  0.00  0.00    +0.025 A 
ATOM     26  C   UNL     1      -4.879  -1.337   3.623  0.00  0.00    +0.025 A 
ATOM     27  C   UNL     1      -5.780  -1.949   2.762  0.00  0.00    +0.029 A 
ATOM     28  C   UNL     1      -5.422  -2.196   1.443  0.00  0.00    +0.025 A 
ATOM     29  C   UNL     1      -4.172  -1.827   0.987  0.00  0.00    +0.025 A 
BRANCH  27  30
ATOM     30  N   UNL     1      -7.048  -2.318   3.223  0.00  0.00    -0.336 N 
ATOM     31  C   UNL     1      -7.426  -2.059   4.615  0.00  0.00    +0.129 C 
ATOM     32  C   UNL     1      -7.999  -2.963   2.314  0.00  0.00    +0.129 C 
ENDBRANCH  27  30
ENDBRANCH  22  24
ENDBRANCH  19  20
ENDBRANCH  17  19
ENDBRANCH   1  17
BRANCH   5  33
ATOM     33  C   UNL     1       1.582   2.398  -2.795  0.00  0.00    +0.140 C 
BRANCH  33  34
ATOM     34  C   UNL     1       2.443   2.732  -4.015  0.00  0.00    +0.136 C 
ATOM     35  C   UNL     1       2.163   4.180  -4.473  0.00  0.00    +0.035 C 
ATOM     36  C   UNL     1       2.190   4.048  -6.020  0.00  0.00    +0.031 C 
ATOM     37  C   UNL     1       1.594   2.629  -6.203  0.00  0.00    +0.160 C 
ATOM     38  O   UNL     1       2.106   1.861  -5.101  0.00  0.00    -0.375 OA
ENDBRANCH  33  34
ENDBRANCH   5  33
TORSDOF 8
