REMARK  Name = ZINC56480169
REMARK  7 active torsions:
REMARK  status: ('A' for Active; 'I' for Inactive)
REMARK    1  A    between atoms: C_1  and  C_2
REMARK    2  A    between atoms: C_6  and  C_12
REMARK    3  A    between atoms: C_10  and  C_11
REMARK    4  A    between atoms: C_12  and  C_13
REMARK    5  A    between atoms: N_15  and  N_16
REMARK    6  A    between atoms: C_17  and  C_19
REMARK    7  A    between atoms: C_22  and  C_24
REMARK                            x       y       z     vdW  Elec       q    Type
REMARK                         _______ _______ _______ _____ _____    ______ ____
ROOT
ATOM      1  C   UNL     1       1.489  -5.643  -1.072  0.00  0.00    +0.234 C 
ATOM      2  O   UNL     1       2.400  -4.971  -0.638  0.00  0.00    -0.274 OA
ATOM      3  N   UNL     1       1.744  -6.648  -1.933  0.00  0.00    -0.234 N 
ATOM      4  H   UNL     1       1.015  -7.185  -2.281  0.00  0.00    +0.173 HD
ENDROOT
BRANCH   3   5
ATOM      5  N   UNL     1       3.061  -6.917  -2.326  0.00  0.00    -0.226 N 
ATOM      6  C   UNL     1       3.316  -7.922  -3.187  0.00  0.00    +0.317 C 
ATOM      7  O   UNL     1       2.402  -8.596  -3.623  0.00  0.00    -0.263 OA
ATOM      8  H   UNL     1       3.790  -6.380  -1.978  0.00  0.00    +0.173 HD
BRANCH   6   9
ATOM      9  C   UNL     1       4.701  -8.205  -3.600  0.00  0.00    +0.305 A 
ATOM     10  N   UNL     1       5.777  -7.562  -3.203  0.00  0.00    -0.102 NA
ATOM     11  N   UNL     1       6.813  -8.079  -3.765  0.00  0.00    -0.107 NA
ATOM     12  C   UNL     1       6.436  -9.074  -4.544  0.00  0.00    +0.249 A 
ATOM     13  O   UNL     1       5.099  -9.175  -4.451  0.00  0.00    -0.412 OA
BRANCH  12  14
ATOM     14  C   UNL     1       7.322  -9.924  -5.365  0.00  0.00    +0.038 A 
ATOM     15  C   UNL     1       6.783 -10.944  -6.152  0.00  0.00    +0.013 A 
ATOM     16  C   UNL     1       7.615 -11.735  -6.917  0.00  0.00    +0.001 A 
ATOM     17  C   UNL     1       8.982 -11.519  -6.904  0.00  0.00    +0.000 A 
ATOM     18  C   UNL     1       9.523 -10.511  -6.126  0.00  0.00    +0.001 A 
ATOM     19  C   UNL     1       8.702  -9.709  -5.362  0.00  0.00    +0.013 A 
ENDBRANCH  12  14
ENDBRANCH   6   9
ENDBRANCH   3   5
BRANCH   1  20
ATOM     20  C   UNL     1       0.071  -5.354  -0.650  0.00  0.00    +0.136 C 
BRANCH  20  26
ATOM     21  C   UNL     1      -0.018   1.503   0.010  0.00  0.00    +0.044 C 
ATOM     22  C   UNL     1       0.002  -0.004   0.002  0.00  0.00    -0.044 A 
ATOM     23  C   UNL     1       0.006  -0.684  -1.207  0.00  0.00    +0.004 A 
ATOM     24  C   UNL     1       0.024  -2.051  -1.233  0.00  0.00    +0.012 A 
ATOM     25  C   UNL     1       0.039  -2.764  -0.035  0.00  0.00    +0.024 A 
ATOM     26  C   UNL     1       0.060  -4.191   0.309  0.00  0.00    +0.007 A 
ATOM     27  C   UNL     1       0.068  -4.252   1.648  0.00  0.00    +0.200 A 
ATOM     28  O   UNL     1       0.054  -3.012   2.168  0.00  0.00    -0.462 OA
ATOM     29  C   UNL     1       0.036  -2.082   1.192  0.00  0.00    +0.138 A 
ATOM     30  C   UNL     1       0.023  -0.693   1.196  0.00  0.00    -0.005 A 
ATOM     31  C   UNL     1       0.025   0.060   2.502  0.00  0.00    +0.048 C 
ENDBRANCH  20  26
ENDBRANCH   1  20
TORSDOF 5
