REMARK  Name = ZINC15548535
REMARK  7 active torsions:
REMARK  status: ('A' for Active; 'I' for Inactive)
REMARK    1  A    between atoms: C_1  and  C_2
REMARK    2  A    between atoms: C_2  and  O_3
REMARK    3  A    between atoms: O_3  and  C_4
REMARK    4  A    between atoms: C_7  and  C_10
REMARK    5  A    between atoms: C_15  and  C_16
REMARK    6  A    between atoms: C_15  and  N_48
REMARK    7  A    between atoms: N_18  and  C_19
REMARK                            x       y       z     vdW  Elec       q    Type
REMARK                         _______ _______ _______ _____ _____    ______ ____
ROOT
ATOM      1  C   UNL     1      -7.293   3.596  -0.591  0.00  0.00    -0.037 C 
ATOM      2  C   UNL     1      -8.391   2.794   0.150  0.00  0.00    -0.013 C 
ATOM      3  C   UNL     1      -7.676   2.439   1.480  0.00  0.00    -0.020 C 
ATOM      4  C   UNL     1      -6.215   2.207   1.038  0.00  0.00    -0.077 C 
ATOM      5  N   UNL     1      -6.036   2.903  -0.246  0.00  0.00    +0.390 N 
ATOM      6  H   UNL     1      -5.814   2.217  -0.977  0.00  0.00    -0.080 HD
ENDROOT
BRANCH   1  10
ATOM      7  C   UNL     1      -7.936   3.448  -4.814  0.00  0.00    +0.121 A 
ATOM      8  C   UNL     1      -8.240   4.601  -4.105  0.00  0.00    +0.046 A 
ATOM      9  C   UNL     1      -8.031   4.646  -2.740  0.00  0.00    +0.005 A 
ATOM     10  C   UNL     1      -7.519   3.544  -2.080  0.00  0.00    -0.061 A 
ATOM     11  C   UNL     1      -7.210   2.396  -2.785  0.00  0.00    +0.005 A 
ATOM     12  C   UNL     1      -7.422   2.343  -4.150  0.00  0.00    +0.046 A 
BRANCH   7  13
ATOM     13  O   UNL     1      -8.140   3.400  -6.156  0.00  0.00    -0.492 OA
BRANCH  13  15
ATOM     14  C   UNL     1      -8.101   2.316  -8.316  0.00  0.00    +0.048 C 
ATOM     15  C   UNL     1      -7.804   2.181  -6.821  0.00  0.00    +0.225 C 
ENDBRANCH  13  15
ENDBRANCH   7  13
ENDBRANCH   1  10
BRANCH   5  16
ATOM     16  C   UNL     1      -4.922   3.882  -0.147  0.00  0.00    +0.020 C 
BRANCH  16  17
ATOM     17  C   UNL     1      -3.615   3.140  -0.049  0.00  0.00    +0.201 C 
ATOM     18  O   UNL     1      -3.604   1.927  -0.056  0.00  0.00    -0.278 OA
ATOM     19  N   UNL     1      -2.457   3.823   0.046  0.00  0.00    -0.286 N 
ATOM     20  H   UNL     1      -2.469   4.790   0.117  0.00  0.00    +0.155 HD
BRANCH  19  21
ATOM     21  C   UNL     1      -1.237   3.137   0.041  0.00  0.00    +0.047 A 
ATOM     22  C   UNL     1      -1.139   1.887   0.639  0.00  0.00    +0.024 A 
ATOM     23  C   UNL     1       0.067   1.215   0.637  0.00  0.00    +0.002 A 
ATOM     24  C   UNL     1       1.175   1.780   0.031  0.00  0.00    +0.001 A 
ATOM     25  C   UNL     1       1.080   3.021  -0.570  0.00  0.00    +0.016 A 
ATOM     26  C   UNL     1      -0.123   3.702  -0.567  0.00  0.00    +0.035 A 
ATOM     27  I   UNL     1      -0.266   5.583  -1.478  0.00  0.00    -0.042 I 
ENDBRANCH  19  21
ENDBRANCH  16  17
ENDBRANCH   5  16
TORSDOF 6
