REMARK  Name = ZINC43218931
REMARK  5 active torsions:
REMARK  status: ('A' for Active; 'I' for Inactive)
REMARK    1  A    between atoms: C_4  and  C_7
REMARK    2  A    between atoms: C_7  and  C_34
REMARK    3  A    between atoms: C_12  and  C_15
REMARK    4  A    between atoms: C_20  and  O_21
REMARK    5  A    between atoms: N_25  and  C_28
REMARK                            x       y       z     vdW  Elec       q    Type
REMARK                         _______ _______ _______ _____ _____    ______ ____
ROOT
ATOM      1  C   UNL     1       3.647  -0.854   0.096  0.00  0.00    +0.074 C 
ATOM      2  C   UNL     1       3.759  -2.184   0.870  0.00  0.00    +0.090 C 
ATOM      3  C   UNL     1       5.198  -2.186   1.453  0.00  0.00    +0.077 C 
ATOM      4  C   UNL     1       5.825  -0.864   0.963  0.00  0.00    -0.023 C 
ATOM      5  N   UNL     1       4.658   0.034   0.725  0.00  0.00    +0.398 N 
ATOM      6  C   UNL     1       4.970  -2.122   2.946  0.00  0.00    +0.225 C 
ATOM      7  O   UNL     1       5.842  -2.103   3.788  0.00  0.00    -0.275 OA
ATOM      8  N   UNL     1       3.655  -2.089   3.194  0.00  0.00    -0.239 N 
ATOM      9  C   UNL     1       2.870  -2.125   2.092  0.00  0.00    +0.225 C 
ATOM     10  O   UNL     1       1.658  -2.111   2.077  0.00  0.00    -0.275 OA
ATOM     11  H   UNL     1       4.915   0.779   0.095  0.00  0.00    -0.083 HD
ATOM     12  H   UNL     1       4.307   0.410   1.593  0.00  0.00    -0.083 HD
ENDROOT
BRANCH   4  13
ATOM     13  C   UNL     1       6.713  -0.278   2.030  0.00  0.00    -0.018 A 
ATOM     14  C   UNL     1       6.239   0.729   2.849  0.00  0.00    +0.020 A 
ATOM     15  C   UNL     1       7.054   1.267   3.828  0.00  0.00    +0.018 A 
ATOM     16  C   UNL     1       8.346   0.799   3.990  0.00  0.00    +0.019 A 
ATOM     17  C   UNL     1       8.824  -0.207   3.174  0.00  0.00    +0.047 A 
ATOM     18  C   UNL     1       8.007  -0.752   2.194  0.00  0.00    +0.119 A 
ATOM     19 BR   UNL     1       6.402   2.645   4.947  0.00  0.00    -0.050 Br
BRANCH  18  20
ATOM     20  O   UNL     1       8.474  -1.746   1.393  0.00  0.00    -0.507 OA
ATOM     21  H   UNL     1       8.903  -1.432   0.586  0.00  0.00    +0.292 HD
ENDBRANCH  18  20
ENDBRANCH   4  13
BRANCH   1  25
ATOM     22  C   UNL     1      -0.266   0.801   0.536  0.00  0.00    +0.000 A 
ATOM     23  C   UNL     1       0.827   1.462   1.064  0.00  0.00    +0.000 A 
ATOM     24  C   UNL     1       2.093   0.927   0.922  0.00  0.00    +0.003 A 
ATOM     25  C   UNL     1       2.267  -0.270   0.252  0.00  0.00    -0.047 A 
ATOM     26  C   UNL     1       1.173  -0.932  -0.275  0.00  0.00    +0.003 A 
ATOM     27  C   UNL     1      -0.093  -0.395  -0.134  0.00  0.00    +0.000 A 
ENDBRANCH   1  25
BRANCH   8  28
ATOM     28  C   UNL     1       3.106  -2.025   4.550  0.00  0.00    +0.084 C 
ATOM     29  C   UNL     1       3.561  -3.252   5.343  0.00  0.00    +0.023 C 
ATOM     30  C   UNL     1       2.987  -3.185   6.760  0.00  0.00    +0.002 C 
ATOM     31  C   UNL     1       3.486  -1.916   7.453  0.00  0.00    +0.000 C 
ATOM     32  C   UNL     1       3.031  -0.689   6.660  0.00  0.00    +0.002 C 
ATOM     33  C   UNL     1       3.605  -0.756   5.244  0.00  0.00    +0.023 C 
ENDBRANCH   8  28
BRANCH   1  34
ATOM     34  C   UNL     1       3.966  -1.063  -1.362  0.00  0.00    +0.350 C 
ATOM     35  O   UNL     1       4.913  -0.485  -1.867  0.00  0.00    -0.248 OA
ATOM     36  O   UNL     1       3.277  -1.810  -2.035  0.00  0.00    -0.248 OA
ENDBRANCH   1  34
TORSDOF 5
