REMARK  Name = ZINC39729254
REMARK  8 active torsions:
REMARK  status: ('A' for Active; 'I' for Inactive)
REMARK    1  A    between atoms: C_1  and  C_2
REMARK    2  A    between atoms: C_7  and  N_30
REMARK    3  A    between atoms: C_8  and  C_13
REMARK    4  A    between atoms: N_17  and  C_21
REMARK    5  A    between atoms: C_21  and  C_22
REMARK    6  A    between atoms: C_25  and  O_28
REMARK    7  A    between atoms: O_28  and  C_29
REMARK    8  A    between atoms: C_35  and  C_37
REMARK                            x       y       z     vdW  Elec       q    Type
REMARK                         _______ _______ _______ _____ _____    ______ ____
ROOT
ATOM      1  C   UNL     1       0.136   1.545  -0.096  0.00  0.00    +0.045 C 
ATOM      2  C   UNL     1       0.101   0.039  -0.069  0.00  0.00    -0.034 A 
ATOM      3  C   UNL     1       0.049  -0.681  -1.271  0.00  0.00    +0.008 A 
ATOM      4  C   UNL     1       0.019  -2.044  -1.237  0.00  0.00    +0.047 A 
ATOM      5  C   UNL     1       0.040  -2.708   0.002  0.00  0.00    +0.142 A 
ATOM      6  N   UNL     1       0.009  -4.041   0.025  0.00  0.00    -0.214 NA
ATOM      7  C   UNL     1       0.027  -4.717   1.164  0.00  0.00    +0.136 A 
ATOM      8  C   UNL     1       0.079  -4.016   2.391  0.00  0.00    +0.081 A 
ATOM      9  C   UNL     1       0.111  -2.601   2.356  0.00  0.00    +0.267 A 
ATOM     10  O   UNL     1       0.156  -1.956   3.389  0.00  0.00    -0.267 OA
ATOM     11  N   UNL     1       0.091  -1.978   1.157  0.00  0.00    -0.267 N 
ATOM     12  C   UNL     1       0.126  -0.616   1.113  0.00  0.00    +0.099 A 
ENDROOT
BRANCH   8  13
ATOM     13  C   UNL     1       0.099  -4.710   3.623  0.00  0.00    +0.037 C 
ATOM     14  C   UNL     1      -0.956  -4.605   4.483  0.00  0.00    +0.077 C 
ATOM     15  C   UNL     1      -2.213  -3.961   4.300  0.00  0.00    +0.259 C 
ATOM     16  O   UNL     1      -2.479  -3.393   3.255  0.00  0.00    -0.269 OA
ATOM     17  N   UNL     1      -3.083  -3.998   5.294  0.00  0.00    -0.251 N 
ATOM     18  C   UNL     1      -2.787  -4.629   6.452  0.00  0.00    +0.121 C 
ATOM     19  S   UNL     1      -3.751  -4.801   7.857  0.00  0.00    -0.027 S 
ATOM     20  S   UNL     1      -1.140  -5.246   6.141  0.00  0.00    -0.061 S 
BRANCH  17  21
ATOM     21  C   UNL     1      -4.385  -3.345   5.139  0.00  0.00    +0.150 C 
BRANCH  21  22
ATOM     22  C   UNL     1      -5.374  -4.327   4.567  0.00  0.00    -0.029 A 
ATOM     23  C   UNL     1      -5.521  -4.440   3.197  0.00  0.00    +0.009 A 
ATOM     24  C   UNL     1      -6.428  -5.339   2.670  0.00  0.00    +0.046 A 
ATOM     25  C   UNL     1      -7.191  -6.129   3.517  0.00  0.00    +0.120 A 
ATOM     26  C   UNL     1      -7.042  -6.014   4.891  0.00  0.00    +0.046 A 
ATOM     27  C   UNL     1      -6.130  -5.117   5.413  0.00  0.00    +0.009 A 
BRANCH  25  28
ATOM     28  O   UNL     1      -8.084  -7.014   3.001  0.00  0.00    -0.495 OA
ATOM     29  C   UNL     1      -8.836  -7.795   3.932  0.00  0.00    +0.277 C 
ENDBRANCH  25  28
ENDBRANCH  21  22
ENDBRANCH  17  21
ENDBRANCH   8  13
BRANCH   7  30
ATOM     30  N   UNL     1      -0.005  -6.095   1.153  0.00  0.00    -0.312 N 
ATOM     31  C   UNL     1      -1.279  -6.814   1.286  0.00  0.00    +0.107 C 
ATOM     32  C   UNL     1      -1.417  -7.794   0.116  0.00  0.00    +0.019 C 
ATOM     33  C   UNL     1      -0.185  -8.701   0.068  0.00  0.00    +0.003 C 
ATOM     34  C   UNL     1       1.068  -7.851  -0.158  0.00  0.00    +0.022 C 
ATOM     35  C   UNL     1       1.232  -6.872   1.002  0.00  0.00    +0.072 C 
ATOM     36  C   UNL     1       2.399  -5.926   0.711  0.00  0.00    +0.028 C 
ENDBRANCH   7  30
TORSDOF 5
