REMARK  Name = ZINC39945763
REMARK  9 active torsions:
REMARK  status: ('A' for Active; 'I' for Inactive)
REMARK    1  A    between atoms: C_1  and  O_2
REMARK    2  A    between atoms: O_2  and  C_3
REMARK    3  A    between atoms: C_6  and  C_22
REMARK    4  A    between atoms: C_8  and  S_9
REMARK    5  A    between atoms: S_9  and  N_12
REMARK    6  A    between atoms: C_22  and  O_24
REMARK    7  A    between atoms: O_24  and  C_25
REMARK    8  A    between atoms: C_25  and  C_26
REMARK    9  A    between atoms: C_26  and  C_28
REMARK                            x       y       z     vdW  Elec       q    Type
REMARK                         _______ _______ _______ _____ _____    ______ ____
ROOT
ATOM      1  C   UNL     1       0.211  -0.380  -0.690  0.00  0.00    +0.147 A 
ATOM      2  C   UNL     1       0.588   0.607  -1.593  0.00  0.00    +0.048 A 
ATOM      3  C   UNL     1       1.161   0.259  -2.796  0.00  0.00    +0.018 A 
ATOM      4  C   UNL     1       1.365  -1.088  -3.107  0.00  0.00    +0.061 A 
ATOM      5  C   UNL     1       0.985  -2.077  -2.196  0.00  0.00    +0.047 A 
ATOM      6  C   UNL     1       0.417  -1.721  -0.993  0.00  0.00    +0.151 A 
ENDROOT
BRANCH   6   7
ATOM      7  S   UNL     1      -0.056  -2.966   0.160  0.00  0.00    +0.078 S 
ATOM      8  O   UNL     1      -1.389  -2.670   0.554  0.00  0.00    -0.150 OA
ATOM      9  O   UNL     1       0.309  -4.213  -0.416  0.00  0.00    -0.150 OA
BRANCH   7  10
ATOM     10  N   UNL     1       0.889  -2.772   1.506  0.00  0.00    -0.203 N 
ATOM     11  C   UNL     1       0.298  -2.327   2.776  0.00  0.00    +0.132 C 
ATOM     12  C   UNL     1       1.217  -1.252   3.369  0.00  0.00    +0.025 C 
ATOM     13  C   UNL     1       2.576  -1.880   3.679  0.00  0.00    +0.038 C 
ATOM     14  C   UNL     1       3.104  -2.614   2.474  0.00  0.00    -0.025 A 
ATOM     15  C   UNL     1       2.262  -3.034   1.454  0.00  0.00    +0.054 A 
ATOM     16  C   UNL     1       2.780  -3.719   0.361  0.00  0.00    +0.025 A 
ATOM     17  C   UNL     1       4.133  -3.985   0.289  0.00  0.00    +0.002 A 
ATOM     18  C   UNL     1       4.972  -3.569   1.306  0.00  0.00    +0.000 A 
ATOM     19  C   UNL     1       4.461  -2.878   2.392  0.00  0.00    +0.005 A 
ENDBRANCH   7  10
ENDBRANCH   6   7
BRANCH   1  21
ATOM     20  C   UNL     1      -0.537   1.362   0.742  0.00  0.00    +0.277 C 
ATOM     21  O   UNL     1      -0.354  -0.033   0.494  0.00  0.00    -0.493 OA
ENDBRANCH   1  21
BRANCH   4  22
ATOM     22  C   UNL     1       1.978  -1.465  -4.394  0.00  0.00    +0.340 C 
ATOM     23  O   UNL     1       2.155  -2.637  -4.663  0.00  0.00    -0.245 OA
BRANCH  22  24
ATOM     24  O   UNL     1       2.344  -0.510  -5.271  0.00  0.00    -0.453 OA
BRANCH  24  25
ATOM     25  C   UNL     1       2.932  -0.947  -6.498  0.00  0.00    +0.311 C 
BRANCH  25  26
ATOM     26  C   UNL     1       3.273   0.251  -7.346  0.00  0.00    +0.199 C 
ATOM     27  O   UNL     1       3.036   1.370  -6.940  0.00  0.00    -0.289 OA
BRANCH  26  28
ATOM     28  C   UNL     1       3.869   0.071  -8.613  0.00  0.00    +0.026 C 
ATOM     29  C   UNL     1       4.247   1.057  -9.507  0.00  0.00    +0.006 A 
ATOM     30  C   UNL     1       4.174   2.470  -9.469  0.00  0.00    +0.010 A 
ATOM     31  C   UNL     1       4.629   3.204 -10.509  0.00  0.00    +0.001 A 
ATOM     32  C   UNL     1       5.186   2.619 -11.658  0.00  0.00    +0.002 A 
ATOM     33  C   UNL     1       5.301   1.280 -11.794  0.00  0.00    +0.026 A 
ATOM     34  C   UNL     1       4.830   0.407 -10.706  0.00  0.00    +0.043 A 
ATOM     35  N   UNL     1       4.818  -0.888 -10.574  0.00  0.00    -0.380 N 
ATOM     36  C   UNL     1       4.234  -1.239  -9.275  0.00  0.00    +0.152 C 
ATOM     37  H   UNL     1       5.148  -1.522 -11.230  0.00  0.00    +0.160 HD
ENDBRANCH  26  28
ENDBRANCH  25  26
ENDBRANCH  24  25
ENDBRANCH  22  24
ENDBRANCH   4  22
TORSDOF 8
