REMARK  Name = ZINC39981604
REMARK  8 active torsions:
REMARK  status: ('A' for Active; 'I' for Inactive)
REMARK    1  A    between atoms: C_1  and  C_2
REMARK    2  A    between atoms: C_5  and  N_8
REMARK    3  A    between atoms: N_8  and  C_9
REMARK    4  A    between atoms: C_9  and  C_11
REMARK    5  A    between atoms: C_9  and  C_16
REMARK    6  A    between atoms: N_18  and  C_19
REMARK    7  A    between atoms: C_22  and  C_24
REMARK    8  A    between atoms: C_24  and  N_25
REMARK                            x       y       z     vdW  Elec       q    Type
REMARK                         _______ _______ _______ _____ _____    ______ ____
ROOT
ATOM      1  N   UNL     1      -0.935  -4.117   0.087  0.00  0.00    -0.253 N 
ATOM      2  C   UNL     1      -0.476  -4.507  -1.119  0.00  0.00    +0.242 C 
ATOM      3  O   UNL     1       0.136  -5.548  -1.227  0.00  0.00    -0.273 OA
ENDROOT
BRANCH   1   8
ATOM      4  C   UNL     1      -4.261   0.460   0.511  0.00  0.00    +0.044 C 
ATOM      5  C   UNL     1      -3.377  -0.756   0.398  0.00  0.00    -0.050 A 
ATOM      6  C   UNL     1      -2.270  -0.730  -0.430  0.00  0.00    +0.005 A 
ATOM      7  C   UNL     1      -1.458  -1.843  -0.536  0.00  0.00    +0.024 A 
ATOM      8  C   UNL     1      -1.755  -2.988   0.192  0.00  0.00    +0.038 A 
ATOM      9  C   UNL     1      -2.867  -3.010   1.023  0.00  0.00    +0.024 A 
ATOM     10  C   UNL     1      -3.672  -1.893   1.128  0.00  0.00    +0.005 A 
ENDBRANCH   1   8
BRANCH   1  11
ATOM     11  C   UNL     1      -0.574  -4.874   1.288  0.00  0.00    +0.204 C 
BRANCH  11  12
ATOM     12  C   UNL     1      -0.099  -3.925   2.357  0.00  0.00    +0.019 A 
ATOM     13  C   UNL     1       0.735  -4.161   3.399  0.00  0.00    +0.013 A 
ATOM     14  C   UNL     1       1.036  -3.127   4.265  0.00  0.00    +0.008 A 
ATOM     15  C   UNL     1       0.489  -1.906   4.046  0.00  0.00    +0.045 A 
ATOM     16  S   UNL     1      -0.481  -2.195   2.575  0.00  0.00    -0.099 S 
ENDBRANCH  11  12
BRANCH  11  17
ATOM     17  C   UNL     1      -1.780  -5.629   1.786  0.00  0.00    +0.239 C 
ATOM     18  O   UNL     1      -2.836  -5.543   1.196  0.00  0.00    -0.273 OA
ATOM     19  N   UNL     1      -1.684  -6.400   2.887  0.00  0.00    -0.311 N 
ATOM     20  H   UNL     1      -0.839  -6.469   3.359  0.00  0.00    +0.149 HD
BRANCH  19  21
ATOM     21  C   UNL     1      -2.856  -7.134   3.372  0.00  0.00    +0.073 C 
ATOM     22  C   UNL     1      -3.125  -7.121   4.878  0.00  0.00    +0.024 C 
ATOM     23  C   UNL     1      -2.607  -8.393   4.204  0.00  0.00    +0.024 C 
ENDBRANCH  19  21
ENDBRANCH  11  17
ENDBRANCH   1  11
BRANCH   2  24
ATOM     24  C   UNL     1      -0.725  -3.650  -2.333  0.00  0.00    +0.242 C 
BRANCH  24  25
ATOM     25  N   UNL     1      -1.134  -4.499  -3.455  0.00  0.00    -0.235 N 
ATOM     26  C   UNL     1      -0.309  -5.095  -4.379  0.00  0.00    +0.090 A 
ATOM     27  C   UNL     1       1.068  -5.114  -4.575  0.00  0.00    +0.029 A 
ATOM     28  C   UNL     1       1.596  -5.822  -5.618  0.00  0.00    +0.002 A 
ATOM     29  C   UNL     1       0.769  -6.524  -6.486  0.00  0.00    +0.002 A 
ATOM     30  C   UNL     1      -0.585  -6.521  -6.315  0.00  0.00    +0.032 A 
ATOM     31  C   UNL     1      -1.151  -5.803  -5.253  0.00  0.00    +0.113 A 
ATOM     32  N   UNL     1      -2.421  -5.616  -4.840  0.00  0.00    -0.129 NA
ATOM     33  N   UNL     1      -2.444  -4.868  -3.794  0.00  0.00    -0.064 NA
ENDBRANCH  24  25
ENDBRANCH   2  24
TORSDOF 7
