REMARK  Name = ZINC00114996
REMARK  3 active torsions:
REMARK  status: ('A' for Active; 'I' for Inactive)
REMARK    1  A    between atoms: C_3  and  C_9
REMARK    2  A    between atoms: C_12  and  C_14
REMARK    3  A    between atoms: N_15  and  N_16
REMARK                            x       y       z     vdW  Elec       q    Type
REMARK                         _______ _______ _______ _____ _____    ______ ____
ROOT
ATOM      1  C   UNL     1       1.278  -0.433  -0.013  0.00  0.00    +0.137 A 
ATOM      2  C   UNL     1       2.104   0.653  -0.015  0.00  0.00    +0.050 A 
ATOM      3  C   UNL     1       1.288   1.791  -0.001  0.00  0.00    +0.051 A 
ATOM      4  C   UNL     1      -0.016   1.345   0.009  0.00  0.00    +0.148 A 
ATOM      5  O   UNL     1       0.002  -0.004   0.002  0.00  0.00    -0.454 OA
ENDROOT
BRANCH   1   8
ATOM      6  C   UNL     1       3.050  -3.601  -0.968  0.00  0.00    +0.021 A 
ATOM      7  C   UNL     1       2.645  -2.283  -0.965  0.00  0.00    +0.014 A 
ATOM      8  C   UNL     1       1.711  -1.844  -0.025  0.00  0.00    +0.036 A 
ATOM      9  C   UNL     1       1.183  -2.749   0.902  0.00  0.00    +0.053 A 
ATOM     10  C   UNL     1       1.593  -4.066   0.884  0.00  0.00    +0.040 A 
ATOM     11  C   UNL     1       2.524  -4.493  -0.048  0.00  0.00    +0.042 A 
ATOM     12 CL   UNL     1       3.034  -6.152  -0.064  0.00  0.00    -0.083 Cl
ATOM     13 CL   UNL     1       0.016  -2.216   2.071  0.00  0.00    -0.083 Cl
ENDBRANCH   1   8
BRANCH   4  14
ATOM     14  C   UNL     1      -1.212   2.188   0.020  0.00  0.00    +0.181 C 
ATOM     15  N   UNL     1      -2.394   1.641   0.023  0.00  0.00    -0.149 NA
BRANCH  15  16
ATOM     16  N   UNL     1      -3.539   2.448   0.033  0.00  0.00    -0.095 N 
ATOM     17  C   UNL     1      -4.840   2.041   0.038  0.00  0.00    +0.255 A 
ATOM     18  N   UNL     1      -5.582   3.128   0.048  0.00  0.00    -0.091 NA
ATOM     19  N   UNL     1      -4.843   4.177   0.050  0.00  0.00    -0.020 NA
ATOM     20  N   UNL     1      -3.595   3.853   0.047  0.00  0.00    -0.020 NA
ATOM     21  N   UNL     1      -5.295   0.733   0.034  0.00  0.00    -0.325 N 
ATOM     22  H   UNL     1      -4.660  -0.001   0.027  0.00  0.00    +0.145 HD
ATOM     23  H   UNL     1      -6.247   0.551   0.038  0.00  0.00    +0.145 HD
ENDBRANCH  15  16
ENDBRANCH   4  14
TORSDOF 3
