REMARK  Name = ZINC00822544
REMARK  7 active torsions:
REMARK  status: ('A' for Active; 'I' for Inactive)
REMARK    1  A    between atoms: C_3  and  O_8
REMARK    2  A    between atoms: O_8  and  C_9
REMARK    3  A    between atoms: C_9  and  C_10
REMARK    4  A    between atoms: N_12  and  N_13
REMARK    5  A    between atoms: C_14  and  C_15
REMARK    6  A    between atoms: C_17  and  O_23
REMARK    7  A    between atoms: C_18  and  O_22
REMARK                            x       y       z     vdW  Elec       q    Type
REMARK                         _______ _______ _______ _____ _____    ______ ____
ROOT
ATOM      1  C   UNL     1      -4.783   0.890   0.030  0.00  0.00    +0.270 C 
ATOM      2  O   UNL     1      -4.609  -0.311   0.024  0.00  0.00    -0.270 OA
ATOM      3  N   UNL     1      -6.035   1.390   0.039  0.00  0.00    -0.204 N 
ATOM      4  H   UNL     1      -6.174   2.350   0.045  0.00  0.00    +0.177 HD
ENDROOT
BRANCH   3   5
ATOM      5  N   UNL     1      -7.135   0.522   0.040  0.00  0.00    -0.188 NA
ATOM      6  C   UNL     1      -8.341   1.004   0.049  0.00  0.00    +0.138 C 
BRANCH   6   7
ATOM      7  C   UNL     1      -9.498   0.091   0.050  0.00  0.00    -0.001 A 
ATOM      8  C   UNL     1     -10.797   0.608   0.064  0.00  0.00    +0.058 A 
ATOM      9  C   UNL     1     -11.879  -0.252   0.060  0.00  0.00    +0.160 A 
ATOM     10  C   UNL     1     -11.675  -1.630   0.052  0.00  0.00    +0.173 A 
ATOM     11  C   UNL     1     -10.386  -2.144   0.043  0.00  0.00    +0.063 A 
ATOM     12  C   UNL     1      -9.300  -1.292   0.042  0.00  0.00    +0.028 A 
ATOM     13 BR   UNL     1     -10.116  -4.015   0.032  0.00  0.00    -0.046 Br
BRANCH  10  14
ATOM     14  O   UNL     1     -12.741  -2.474   0.053  0.00  0.00    -0.503 OA
ATOM     15  H   UNL     1     -13.045  -2.723   0.937  0.00  0.00    +0.292 HD
ENDBRANCH  10  14
BRANCH   9  16
ATOM     16  O   UNL     1     -13.144   0.247   0.068  0.00  0.00    -0.503 OA
ATOM     17  H   UNL     1     -13.506   0.388   0.954  0.00  0.00    +0.292 HD
ENDBRANCH   9  16
ENDBRANCH   6   7
ENDBRANCH   3   5
BRANCH   1  18
ATOM     18  C   UNL     1      -3.599   1.823   0.029  0.00  0.00    +0.326 C 
BRANCH  18  19
ATOM     19  O   UNL     1      -2.391   1.059   0.020  0.00  0.00    -0.483 OA
BRANCH  19  22
ATOM     20  C   UNL     1       1.174   1.783   0.000  0.00  0.00    +0.005 A 
ATOM     21  C   UNL     1      -0.013   1.076   0.008  0.00  0.00    +0.046 A 
ATOM     22  C   UNL     1      -1.223   1.753   0.017  0.00  0.00    +0.122 A 
ATOM     23  C   UNL     1      -1.239   3.141   0.029  0.00  0.00    +0.061 A 
ATOM     24  C   UNL     1      -0.049   3.844   0.022  0.00  0.00    +0.021 A 
ATOM     25  C   UNL     1       1.157   3.165   0.007  0.00  0.00    +0.015 A 
ATOM     26 BR   UNL     1      -0.069   5.735   0.031  0.00  0.00    -0.050 Br
ENDBRANCH  19  22
ENDBRANCH  18  19
ENDBRANCH   1  18
TORSDOF 7
