REMARK  Name = ZINC40139358
REMARK  9 active torsions:
REMARK  status: ('A' for Active; 'I' for Inactive)
REMARK    1  A    between atoms: C_1  and  C_2
REMARK    2  A    between atoms: C_2  and  C_3
REMARK    3  A    between atoms: C_2  and  C_4
REMARK    4  A    between atoms: C_2  and  O_5
REMARK    5  A    between atoms: O_5  and  C_6
REMARK    6  A    between atoms: C_11  and  N_14
REMARK    7  A    between atoms: N_14  and  C_15
REMARK    8  A    between atoms: N_14  and  S_16
REMARK    9  A    between atoms: S_16  and  C_19
REMARK                            x       y       z     vdW  Elec       q    Type
REMARK                         _______ _______ _______ _____ _____    ______ ____
ROOT
ATOM      1  N   UNL     1       5.126  -3.322  -4.256  0.00  0.00    -0.177 NA
ATOM      2  C   UNL     1       5.307  -4.321  -3.200  0.00  0.00    +0.132 C 
ENDROOT
BRANCH   1   8
ATOM      3  C   UNL     1       1.952  -0.085  -1.337  0.00  0.00    +0.403 C 
ATOM      4  O   UNL     1       2.488   0.619  -0.503  0.00  0.00    -0.226 OA
ATOM      5  N   UNL     1       2.641  -0.485  -2.424  0.00  0.00    -0.267 N 
ATOM      6  C   UNL     1       2.005  -1.331  -3.443  0.00  0.00    +0.112 C 
ATOM      7  C   UNL     1       2.874  -2.573  -3.666  0.00  0.00    +0.040 C 
ATOM      8  C   UNL     1       4.300  -2.137  -4.011  0.00  0.00    +0.082 C 
ATOM      9  C   UNL     1       4.888  -1.339  -2.845  0.00  0.00    +0.040 C 
ATOM     10  C   UNL     1       4.040  -0.078  -2.616  0.00  0.00    +0.112 C 
BRANCH   3  11
ATOM     11  O   UNL     1       0.671  -0.465  -1.174  0.00  0.00    -0.445 OA
BRANCH  11  13
ATOM     12  C   UNL     1      -0.019   1.526   0.010  0.00  0.00    +0.055 C 
ATOM     13  C   UNL     1       0.002  -0.004   0.002  0.00  0.00    +0.107 C 
ATOM     14  C   UNL     1       0.742  -0.511   1.242  0.00  0.00    +0.055 C 
ATOM     15  C   UNL     1      -1.433  -0.534   0.013  0.00  0.00    +0.055 C 
ENDBRANCH  11  13
ENDBRANCH   3  11
ENDBRANCH   1   8
BRANCH   1  16
ATOM     16  S   UNL     1       5.856  -3.531  -5.728  0.00  0.00    +0.057 S 
ATOM     17  O   UNL     1       6.085  -4.926  -5.873  0.00  0.00    -0.153 OA
ATOM     18  O   UNL     1       5.097  -2.783  -6.668  0.00  0.00    -0.153 OA
BRANCH  16  19
ATOM     19  C   UNL     1       7.441  -2.767  -5.638  0.00  0.00    +0.084 C 
ATOM     20  C   UNL     1       7.636  -1.604  -6.238  0.00  0.00    +0.032 C 
ATOM     21  C   UNL     1       8.972  -0.974  -6.198  0.00  0.00    -0.020 A 
ATOM     22  C   UNL     1       9.136   0.375  -6.505  0.00  0.00    +0.008 A 
ATOM     23  C   UNL     1      10.393   0.941  -6.445  0.00  0.00    +0.001 A 
ATOM     24  C   UNL     1      11.485   0.173  -6.080  0.00  0.00    +0.000 A 
ATOM     25  C   UNL     1      11.328  -1.169  -5.779  0.00  0.00    +0.004 A 
ATOM     26  C   UNL     1      10.078  -1.747  -5.844  0.00  0.00    -0.040 A 
ATOM     27  C   UNL     1       9.895  -3.214  -5.558  0.00  0.00    +0.042 C 
ATOM     28  C   UNL     1       8.545  -3.445  -4.875  0.00  0.00    +0.061 C 
ENDBRANCH  16  19
ENDBRANCH   1  16
TORSDOF 5
