REMARK  Name = ZINC06445477
REMARK  5 active torsions:
REMARK  status: ('A' for Active; 'I' for Inactive)
REMARK    1  A    between atoms: C_6  and  C_7
REMARK    2  A    between atoms: C_12  and  C_14
REMARK    3  A    between atoms: C_12  and  C_29
REMARK    4  A    between atoms: C_12  and  N_68
REMARK    5  A    between atoms: N_33  and  C_34
REMARK                            x       y       z     vdW  Elec       q    Type
REMARK                         _______ _______ _______ _____ _____    ______ ____
ROOT
ATOM      1  C   UNL     1      -2.491   0.995   0.019  0.00  0.00    +0.039 C 
ENDROOT
BRANCH   1   2
ATOM      2  C   UNL     1      -1.224   1.810  -0.022  0.00  0.00    +0.011 A 
ATOM      3  C   UNL     1      -0.025   1.188  -0.160  0.00  0.00    +0.017 A 
ATOM      4  C   UNL     1       1.186   2.007  -0.202  0.00  0.00    +0.002 A 
ATOM      5  C   UNL     1       2.449   1.421  -0.350  0.00  0.00    +0.059 A 
ATOM      6  C   UNL     1       3.572   2.217  -0.386  0.00  0.00    +0.167 A 
ATOM      7  C   UNL     1       3.454   3.609  -0.277  0.00  0.00    +0.168 A 
ATOM      8  C   UNL     1       2.210   4.196  -0.131  0.00  0.00    +0.075 A 
ATOM      9  C   UNL     1       1.068   3.406  -0.092  0.00  0.00    +0.053 A 
ATOM     10  N   UNL     1      -0.181   3.975   0.052  0.00  0.00    -0.322 N 
ATOM     11  H   UNL     1      -0.261   4.939   0.128  0.00  0.00    +0.169 HD
ATOM     12  C   UNL     1      -1.288   3.214   0.089  0.00  0.00    +0.251 A 
ATOM     13  O   UNL     1      -2.375   3.751   0.217  0.00  0.00    -0.268 OA
ATOM     14  O   UNL     1       4.702   4.155  -0.343  0.00  0.00    -0.453 OA
ATOM     15  C   UNL     1       5.543   3.131  -0.904  0.00  0.00    +0.466 C 
ATOM     16  O   UNL     1       4.895   1.904  -0.520  0.00  0.00    -0.453 OA
ENDBRANCH   1   2
BRANCH   1  22
ATOM     17  C   UNL     1      -4.670   1.368   3.601  0.00  0.00    -0.048 C 
ATOM     18  C   UNL     1      -5.280   0.933   2.520  0.00  0.00    -0.041 C 
ATOM     19  C   UNL     1      -4.566   0.675   1.225  0.00  0.00    -0.049 C 
ATOM     20  C   UNL     1      -2.508   0.995   2.443  0.00  0.00    -0.072 C 
ATOM     21  C   UNL     1      -3.195   1.656   3.640  0.00  0.00    +0.017 C 
ATOM     22  N   UNL     1      -3.263   1.365   1.228  0.00  0.00    +0.392 N 
ATOM     23  H   UNL     1      -3.420   2.379   1.227  0.00  0.00    -0.080 HD
BRANCH  17  29
ATOM     24  C   UNL     1      -5.613   2.866   5.352  0.00  0.00    +0.011 A 
ATOM     25  C   UNL     1      -6.363   3.061   6.494  0.00  0.00    +0.039 A 
ATOM     26  C   UNL     1      -6.960   1.982   7.125  0.00  0.00    +0.123 A 
ATOM     27  C   UNL     1      -6.814   0.704   6.612  0.00  0.00    +0.039 A 
ATOM     28  C   UNL     1      -6.071   0.499   5.467  0.00  0.00    +0.011 A 
ATOM     29  C   UNL     1      -5.467   1.582   4.827  0.00  0.00    -0.022 A 
ATOM     30  F   UNL     1      -7.689   2.178   8.246  0.00  0.00    -0.205 F 
ENDBRANCH  17  29
ENDBRANCH   1  22
BRANCH   1  31
ATOM     31  C   UNL     1      -3.319   1.293  -1.205  0.00  0.00    +0.143 A 
ATOM     32  N   UNL     1      -4.026   2.374  -1.428  0.00  0.00    -0.115 NA
ATOM     33  N   UNL     1      -4.587   2.251  -2.581  0.00  0.00    -0.023 NA
ATOM     34  N   UNL     1      -4.257   1.120  -3.100  0.00  0.00    -0.044 NA
ATOM     35  N   UNL     1      -3.471   0.502  -2.284  0.00  0.00    -0.227 N 
BRANCH  35  36
ATOM     36  C   UNL     1      -2.863  -0.814  -2.491  0.00  0.00    +0.111 C 
ATOM     37  C   UNL     1      -1.984  -0.779  -3.743  0.00  0.00    +0.027 C 
ATOM     38  C   UNL     1      -1.349  -2.153  -3.959  0.00  0.00    +0.002 C 
ATOM     39  C   UNL     1      -2.449  -3.202  -4.137  0.00  0.00    +0.000 C 
ATOM     40  C   UNL     1      -3.327  -3.237  -2.885  0.00  0.00    +0.002 C 
ATOM     41  C   UNL     1      -3.963  -1.862  -2.669  0.00  0.00    +0.027 C 
ENDBRANCH  35  36
ENDBRANCH   1  31
TORSDOF 5
