REMARK  Name = ZINC07111500
REMARK  4 active torsions:
REMARK  status: ('A' for Active; 'I' for Inactive)
REMARK    1  A    between atoms: C_4  and  N_7
REMARK    2  A    between atoms: C_11  and  S_13
REMARK    3  A    between atoms: S_13  and  C_14
REMARK    4  A    between atoms: C_14  and  C_15
REMARK                            x       y       z     vdW  Elec       q    Type
REMARK                         _______ _______ _______ _____ _____    ______ ____
ROOT
ATOM      1  S   UNL     1      -1.851   2.335   1.730  0.00  0.00    -0.089 S 
ENDROOT
BRANCH   1   6
ATOM      2  N   UNL     1      -5.367   4.295   1.910  0.00  0.00    -0.217 N 
ATOM      3  C   UNL     1      -5.592   4.425   0.578  0.00  0.00    +0.150 A 
ATOM      4  S   UNL     1      -6.906   5.160  -0.236  0.00  0.00    -0.023 S 
ATOM      5  S   UNL     1      -4.143   3.627  -0.096  0.00  0.00    -0.034 S 
ATOM      6  C   UNL     1      -3.371   3.183   1.452  0.00  0.00    +0.158 A 
ATOM      7  N   UNL     1      -4.223   3.655   2.326  0.00  0.00    -0.151 NA
BRANCH   2  11
ATOM      8  C   UNL     1      -8.088   5.802   4.681  0.00  0.00    +0.000 A 
ATOM      9  C   UNL     1      -7.402   4.632   4.953  0.00  0.00    +0.002 A 
ATOM     10  C   UNL     1      -6.500   4.130   4.037  0.00  0.00    +0.028 A 
ATOM     11  C   UNL     1      -6.281   4.801   2.840  0.00  0.00    +0.067 A 
ATOM     12  C   UNL     1      -6.967   5.979   2.573  0.00  0.00    +0.028 A 
ATOM     13  C   UNL     1      -7.873   6.473   3.491  0.00  0.00    +0.002 A 
ENDBRANCH   2  11
ENDBRANCH   1   6
BRANCH   1  14
ATOM     14  C   UNL     1      -1.332   2.051   0.019  0.00  0.00    +0.152 C 
BRANCH  14  15
ATOM     15  C   UNL     1      -0.016   1.317   0.009  0.00  0.00    +0.146 A 
ATOM     16  N   UNL     1       1.117   1.997   0.002  0.00  0.00    -0.199 NA
ATOM     17  C   UNL     1       2.282   1.353  -0.012  0.00  0.00    +0.217 A 
ATOM     18  N   UNL     1       2.304   0.024  -0.020  0.00  0.00    -0.181 NA
ATOM     19  C   UNL     1       1.163  -0.656  -0.013  0.00  0.00    +0.217 A 
ATOM     20  N   UNL     1       0.002  -0.004   0.002  0.00  0.00    -0.199 NA
ATOM     21  N   UNL     1       1.180  -2.035  -0.021  0.00  0.00    -0.327 N 
ATOM     22  N   UNL     1       3.465   2.063  -0.020  0.00  0.00    -0.327 N 
ATOM     23  H   UNL     1       0.347  -2.531  -0.016  0.00  0.00    +0.145 HD
ATOM     24  H   UNL     1       2.027  -2.510  -0.031  0.00  0.00    +0.145 HD
ATOM     25  H   UNL     1       4.313   1.593  -0.031  0.00  0.00    +0.145 HD
ATOM     26  H   UNL     1       3.448   3.033  -0.015  0.00  0.00    +0.145 HD
ENDBRANCH  14  15
ENDBRANCH   1  14
TORSDOF 4
