REMARK  Name = ZINC08441883
REMARK  14 active torsions:
REMARK  status: ('A' for Active; 'I' for Inactive)
REMARK    1  A    between atoms: C_1  and  C_2
REMARK    2  A    between atoms: C_2  and  O_3
REMARK    3  A    between atoms: O_3  and  C_4
REMARK    4  A    between atoms: C_7  and  C_13
REMARK    5  A    between atoms: C_9  and  O_10
REMARK    6  A    between atoms: O_10  and  C_11
REMARK    7  A    between atoms: C_11  and  C_12
REMARK    8  A    between atoms: C_18  and  C_33
REMARK    9  A    between atoms: C_23  and  C_31
REMARK   10  A    between atoms: C_25  and  C_26
REMARK   11  A    between atoms: C_25  and  C_28
REMARK   12  A    between atoms: C_33  and  C_34
REMARK   13  A    between atoms: C_33  and  C_35
REMARK   14  A    between atoms: C_33  and  C_36
REMARK                            x       y       z     vdW  Elec       q    Type
REMARK                         _______ _______ _______ _____ _____    ______ ____
ROOT
ATOM      1  C   UNL     1      -2.505   3.727  -0.442  0.00  0.00    +0.066 C 
ATOM      2  C   UNL     1      -3.872   3.137  -0.092  0.00  0.00    +0.027 C 
ATOM      3  C   UNL     1      -5.005   3.915  -0.716  0.00  0.00    +0.013 C 
ATOM      4  C   UNL     1      -5.545   3.232  -1.972  0.00  0.00    -0.001 C 
ATOM      5  C   UNL     1      -6.018   1.823  -1.590  0.00  0.00    +0.031 C 
ATOM      6  C   UNL     1      -4.822   1.060  -1.081  0.00  0.00    -0.025 C 
ATOM      7  C   UNL     1      -3.855   1.675  -0.429  0.00  0.00    -0.047 C 
ATOM      8  C   UNL     1      -2.663   0.901   0.008  0.00  0.00    +0.164 C 
ATOM      9  C   UNL     1      -1.545   1.567   0.394  0.00  0.00    +0.065 C 
ATOM     10  C   UNL     1      -1.442   3.062   0.433  0.00  0.00    +0.188 C 
ATOM     11  N   UNL     1      -0.454   0.835   0.769  0.00  0.00    -0.304 NA
ATOM     12  H   UNL     1      -0.494  -0.135   0.757  0.00  0.00    +0.186 HD
ENDROOT
BRANCH   1  16
ATOM     13  C   UNL     1      -2.531   7.941   0.283  0.00  0.00    +0.162 A 
ATOM     14  C   UNL     1      -1.972   7.439  -0.881  0.00  0.00    +0.050 A 
ATOM     15  C   UNL     1      -1.965   6.076  -1.113  0.00  0.00    +0.008 A 
ATOM     16  C   UNL     1      -2.515   5.211  -0.185  0.00  0.00    -0.037 A 
ATOM     17  C   UNL     1      -3.079   5.706   0.976  0.00  0.00    +0.053 A 
ATOM     18  C   UNL     1      -3.085   7.071   1.217  0.00  0.00    +0.162 A 
BRANCH  13  19
ATOM     19  O   UNL     1      -2.538   9.281   0.512  0.00  0.00    -0.489 OA
BRANCH  19  21
ATOM     20  C   UNL     1      -2.052  11.579  -0.059  0.00  0.00    +0.048 C 
ATOM     21  C   UNL     1      -1.951  10.114  -0.490  0.00  0.00    +0.226 C 
ENDBRANCH  19  21
ENDBRANCH  13  19
BRANCH  18  22
ATOM     22  O   UNL     1      -3.635   7.559   2.361  0.00  0.00    -0.489 OA
BRANCH  22  23
ATOM     23  C   UNL     1      -4.186   6.607   3.273  0.00  0.00    +0.226 C 
ATOM     24  C   UNL     1      -4.754   7.338   4.491  0.00  0.00    +0.048 C 
ENDBRANCH  22  23
ENDBRANCH  18  22
ENDBRANCH   1  16
BRANCH   4  25
ATOM     25  C   UNL     1      -6.720   4.036  -2.532  0.00  0.00    -0.035 C 
ATOM     26  C   UNL     1      -7.819   4.140  -1.472  0.00  0.00    +0.011 C 
ATOM     27  C   UNL     1      -6.243   5.440  -2.911  0.00  0.00    +0.011 C 
ATOM     28  C   UNL     1      -7.273   3.333  -3.773  0.00  0.00    +0.011 C 
ENDBRANCH   4  25
BRANCH  10  29
ATOM     29  C   UNL     1      -1.609   3.519   1.822  0.00  0.00    +0.091 C 
ATOM     30  N   UNL     1      -1.738   3.872   2.894  0.00  0.00    -0.195 NA
ENDBRANCH  10  29
BRANCH  10  31
ATOM     31  C   UNL     1      -0.108   3.463  -0.045  0.00  0.00    +0.091 C 
ATOM     32  N   UNL     1       0.921   3.772  -0.414  0.00  0.00    -0.195 NA
ENDBRANCH  10  31
BRANCH   8  33
ATOM     33  C   UNL     1      -2.694  -0.530   0.021  0.00  0.00    +0.076 C 
ATOM     34  N   UNL     1      -2.718  -1.666   0.031  0.00  0.00    -0.196 NA
ENDBRANCH   8  33
TORSDOF 9
