REMARK  Name = ZINC08386026
REMARK  10 active torsions:
REMARK  status: ('A' for Active; 'I' for Inactive)
REMARK    1  A    between atoms: C_1  and  C_2
REMARK    2  A    between atoms: C_10  and  C_12
REMARK    3  A    between atoms: C_12  and  C_13
REMARK    4  A    between atoms: C_13  and  C_14
REMARK    5  A    between atoms: C_14  and  C_16
REMARK    6  A    between atoms: C_14  and  C_17
REMARK    7  A    between atoms: C_23  and  C_44
REMARK    8  A    between atoms: C_24  and  O_43
REMARK    9  A    between atoms: C_35  and  C_42
REMARK   10  A    between atoms: C_38  and  O_41
REMARK                            x       y       z     vdW  Elec       q    Type
REMARK                         _______ _______ _______ _____ _____    ______ ____
ROOT
ATOM      1  C   UNL     1       2.164   0.910   1.692  0.00  0.00    +0.001 C 
ATOM      2  C   UNL     1       1.019   0.595   2.693  0.00  0.00    +0.005 C 
ATOM      3  C   UNL     1      -0.290   1.146   2.059  0.00  0.00    +0.005 C 
ATOM      4  C   UNL     1       0.090   1.296   0.591  0.00  0.00    +0.001 C 
ATOM      5  C   UNL     1       1.525   1.865   0.665  0.00  0.00    +0.000 C 
ATOM      6  C   UNL     1       2.071   1.851  -0.745  0.00  0.00    +0.121 C 
ATOM      7  C   UNL     1       1.251   2.807  -1.632  0.00  0.00    +0.036 C 
ATOM      8  C   UNL     1      -0.104   3.183  -1.066  0.00  0.00    +0.001 C 
ATOM      9  C   UNL     1      -0.792   2.011  -0.363  0.00  0.00    -0.004 C 
ATOM     10  C   UNL     1      -2.029   2.626   0.325  0.00  0.00    +0.004 C 
ATOM     11  C   UNL     1      -3.051   2.850  -0.780  0.00  0.00    +0.004 C 
ATOM     12  C   UNL     1      -2.491   3.525  -2.018  0.00  0.00    -0.002 C 
ATOM     13  C   UNL     1      -1.033   3.776  -2.125  0.00  0.00    -0.026 C 
ATOM     14  C   UNL     1      -0.414   3.861  -3.491  0.00  0.00    +0.010 C 
ATOM     15  C   UNL     1      -1.073   3.013  -4.554  0.00  0.00    +0.032 C 
ATOM     16  C   UNL     1      -2.573   3.228  -4.562  0.00  0.00    +0.115 C 
ATOM     17  C   UNL     1      -3.185   2.920  -3.221  0.00  0.00    +0.035 C 
ATOM     18  C   UNL     1      -0.971   5.256  -1.715  0.00  0.00    +0.012 C 
ATOM     19  C   UNL     1       1.597   3.270   1.288  0.00  0.00    +0.014 C 
ENDROOT
BRANCH   1  20
ATOM     20  C   UNL     1       2.715  -0.374   1.098  0.00  0.00    -0.010 C 
ATOM     21  C   UNL     1       3.628  -1.058   2.117  0.00  0.00    +0.008 C 
BRANCH  20  22
ATOM     22  C   UNL     1       1.557  -1.309   0.743  0.00  0.00    +0.011 C 
BRANCH  22  23
ATOM     23  C   UNL     1       2.109  -2.686   0.369  0.00  0.00    +0.074 C 
BRANCH  23  33
ATOM     24  C   UNL     1      -2.866  -7.416  -2.505  0.00  0.00    +0.044 C 
ATOM     25  C   UNL     1      -2.162  -6.469  -1.568  0.00  0.00    -0.048 A 
ATOM     26  C   UNL     1      -2.720  -6.181  -0.331  0.00  0.00    +0.005 A 
ATOM     27  C   UNL     1      -2.098  -5.325   0.532  0.00  0.00    +0.030 A 
ATOM     28  C   UNL     1      -0.886  -4.730   0.171  0.00  0.00    +0.089 A 
ATOM     29  C   UNL     1      -0.320  -5.021  -1.082  0.00  0.00    +0.066 A 
ATOM     30  C   UNL     1      -0.967  -5.894  -1.946  0.00  0.00    +0.031 A 
ATOM     31  N   UNL     1       0.853  -4.295  -1.148  0.00  0.00    -0.342 N 
ATOM     32  H   UNL     1       1.497  -4.279  -1.912  0.00  0.00    +0.167 HD
ATOM     33  C   UNL     1       0.969  -3.607   0.020  0.00  0.00    +0.108 A 
ATOM     34  N   UNL     1      -0.045  -3.865   0.793  0.00  0.00    -0.232 NA
ENDBRANCH  23  33
ENDBRANCH  22  23
ENDBRANCH  20  22
ENDBRANCH   1  20
BRANCH  16  35
ATOM     35  O   UNL     1      -2.848   4.588  -4.902  0.00  0.00    -0.392 OA
ATOM     36  H   UNL     1      -2.485   4.861  -5.756  0.00  0.00    +0.210 HD
ENDBRANCH  16  35
BRANCH   6  37
ATOM     37  O   UNL     1       1.994   0.551  -1.347  0.00  0.00    -0.391 OA
ATOM     38  H   UNL     1       2.338   0.515  -2.250  0.00  0.00    +0.210 HD
ENDBRANCH   6  37
TORSDOF 6
