REMARK  Name = ZINC18198700
REMARK  7 active torsions:
REMARK  status: ('A' for Active; 'I' for Inactive)
REMARK    1  A    between atoms: C_1  and  N_2
REMARK    2  A    between atoms: N_2  and  C_3
REMARK    3  A    between atoms: N_2  and  C_4
REMARK    4  A    between atoms: C_7  and  C_10
REMARK    5  A    between atoms: C_23  and  S_25
REMARK    6  A    between atoms: S_25  and  C_26
REMARK    7  A    between atoms: C_26  and  C_27
REMARK                            x       y       z     vdW  Elec       q    Type
REMARK                         _______ _______ _______ _____ _____    ______ ____
ROOT
ATOM      1  C   UNL     1      -1.145   2.306   0.031  0.00  0.00    +0.175 C 
ATOM      2  C   UNL     1      -0.693   3.708  -0.316  0.00  0.00    +0.041 C 
ATOM      3  C   UNL     1       0.610   4.061  -0.319  0.00  0.00    +0.020 C 
ATOM      4  C   UNL     1       1.032   5.469  -0.670  0.00  0.00    +0.052 C 
ATOM      5  C   UNL     1      -0.059   6.454  -0.246  0.00  0.00    +0.014 C 
ATOM      6  C   UNL     1      -1.359   6.071  -0.961  0.00  0.00    +0.080 C 
ATOM      7  C   UNL     1      -1.695   4.643  -0.632  0.00  0.00    +0.163 C 
ATOM      8  O   UNL     1      -2.857   4.289  -0.641  0.00  0.00    -0.292 OA
ATOM      9  N   UNL     1       1.605   3.164  -0.013  0.00  0.00    -0.287 N 
ATOM     10  C   UNL     1       1.283   1.816   0.003  0.00  0.00    +0.219 A 
ATOM     11  N   UNL     1      -0.006   1.397   0.016  0.00  0.00    -0.220 N 
ATOM     12  N   UNL     1       0.028   0.003   0.016  0.00  0.00    -0.141 NA
ATOM     13  C   UNL     1       1.296  -0.345   0.010  0.00  0.00    +0.211 A 
ATOM     14  N   UNL     1       2.053   0.762   0.003  0.00  0.00    -0.187 NA
ATOM     15  H   UNL     1       2.505   3.465   0.187  0.00  0.00    +0.155 HD
ENDROOT
BRANCH   1  19
ATOM     16  C   UNL     1      -2.908   2.304   3.925  0.00  0.00    +0.029 A 
ATOM     17  C   UNL     1      -3.659   1.922   2.821  0.00  0.00    +0.023 A 
ATOM     18  C   UNL     1      -3.086   1.923   1.564  0.00  0.00    +0.008 A 
ATOM     19  C   UNL     1      -1.767   2.306   1.404  0.00  0.00    -0.018 A 
ATOM     20  C   UNL     1      -1.015   2.682   2.502  0.00  0.00    +0.008 A 
ATOM     21  C   UNL     1      -1.583   2.688   3.761  0.00  0.00    +0.023 A 
BRANCH  16  23
ATOM     22  C   UNL     1      -4.913   2.020   5.354  0.00  0.00    +0.129 C 
ATOM     23  N   UNL     1      -3.484   2.304   5.197  0.00  0.00    -0.336 N 
ATOM     24  C   UNL     1      -2.659   2.586   6.375  0.00  0.00    +0.129 C 
ENDBRANCH  16  23
ENDBRANCH   1  19
BRANCH  13  25
ATOM     25  S   UNL     1       1.904  -1.999   0.009  0.00  0.00    -0.078 S 
BRANCH  25  26
ATOM     26  C   UNL     1       3.707  -1.804  -0.001  0.00  0.00    +0.132 C 
BRANCH  26  27
ATOM     27  C   UNL     1       4.359  -3.163  -0.002  0.00  0.00    +0.051 A 
ATOM     28  C   UNL     1       4.666  -3.774   1.199  0.00  0.00    +0.024 A 
ATOM     29  C   UNL     1       5.260  -5.027   1.187  0.00  0.00    +0.003 A 
ATOM     30  C   UNL     1       5.535  -5.615  -0.038  0.00  0.00    +0.020 A 
ATOM     31  C   UNL     1       5.205  -4.941  -1.198  0.00  0.00    +0.111 A 
ATOM     32  N   UNL     1       4.635  -3.752  -1.149  0.00  0.00    -0.259 NA
ENDBRANCH  26  27
ENDBRANCH  25  26
ENDBRANCH  13  25
TORSDOF 5
