REMARK  Name = ZINC36148210
REMARK  9 active torsions:
REMARK  status: ('A' for Active; 'I' for Inactive)
REMARK    1  A    between atoms: C_1  and  C_2
REMARK    2  A    between atoms: C_2  and  C_3
REMARK    3  A    between atoms: C_3  and  N_4
REMARK    4  A    between atoms: C_5  and  C_7
REMARK    5  A    between atoms: C_7  and  C_9
REMARK    6  A    between atoms: C_7  and  N_25
REMARK    7  A    between atoms: N_12  and  S_15
REMARK    8  A    between atoms: S_15  and  C_18
REMARK    9  A    between atoms: C_26  and  C_28
REMARK                            x       y       z     vdW  Elec       q    Type
REMARK                         _______ _______ _______ _____ _____    ______ ____
ROOT
ATOM      1  C   UNL     1      -2.551  -4.195   0.004  0.00  0.00    +0.162 C 
ENDROOT
BRANCH   1   2
ATOM      2  C   UNL     1      -1.835  -4.688  -1.255  0.00  0.00    +0.021 C 
ATOM      3  C   UNL     1      -2.574  -4.180  -2.495  0.00  0.00    +0.023 C 
ATOM      4  C   UNL     1      -1.835  -4.647  -3.752  0.00  0.00    +0.110 C 
ATOM      5  N   UNL     1      -1.683  -6.107  -3.697  0.00  0.00    -0.177 NA
ATOM      6  C   UNL     1      -1.066  -6.709  -2.507  0.00  0.00    +0.110 C 
ATOM      7  C   UNL     1      -1.814  -6.219  -1.263  0.00  0.00    +0.023 C 
BRANCH   5   8
ATOM      8  S   UNL     1      -2.198  -7.057  -4.952  0.00  0.00    +0.061 S 
ATOM      9  O   UNL     1      -2.441  -8.348  -4.411  0.00  0.00    -0.153 OA
ATOM     10  O   UNL     1      -3.199  -6.317  -5.638  0.00  0.00    -0.153 OA
BRANCH   8  11
ATOM     11  C   UNL     1      -0.844  -7.226  -6.067  0.00  0.00    +0.106 A 
ATOM     12  C   UNL     1      -0.674  -6.312  -7.091  0.00  0.00    +0.030 A 
ATOM     13  C   UNL     1       0.387  -6.444  -7.966  0.00  0.00    +0.022 A 
ATOM     14  C   UNL     1       1.280  -7.490  -7.817  0.00  0.00    +0.041 A 
ATOM     15  C   UNL     1       1.110  -8.404  -6.793  0.00  0.00    +0.022 A 
ATOM     16  C   UNL     1       0.051  -8.268  -5.915  0.00  0.00    +0.030 A 
ATOM     17 CL   UNL     1       2.614  -7.657  -8.916  0.00  0.00    -0.084 Cl
ENDBRANCH   8  11
ENDBRANCH   5   8
ENDBRANCH   1   2
BRANCH   1  19
ATOM     18  N   UNL     1      -1.413  -1.998   0.005  0.00  0.00    -0.314 N 
ATOM     19  C   UNL     1      -2.571  -2.688   0.012  0.00  0.00    +0.234 C 
ATOM     20  O   UNL     1      -3.630  -2.096   0.025  0.00  0.00    -0.274 OA
ATOM     21  H   UNL     1      -0.567  -2.472  -0.006  0.00  0.00    +0.149 HD
BRANCH  18  22
ATOM     22  C   UNL     1      -1.433  -0.534   0.013  0.00  0.00    +0.104 C 
BRANCH  22  24
ATOM     23  C   UNL     1      -0.019   1.526   0.010  0.00  0.00    +0.005 C 
ATOM     24  C   UNL     1       0.002  -0.004   0.002  0.00  0.00    +0.015 C 
ENDBRANCH  22  24
ENDBRANCH  18  22
ENDBRANCH   1  19
BRANCH   1  25
ATOM     25  N   UNL     1      -3.925  -4.702   0.014  0.00  0.00    -0.300 N 
ATOM     26  C   UNL     1      -4.582  -4.846   1.183  0.00  0.00    +0.245 C 
ATOM     27  O   UNL     1      -4.033  -4.555   2.228  0.00  0.00    -0.270 OA
ATOM     28  H   UNL     1      -4.363  -4.934  -0.820  0.00  0.00    +0.150 HD
BRANCH  26  29
ATOM     29  C   UNL     1      -5.968  -5.357   1.193  0.00  0.00    +0.037 A 
ATOM     30  C   UNL     1      -6.598  -5.698  -0.006  0.00  0.00    +0.016 A 
ATOM     31  C   UNL     1      -7.891  -6.174   0.010  0.00  0.00    +0.039 A 
ATOM     32  C   UNL     1      -8.566  -6.316   1.213  0.00  0.00    +0.123 A 
ATOM     33  C   UNL     1      -7.945  -5.979   2.406  0.00  0.00    +0.039 A 
ATOM     34  C   UNL     1      -6.650  -5.508   2.402  0.00  0.00    +0.016 A 
ATOM     35  F   UNL     1      -9.834  -6.782   1.222  0.00  0.00    -0.205 F 
ENDBRANCH  26  29
ENDBRANCH   1  25
TORSDOF 8
