REMARK  Name = ZINC00966275
REMARK  6 active torsions:
REMARK  status: ('A' for Active; 'I' for Inactive)
REMARK    1  A    between atoms: C_1  and  C_2
REMARK    2  A    between atoms: C_9  and  S_11
REMARK    3  A    between atoms: S_11  and  C_12
REMARK    4  A    between atoms: C_12  and  C_13
REMARK    5  A    between atoms: C_15  and  C_18
REMARK    6  A    between atoms: C_23  and  N_26
REMARK                            x       y       z     vdW  Elec       q    Type
REMARK                         _______ _______ _______ _____ _____    ______ ____
ROOT
ATOM      1  C   UNL     1      -1.395  -3.703  10.179  0.00  0.00    +0.268 C 
ATOM      2  O   UNL     1      -0.905  -3.938  11.267  0.00  0.00    -0.268 OA
ATOM      3  N   UNL     1      -2.733  -3.610  10.049  0.00  0.00    -0.296 N 
ATOM      4  C   UNL     1      -3.350  -3.488   8.721  0.00  0.00    +0.110 C 
ATOM      5  C   UNL     1      -4.410  -4.583   8.567  0.00  0.00    +0.044 C 
ATOM      6  C   UNL     1      -5.401  -4.495   9.730  0.00  0.00    +0.095 C 
ATOM      7  C   UNL     1      -4.661  -4.721  11.051  0.00  0.00    +0.044 C 
ATOM      8  C   UNL     1      -3.604  -3.634  11.232  0.00  0.00    +0.110 C 
ENDROOT
BRANCH   6   9
ATOM      9  N   UNL     1      -6.435  -5.520   9.569  0.00  0.00    -0.289 N 
ATOM     10  C   UNL     1      -7.802  -5.286   9.439  0.00  0.00    +0.070 A 
ATOM     11  C   UNL     1      -8.572  -4.133   9.420  0.00  0.00    +0.028 A 
ATOM     12  C   UNL     1      -9.942  -4.223   9.273  0.00  0.00    +0.002 A 
ATOM     13  C   UNL     1     -10.550  -5.460   9.145  0.00  0.00    +0.002 A 
ATOM     14  C   UNL     1      -9.791  -6.614   9.163  0.00  0.00    +0.028 A 
ATOM     15  C   UNL     1      -8.415  -6.533   9.310  0.00  0.00    +0.067 A 
ATOM     16  N   UNL     1      -7.402  -7.487   9.365  0.00  0.00    -0.306 N 
ATOM     17  H   UNL     1      -7.522  -8.448   9.302  0.00  0.00    +0.170 HD
ATOM     18  C   UNL     1      -6.226  -6.849   9.515  0.00  0.00    +0.328 A 
ATOM     19  O   UNL     1      -5.139  -7.391   9.594  0.00  0.00    -0.247 OA
ENDBRANCH   6   9
BRANCH   1  22
ATOM     20  C   UNL     1       0.129  -3.075   6.994  0.00  0.00    +0.206 A 
ATOM     21  N   UNL     1      -0.917  -3.119   7.762  0.00  0.00    -0.208 NA
ATOM     22  C   UNL     1      -0.526  -3.520   9.002  0.00  0.00    +0.164 A 
ATOM     23  C   UNL     1       0.820  -3.719   8.952  0.00  0.00    +0.230 A 
ATOM     24  O   UNL     1       1.210  -3.443   7.698  0.00  0.00    -0.446 OA
BRANCH  20  25
ATOM     25  C   UNL     1       0.129  -2.679   5.540  0.00  0.00    +0.174 C 
BRANCH  25  26
ATOM     26  S   UNL     1       0.394  -0.890   5.401  0.00  0.00    -0.058 S 
BRANCH  26  35
ATOM     27  C   UNL     1       0.765   2.791   0.929  0.00  0.00    +0.046 C 
ATOM     28  C   UNL     1       0.532   1.323   0.680  0.00  0.00    -0.021 A 
ATOM     29  C   UNL     1       0.413   0.850  -0.609  0.00  0.00    +0.005 A 
ATOM     30  C   UNL     1       0.199  -0.499  -0.844  0.00  0.00    +0.004 A 
ATOM     31  C   UNL     1       0.102  -1.387   0.209  0.00  0.00    +0.048 A 
ATOM     32  C   UNL     1       0.220  -0.928   1.511  0.00  0.00    +0.156 A 
ATOM     33  C   UNL     1       0.443   0.436   1.753  0.00  0.00    +0.113 A 
ATOM     34  N   UNL     1       0.521   0.584   3.104  0.00  0.00    -0.203 NA
ATOM     35  C   UNL     1       0.367  -0.589   3.665  0.00  0.00    +0.258 A 
ATOM     36  O   UNL     1       0.172  -1.529   2.722  0.00  0.00    -0.431 OA
ENDBRANCH  26  35
ENDBRANCH  25  26
ENDBRANCH  20  25
ENDBRANCH   1  22
TORSDOF 5
