REMARK  Name = ZINC04117266
REMARK  5 active torsions:
REMARK  status: ('A' for Active; 'I' for Inactive)
REMARK    1  A    between atoms: C_1  and  N_2
REMARK    2  A    between atoms: N_2  and  C_3
REMARK    3  A    between atoms: C_4  and  C_6
REMARK    4  A    between atoms: C_13  and  C_22
REMARK    5  A    between atoms: C_25  and  N_28
REMARK                            x       y       z     vdW  Elec       q    Type
REMARK                         _______ _______ _______ _____ _____    ______ ____
ROOT
ATOM      1  C   UNL     1      -0.980   2.931   4.752  0.00  0.00    +0.058 A 
ATOM      2  C   UNL     1      -2.157   3.273   5.418  0.00  0.00    +0.015 A 
ATOM      3  C   UNL     1      -2.129   3.501   6.777  0.00  0.00    +0.001 A 
ATOM      4  C   UNL     1      -0.939   3.400   7.475  0.00  0.00    +0.006 A 
ATOM      5  C   UNL     1       0.242   3.065   6.830  0.00  0.00    -0.019 A 
ATOM      6  C   UNL     1       0.230   2.830   5.466  0.00  0.00    +0.044 A 
ATOM      7  N   UNL     1       1.376   2.499   4.760  0.00  0.00    -0.336 N 
ATOM      8  C   UNL     1       2.382   1.854   5.604  0.00  0.00    +0.105 C 
ATOM      9  C   UNL     1       2.741   2.781   6.768  0.00  0.00    +0.029 C 
ATOM     10  C   UNL     1       1.492   2.972   7.655  0.00  0.00    +0.049 C 
ATOM     11  C   UNL     1       1.466   1.736   8.525  0.00  0.00    -0.023 C 
ATOM     12  C   UNL     1       2.653   1.186   8.575  0.00  0.00    -0.030 C 
ATOM     13  C   UNL     1       3.644   1.983   7.750  0.00  0.00    +0.033 C 
ATOM     14  H   UNL     1       1.155   1.926   3.959  0.00  0.00    +0.147 HD
ENDROOT
BRANCH   8  15
ATOM     15  C   UNL     1       1.830   0.560   6.145  0.00  0.00    -0.027 A 
ATOM     16  C   UNL     1       2.690  -0.425   6.593  0.00  0.00    +0.008 A 
ATOM     17  C   UNL     1       2.183  -1.610   7.093  0.00  0.00    +0.033 A 
ATOM     18  C   UNL     1       0.816  -1.813   7.136  0.00  0.00    +0.126 A 
ATOM     19  C   UNL     1      -0.043  -0.830   6.684  0.00  0.00    +0.033 A 
ATOM     20  C   UNL     1       0.463   0.356   6.188  0.00  0.00    +0.008 A 
BRANCH  18  21
ATOM     21  N   UNL     1       0.274  -3.084   7.668  0.00  0.00    +0.056 N 
ATOM     22  O   UNL     1      -0.930  -3.263   7.707  0.00  0.00    -0.126 OA
ATOM     23  O   UNL     1       1.032  -3.951   8.066  0.00  0.00    -0.126 OA
ENDBRANCH  18  21
ENDBRANCH   8  15
BRANCH   1  27
ATOM     24  C   UNL     1      -1.469   3.392   1.016  0.00  0.00    +0.132 C 
ATOM     25  N   UNL     1      -1.540   3.592   2.466  0.00  0.00    -0.304 N 
ATOM     26  C   UNL     1      -2.196   4.784   3.010  0.00  0.00    +0.132 C 
ATOM     27  C   UNL     1      -1.001   2.680   3.299  0.00  0.00    +0.248 C 
ATOM     28  O   UNL     1      -0.533   1.650   2.853  0.00  0.00    -0.270 OA
ENDBRANCH   1  27
TORSDOF 3
