REMARK  Name = ZINC11859248
REMARK  10 active torsions:
REMARK  status: ('A' for Active; 'I' for Inactive)
REMARK    1  A    between atoms: C_1  and  C_2
REMARK    2  A    between atoms: C_2  and  N_3
REMARK    3  A    between atoms: N_3  and  C_4
REMARK    4  A    between atoms: N_3  and  C_6
REMARK    5  A    between atoms: C_4  and  C_5
REMARK    6  A    between atoms: C_9  and  C_12
REMARK    7  A    between atoms: C_14  and  C_26
REMARK    8  A    between atoms: C_16  and  C_21
REMARK    9  A    between atoms: C_16  and  O_25
REMARK   10  A    between atoms: C_26  and  C_28
REMARK                            x       y       z     vdW  Elec       q    Type
REMARK                         _______ _______ _______ _____ _____    ______ ____
ROOT
ATOM      1  C   UNL     1      -1.135   7.389  -0.849  0.00  0.00    +0.120 C 
ATOM      2  C   UNL     1      -1.372   6.100  -0.054  0.00  0.00    +0.144 C 
ATOM      3  C   UNL     1      -1.823   6.471   1.362  0.00  0.00    +0.243 C 
ATOM      4  N   UNL     1      -0.827   7.358   1.966  0.00  0.00    -0.264 N 
ATOM      5  C   UNL     1      -0.075   8.177   1.216  0.00  0.00    +0.302 C 
ATOM      6  O   UNL     1       0.730   8.901   1.769  0.00  0.00    -0.253 OA
ATOM      7  N   UNL     1      -0.176   8.228  -0.121  0.00  0.00    -0.292 N 
ATOM      8  H   UNL     1      -0.709   7.354   2.929  0.00  0.00    +0.153 HD
ATOM      9  H   UNL     1       0.399   8.832  -0.618  0.00  0.00    +0.151 HD
ENDROOT
BRANCH   1  13
ATOM     10  C   UNL     1       0.427   6.421  -4.708  0.00  0.00    +0.030 A 
ATOM     11  C   UNL     1      -0.938   6.617  -4.538  0.00  0.00    +0.023 A 
ATOM     12  C   UNL     1      -1.439   6.929  -3.290  0.00  0.00    +0.007 A 
ATOM     13  C   UNL     1      -0.584   7.048  -2.209  0.00  0.00    -0.026 A 
ATOM     14  C   UNL     1       0.776   6.859  -2.376  0.00  0.00    +0.007 A 
ATOM     15  C   UNL     1       1.283   6.541  -3.620  0.00  0.00    +0.023 A 
BRANCH  10  16
ATOM     16  N   UNL     1       0.938   6.105  -5.969  0.00  0.00    -0.330 N 
BRANCH  16  18
ATOM     17  C   UNL     1       2.712   4.423  -5.922  0.00  0.00    +0.024 C 
ATOM     18  C   UNL     1       2.377   5.899  -6.146  0.00  0.00    +0.102 C 
ENDBRANCH  16  18
BRANCH  16  19
ATOM     19  C   UNL     1       0.034   5.979  -7.114  0.00  0.00    +0.102 C 
ATOM     20  C   UNL     1      -0.115   7.339  -7.799  0.00  0.00    +0.024 C 
ENDBRANCH  16  19
ENDBRANCH  10  16
ENDBRANCH   1  13
BRANCH   3  21
ATOM     21  C   UNL     1      -1.956   5.202   2.206  0.00  0.00    +0.436 C 
ATOM     22  F   UNL     1      -0.695   4.621   2.376  0.00  0.00    -0.166 F 
ATOM     23  F   UNL     1      -2.492   5.527   3.457  0.00  0.00    -0.166 F 
ATOM     24  F   UNL     1      -2.803   4.298   1.557  0.00  0.00    -0.166 F 
ENDBRANCH   3  21
BRANCH   3  25
ATOM     25  O   UNL     1      -3.085   7.139   1.302  0.00  0.00    -0.364 OA
ATOM     26  H   UNL     1      -3.432   7.404   2.165  0.00  0.00    +0.212 HD
ENDBRANCH   3  25
BRANCH   2  27
ATOM     27  C   UNL     1      -0.093   5.306   0.014  0.00  0.00    +0.173 C 
ATOM     28  O   UNL     1       0.871   5.757   0.596  0.00  0.00    -0.292 OA
BRANCH  27  29
ATOM     29  C   UNL     1      -0.014   3.982  -0.625  0.00  0.00    +0.018 A 
ATOM     30  C   UNL     1       1.200   3.289  -0.657  0.00  0.00    +0.011 A 
ATOM     31  C   UNL     1       1.266   2.049  -1.257  0.00  0.00    +0.001 A 
ATOM     32  C   UNL     1       0.135   1.491  -1.827  0.00  0.00    +0.000 A 
ATOM     33  C   UNL     1      -1.069   2.173  -1.804  0.00  0.00    +0.001 A 
ATOM     34  C   UNL     1      -1.152   3.412  -1.203  0.00  0.00    +0.011 A 
ENDBRANCH  27  29
ENDBRANCH   2  27
TORSDOF 8
