REMARK  Name = ZINC12697572
REMARK  7 active torsions:
REMARK  status: ('A' for Active; 'I' for Inactive)
REMARK    1  A    between atoms: C_1  and  C_2
REMARK    2  A    between atoms: C_7  and  C_13
REMARK    3  A    between atoms: C_13  and  N_14
REMARK    4  A    between atoms: C_15  and  C_36
REMARK    5  A    between atoms: N_16  and  C_23
REMARK    6  A    between atoms: C_23  and  C_24
REMARK    7  A    between atoms: C_30  and  C_35
REMARK                            x       y       z     vdW  Elec       q    Type
REMARK                         _______ _______ _______ _____ _____    ______ ____
ROOT
ATOM      1  N   UNL     1       2.126   4.130   0.004  0.00  0.00    -0.323 N 
ATOM      2  C   UNL     1       1.541   5.316   0.015  0.00  0.00    +0.088 A 
ATOM      3  N   UNL     1       0.226   5.182   0.027  0.00  0.00    -0.323 N 
ATOM      4  C   UNL     1      -0.074   3.849   0.022  0.00  0.00    +0.067 A 
ATOM      5  C   UNL     1       1.156   3.168   0.008  0.00  0.00    +0.067 A 
ATOM      6  C   UNL     1       1.174   1.775   0.000  0.00  0.00    +0.028 A 
ATOM      7  C   UNL     1      -0.013   1.076   0.008  0.00  0.00    +0.002 A 
ATOM      8  C   UNL     1      -1.227   1.748   0.017  0.00  0.00    +0.002 A 
ATOM      9  C   UNL     1      -1.264   3.124   0.030  0.00  0.00    +0.028 A 
ATOM     10  C   UNL     1       2.271   6.635   0.016  0.00  0.00    +0.084 C 
ENDROOT
BRANCH   1  11
ATOM     11  C   UNL     1       3.571   3.888  -0.011  0.00  0.00    +0.179 C 
BRANCH  11  18
ATOM     12  C   UNL     1       5.741   2.273  -7.386  0.00  0.00    +0.045 C 
ATOM     13  C   UNL     1       5.264   2.372  -5.960  0.00  0.00    -0.034 A 
ATOM     14  C   UNL     1       4.738   1.241  -5.319  0.00  0.00    +0.008 A 
ATOM     15  C   UNL     1       4.309   1.338  -4.029  0.00  0.00    +0.047 A 
ATOM     16  C   UNL     1       4.401   2.573  -3.361  0.00  0.00    +0.141 A 
ATOM     17  N   UNL     1       3.988   2.668  -2.098  0.00  0.00    -0.232 NA
ATOM     18  C   UNL     1       4.053   3.813  -1.437  0.00  0.00    +0.068 A 
ATOM     19  C   UNL     1       4.568   4.938  -2.051  0.00  0.00    +0.095 A 
ATOM     20  C   UNL     1       5.010   4.844  -3.376  0.00  0.00    +0.259 A 
ATOM     21  O   UNL     1       5.471   5.820  -3.946  0.00  0.00    -0.267 OA
ATOM     22  N   UNL     1       4.919   3.657  -4.013  0.00  0.00    -0.268 N 
ATOM     23  C   UNL     1       5.345   3.550  -5.302  0.00  0.00    +0.099 A 
ENDBRANCH  11  18
ENDBRANCH   1  11
BRANCH   3  24
ATOM     24  C   UNL     1      -0.747   6.278   0.042  0.00  0.00    +0.179 C 
BRANCH  24  25
ATOM     25  C   UNL     1      -1.067   6.646   1.467  0.00  0.00    +0.068 A 
ATOM     26  C   UNL     1      -0.387   7.680   2.082  0.00  0.00    +0.095 A 
ATOM     27  C   UNL     1      -0.702   8.004   3.407  0.00  0.00    +0.259 A 
ATOM     28  O   UNL     1      -0.119   8.912   3.978  0.00  0.00    -0.267 OA
ATOM     29  N   UNL     1      -1.660   7.296   4.043  0.00  0.00    -0.268 N 
ATOM     30  C   UNL     1      -1.978   7.600   5.332  0.00  0.00    +0.099 A 
ATOM     31  C   UNL     1      -2.934   6.906   5.989  0.00  0.00    -0.034 A 
ATOM     32  C   UNL     1      -3.612   5.860   5.348  0.00  0.00    +0.008 A 
ATOM     33  C   UNL     1      -3.301   5.548   4.058  0.00  0.00    +0.047 A 
ATOM     34  C   UNL     1      -2.304   6.282   3.390  0.00  0.00    +0.141 A 
ATOM     35  N   UNL     1      -2.002   5.983   2.128  0.00  0.00    -0.232 NA
ATOM     36  C   UNL     1      -3.271   7.258   7.415  0.00  0.00    +0.045 C 
ENDBRANCH  24  25
ENDBRANCH   3  24
TORSDOF 4
