REMARK  Name = ZINC36695861
REMARK  14 active torsions:
REMARK  status: ('A' for Active; 'I' for Inactive)
REMARK    1  A    between atoms: C_1  and  C_2
REMARK    2  A    between atoms: C_2  and  O_3
REMARK    3  A    between atoms: O_3  and  C_4
REMARK    4  A    between atoms: C_12  and  C_14
REMARK    5  A    between atoms: C_14  and  S_15
REMARK    6  A    between atoms: S_15  and  C_16
REMARK    7  A    between atoms: C_16  and  C_17
REMARK    8  A    between atoms: C_17  and  N_19
REMARK    9  A    between atoms: N_21  and  C_31
REMARK   10  A    between atoms: C_25  and  O_29
REMARK   11  A    between atoms: O_29  and  C_30
REMARK   12  A    between atoms: C_31  and  C_32
REMARK   13  A    between atoms: C_32  and  O_34
REMARK   14  A    between atoms: O_34  and  C_35
REMARK                            x       y       z     vdW  Elec       q    Type
REMARK                         _______ _______ _______ _____ _____    ______ ____
ROOT
ATOM      1  C   UNL     1      -9.660  -8.049  -1.133  0.00  0.00    +0.248 C 
ATOM      2  O   UNL     1     -10.566  -7.238  -1.125  0.00  0.00    -0.273 OA
ENDROOT
BRANCH   1   3
ATOM      3  N   UNL     1      -9.932  -9.350  -1.132  0.00  0.00    -0.156 NA
ATOM      4  C   UNL     1     -11.197  -9.765  -1.123  0.00  0.00    +0.167 A 
ATOM      5  N   UNL     1     -11.652 -11.043  -1.115  0.00  0.00    -0.310 N 
ATOM      6  C   UNL     1     -13.014 -11.288  -1.105  0.00  0.00    +0.058 A 
ATOM      7  C   UNL     1     -13.692 -12.515  -1.097  0.00  0.00    +0.030 A 
ATOM      8  C   UNL     1     -15.066 -12.557  -1.089  0.00  0.00    +0.048 A 
ATOM      9  C   UNL     1     -15.821 -11.390  -1.088  0.00  0.00    +0.121 A 
ATOM     10  C   UNL     1     -15.172 -10.163  -1.096  0.00  0.00    +0.062 A 
ATOM     11  C   UNL     1     -13.797 -10.125  -1.104  0.00  0.00    +0.042 A 
ATOM     12  S   UNL     1     -12.590  -8.826  -1.110  0.00  0.00    -0.052 S 
BRANCH   9  13
ATOM     13  O   UNL     1     -17.179 -11.449  -1.081  0.00  0.00    -0.495 OA
ATOM     14  C   UNL     1     -17.772 -12.750  -1.074  0.00  0.00    +0.277 C 
ENDBRANCH   9  13
BRANCH   5  15
ATOM     15  C   UNL     1     -10.705 -12.161  -1.118  0.00  0.00    +0.244 C 
BRANCH  15  16
ATOM     16  C   UNL     1     -10.370 -12.540   0.301  0.00  0.00    +0.327 C 
ATOM     17  O   UNL     1     -10.872 -11.938   1.221  0.00  0.00    -0.249 OA
BRANCH  16  18
ATOM     18  O   UNL     1      -9.515 -13.546   0.544  0.00  0.00    -0.467 OA
ATOM     19  C   UNL     1      -9.244 -13.850   1.913  0.00  0.00    +0.280 C 
ENDBRANCH  16  18
ENDBRANCH  15  16
ENDBRANCH   5  15
ENDBRANCH   1   3
BRANCH   1  20
ATOM     20  C   UNL     1      -8.228  -7.579  -1.143  0.00  0.00    +0.167 C 
BRANCH  20  21
ATOM     21  S   UNL     1      -8.188  -5.765  -1.141  0.00  0.00    -0.142 S 
BRANCH  21  22
ATOM     22  C   UNL     1      -6.418  -5.365  -1.154  0.00  0.00    +0.165 C 
BRANCH  22  31
ATOM     23  C   UNL     1      -1.497  -1.836   0.006  0.00  0.00    +0.403 C 
ATOM     24  O   UNL     1      -0.523  -2.563  -0.007  0.00  0.00    -0.226 OA
ATOM     25  N   UNL     1      -2.735  -2.368   0.015  0.00  0.00    -0.264 N 
ATOM     26  C   UNL     1      -3.922  -1.501   0.025  0.00  0.00    +0.130 C 
ATOM     27  C   UNL     1      -4.815  -1.879  -1.162  0.00  0.00    +0.127 C 
ATOM     28  N   UNL     1      -5.003  -3.337  -1.163  0.00  0.00    -0.298 N 
ATOM     29  C   UNL     1      -3.817  -4.204  -1.173  0.00  0.00    +0.127 C 
ATOM     30  C   UNL     1      -2.923  -3.825   0.009  0.00  0.00    +0.130 C 
ATOM     31  C   UNL     1      -6.241  -3.869  -1.154  0.00  0.00    +0.226 C 
ATOM     32  O   UNL     1      -7.213  -3.143  -1.145  0.00  0.00    -0.275 OA
BRANCH  23  33
ATOM     33  O   UNL     1      -1.339  -0.499   0.012  0.00  0.00    -0.451 OA
BRANCH  33  35
ATOM     34  C   UNL     1      -0.019   1.526   0.010  0.00  0.00    +0.048 C 
ATOM     35  C   UNL     1       0.002  -0.004   0.002  0.00  0.00    +0.230 C 
ENDBRANCH  33  35
ENDBRANCH  23  33
ENDBRANCH  22  31
ENDBRANCH  21  22
ENDBRANCH  20  21
ENDBRANCH   1  20
TORSDOF 11
