REMARK  Name = ZINC64131689
REMARK  10 active torsions:
REMARK  status: ('A' for Active; 'I' for Inactive)
REMARK    1  A    between atoms: C_1  and  C_2
REMARK    2  A    between atoms: C_2  and  O_3
REMARK    3  A    between atoms: O_3  and  C_4
REMARK    4  A    between atoms: C_7  and  C_10
REMARK    5  A    between atoms: C_10  and  N_11
REMARK    6  A    between atoms: N_14  and  C_21
REMARK    7  A    between atoms: C_16  and  C_18
REMARK    8  A    between atoms: C_18  and  C_19
REMARK    9  A    between atoms: C_19  and  O_20
REMARK   10  A    between atoms: C_21  and  C_22
REMARK                            x       y       z     vdW  Elec       q    Type
REMARK                         _______ _______ _______ _____ _____    ______ ____
ROOT
ATOM      1  N   UNL     1      -1.776  -6.618   1.717  0.00  0.00    +0.386 N 
ATOM      2  C   UNL     1      -3.048  -6.056   2.189  0.00  0.00    -0.062 C 
ATOM      3  C   UNL     1      -3.349  -6.585   3.594  0.00  0.00    +0.066 C 
ATOM      4  N   UNL     1      -3.425  -8.052   3.556  0.00  0.00    -0.302 NA
ATOM      5  C   UNL     1      -2.166  -8.627   3.062  0.00  0.00    +0.069 C 
ATOM      6  C   UNL     1      -1.875  -8.082   1.662  0.00  0.00    -0.052 C 
ATOM      7  H   UNL     1      -1.036  -6.355   2.352  0.00  0.00    -0.081 HD
ENDROOT
BRANCH   1   8
ATOM      8  C   UNL     1      -1.478  -6.096   0.376  0.00  0.00    -0.043 C 
BRANCH   8  12
ATOM      9  C   UNL     1      -0.825  -1.879   0.600  0.00  0.00    +0.121 A 
ATOM     10  C   UNL     1       0.240  -2.756   0.749  0.00  0.00    +0.046 A 
ATOM     11  C   UNL     1       0.026  -4.119   0.676  0.00  0.00    +0.005 A 
ATOM     12  C   UNL     1      -1.248  -4.609   0.455  0.00  0.00    -0.064 A 
ATOM     13  C   UNL     1      -2.311  -3.737   0.306  0.00  0.00    +0.005 A 
ATOM     14  C   UNL     1      -2.103  -2.374   0.384  0.00  0.00    +0.046 A 
BRANCH   9  15
ATOM     15  O   UNL     1      -0.617  -0.538   0.671  0.00  0.00    -0.492 OA
BRANCH  15  17
ATOM     16  C   UNL     1       0.761   1.428   0.945  0.00  0.00    +0.048 C 
ATOM     17  C   UNL     1       0.724  -0.100   0.896  0.00  0.00    +0.225 C 
ENDBRANCH  15  17
ENDBRANCH   9  15
ENDBRANCH   8  12
ENDBRANCH   1   8
BRANCH   6  18
ATOM     18  C   UNL     1      -0.555  -8.664   1.152  0.00  0.00    +0.014 C 
BRANCH  18  19
ATOM     19  C   UNL     1      -0.678 -10.185   1.040  0.00  0.00    +0.154 C 
BRANCH  19  20
ATOM     20  O   UNL     1       0.526 -10.720   0.486  0.00  0.00    -0.395 OA
ATOM     21  H   UNL     1       0.519 -11.682   0.385  0.00  0.00    +0.209 HD
ENDBRANCH  19  20
ENDBRANCH  18  19
ENDBRANCH   6  18
BRANCH   4  22
ATOM     22  C   UNL     1      -3.769  -8.595   4.877  0.00  0.00    +0.117 C 
BRANCH  22  23
ATOM     23  C   UNL     1      -4.222 -10.025   4.730  0.00  0.00    -0.028 C 
ATOM     24  C   UNL     1      -3.470 -11.137   4.892  0.00  0.00    +0.000 A 
ATOM     25  C   UNL     1      -2.059 -11.341   5.240  0.00  0.00    +0.010 A 
ATOM     26  C   UNL     1      -1.581 -12.603   5.330  0.00  0.00    +0.001 A 
ATOM     27  C   UNL     1      -2.398 -13.719   5.099  0.00  0.00    +0.002 A 
ATOM     28  C   UNL     1      -3.704 -13.611   4.775  0.00  0.00    +0.026 A 
ATOM     29  C   UNL     1      -4.312 -12.331   4.654  0.00  0.00    +0.043 A 
ATOM     30  N   UNL     1      -5.537 -11.971   4.356  0.00  0.00    -0.380 N 
ATOM     31  C   UNL     1      -5.612 -10.506   4.377  0.00  0.00    +0.146 C 
ATOM     32  H   UNL     1      -6.271 -12.573   4.158  0.00  0.00    +0.160 HD
ENDBRANCH  22  23
ENDBRANCH   4  22
TORSDOF 9
