REMARK  Name = ZINC59151971
REMARK  9 active torsions:
REMARK  status: ('A' for Active; 'I' for Inactive)
REMARK    1  A    between atoms: C_4  and  C_7
REMARK    2  A    between atoms: C_7  and  N_8
REMARK    3  A    between atoms: N_8  and  C_9
REMARK    4  A    between atoms: N_8  and  C_16
REMARK    5  A    between atoms: C_9  and  C_10
REMARK    6  A    between atoms: C_16  and  C_17
REMARK    7  A    between atoms: N_19  and  N_20
REMARK    8  A    between atoms: C_21  and  C_22
REMARK    9  A    between atoms: C_24  and  N_29
REMARK                            x       y       z     vdW  Elec       q    Type
REMARK                         _______ _______ _______ _____ _____    ______ ____
ROOT
ATOM      1  C   UNL     1       5.604  -1.262   1.393  0.00  0.00    +0.021 C 
ENDROOT
BRANCH   1   2
ATOM      2  C   UNL     1       6.473  -0.213   0.749  0.00  0.00    +0.216 C 
ATOM      3  O   UNL     1       5.972   0.792   0.290  0.00  0.00    -0.276 OA
ATOM      4  N   UNL     1       7.807  -0.391   0.683  0.00  0.00    -0.209 N 
ATOM      5  H   UNL     1       8.208  -1.195   1.050  0.00  0.00    +0.177 HD
BRANCH   4   6
ATOM      6  N   UNL     1       8.616   0.584   0.085  0.00  0.00    -0.188 NA
ATOM      7  C   UNL     1       9.900   0.412   0.021  0.00  0.00    +0.139 C 
BRANCH   7   8
ATOM      8  C   UNL     1      10.751   1.438  -0.609  0.00  0.00    +0.015 A 
ATOM      9  C   UNL     1      12.134   1.254  -0.684  0.00  0.00    +0.043 A 
ATOM     10  C   UNL     1      12.924   2.218  -1.276  0.00  0.00    +0.127 A 
ATOM     11  C   UNL     1      12.350   3.366  -1.794  0.00  0.00    +0.034 A 
ATOM     12  C   UNL     1      10.982   3.556  -1.723  0.00  0.00    +0.023 A 
ATOM     13  C   UNL     1      10.178   2.598  -1.139  0.00  0.00    +0.050 A 
ATOM     14 CL   UNL     1       8.460   2.834  -1.058  0.00  0.00    -0.083 Cl
BRANCH  10  15
ATOM     15  N   UNL     1      14.389   2.025  -1.356  0.00  0.00    +0.056 N 
ATOM     16  O   UNL     1      14.892   1.023  -0.903  0.00  0.00    -0.126 OA
ATOM     17  O   UNL     1      15.083   2.869  -1.873  0.00  0.00    -0.126 OA
ENDBRANCH  10  15
ENDBRANCH   7   8
ENDBRANCH   4   6
ENDBRANCH   1   2
BRANCH   1  18
ATOM     18  N   UNL     1       4.199  -0.834   1.339  0.00  0.00    +0.391 N 
ATOM     19  H   UNL     1       4.109   0.078   1.761  0.00  0.00    -0.080 HD
BRANCH  18  20
ATOM     20  C   UNL     1       3.760  -0.772  -0.061  0.00  0.00    -0.042 C 
BRANCH  20  24
ATOM     21  C   UNL     1      -0.183   0.861  -0.248  0.00  0.00    +0.000 A 
ATOM     22  C   UNL     1       0.912   1.703  -0.192  0.00  0.00    +0.000 A 
ATOM     23  C   UNL     1       2.188   1.174  -0.131  0.00  0.00    +0.002 A 
ATOM     24  C   UNL     1       2.369  -0.196  -0.127  0.00  0.00    -0.064 A 
ATOM     25  C   UNL     1       1.274  -1.038  -0.182  0.00  0.00    +0.002 A 
ATOM     26  C   UNL     1      -0.002  -0.510  -0.244  0.00  0.00    +0.000 A 
ENDBRANCH  20  24
ENDBRANCH  18  20
BRANCH  18  27
ATOM     27  C   UNL     1       3.366  -1.797   2.071  0.00  0.00    -0.042 C 
BRANCH  27  28
ATOM     28  C   UNL     1       3.721  -1.759   3.535  0.00  0.00    -0.064 A 
ATOM     29  C   UNL     1       4.627  -2.667   4.050  0.00  0.00    +0.002 A 
ATOM     30  C   UNL     1       4.953  -2.632   5.393  0.00  0.00    +0.000 A 
ATOM     31  C   UNL     1       4.375  -1.688   6.221  0.00  0.00    +0.000 A 
ATOM     32  C   UNL     1       3.470  -0.779   5.705  0.00  0.00    +0.000 A 
ATOM     33  C   UNL     1       3.147  -0.811   4.361  0.00  0.00    +0.002 A 
ENDBRANCH  27  28
ENDBRANCH  18  27
ENDBRANCH   1  18
TORSDOF 9
