REMARK  Name = ZINC03296091
REMARK  8 active torsions:
REMARK  status: ('A' for Active; 'I' for Inactive)
REMARK    1  A    between atoms: C_4  and  C_7
REMARK    2  A    between atoms: C_7  and  N_8
REMARK    3  A    between atoms: C_9  and  C_30
REMARK    4  A    between atoms: C_12  and  S_13
REMARK    5  A    between atoms: S_13  and  C_14
REMARK    6  A    between atoms: C_14  and  C_15
REMARK    7  A    between atoms: N_17  and  C_18
REMARK    8  A    between atoms: C_19  and  C_28
REMARK                            x       y       z     vdW  Elec       q    Type
REMARK                         _______ _______ _______ _____ _____    ______ ____
ROOT
ATOM      1  S   UNL     1      -4.442   3.051   1.729  0.00  0.00    -0.077 S 
ENDROOT
BRANCH   1   6
ATOM      2  N   UNL     1      -2.927   0.722   1.401  0.00  0.00    -0.295 N 
ATOM      3  C   UNL     1      -2.604  -0.370   2.177  0.00  0.00    +0.201 A 
ATOM      4  N   UNL     1      -3.180  -0.194   3.346  0.00  0.00    -0.125 NA
ATOM      5  N   UNL     1      -3.836   0.911   3.350  0.00  0.00    -0.122 NA
ATOM      6  C   UNL     1      -3.717   1.512   2.188  0.00  0.00    +0.193 A 
BRANCH   3   7
ATOM      7  C   UNL     1      -1.772  -1.514   1.775  0.00  0.00    +0.172 A 
ATOM      8  C   UNL     1      -1.218  -2.434   2.613  0.00  0.00    +0.053 A 
ATOM      9  C   UNL     1      -0.509  -3.344   1.804  0.00  0.00    +0.042 A 
ATOM     10  C   UNL     1      -0.656  -2.937   0.528  0.00  0.00    +0.196 A 
ATOM     11  O   UNL     1      -1.418  -1.831   0.513  0.00  0.00    -0.460 OA
ENDBRANCH   3   7
BRANCH   2  12
ATOM     12  C   UNL     1      -2.514   0.980   0.019  0.00  0.00    +0.161 C 
BRANCH  12  16
ATOM     13  C   UNL     1       1.156   3.165   0.008  0.00  0.00    +0.000 A 
ATOM     14  C   UNL     1       1.175   1.783   0.000  0.00  0.00    +0.000 A 
ATOM     15  C   UNL     1      -0.013   1.076   0.008  0.00  0.00    +0.005 A 
ATOM     16  C   UNL     1      -1.219   1.751   0.017  0.00  0.00    -0.028 A 
ATOM     17  C   UNL     1      -1.238   3.133   0.030  0.00  0.00    +0.005 A 
ATOM     18  C   UNL     1      -0.050   3.840   0.022  0.00  0.00    +0.000 A 
ENDBRANCH  12  16
ENDBRANCH   2  12
ENDBRANCH   1   6
BRANCH   1  19
ATOM     19  C   UNL     1      -5.311   3.459   3.263  0.00  0.00    +0.173 C 
BRANCH  19  20
ATOM     20  C   UNL     1      -6.026   4.776   3.101  0.00  0.00    +0.228 C 
ATOM     21  O   UNL     1      -5.954   5.380   2.051  0.00  0.00    -0.275 OA
ATOM     22  N   UNL     1      -6.744   5.283   4.122  0.00  0.00    -0.278 N 
ATOM     23  H   UNL     1      -6.802   4.801   4.961  0.00  0.00    +0.155 HD
BRANCH  22  24
ATOM     24  C   UNL     1      -7.402   6.496   3.973  0.00  0.00    +0.090 A 
ATOM     25  C   UNL     1      -8.186   7.170   4.895  0.00  0.00    +0.084 A 
ATOM     26  C   UNL     1      -8.766   8.443   4.491  0.00  0.00    -0.018 A 
ATOM     27  C   UNL     1      -8.479   8.823   3.226  0.00  0.00    -0.004 A 
ATOM     28  S   UNL     1      -7.449   7.532   2.585  0.00  0.00    -0.077 S 
ATOM     29  C   UNL     1      -8.941  10.056   2.514  0.00  0.00    +0.043 C 
ATOM     30  C   UNL     1      -8.704  11.278   3.412  0.00  0.00    +0.005 C 
ATOM     31  C   UNL     1      -9.944  11.490   4.276  0.00  0.00    +0.001 C 
ATOM     32  C   UNL     1     -10.588  10.145   4.610  0.00  0.00    +0.005 C 
ATOM     33  C   UNL     1      -9.629   9.283   5.424  0.00  0.00    +0.037 C 
BRANCH  25  34
ATOM     34  C   UNL     1      -8.416   6.634   6.202  0.00  0.00    +0.102 C 
ATOM     35  N   UNL     1      -8.598   6.209   7.240  0.00  0.00    -0.191 NA
ENDBRANCH  25  34
ENDBRANCH  22  24
ENDBRANCH  19  20
ENDBRANCH   1  19
TORSDOF 8
