REMARK  Name = ZINC39995166
REMARK  7 active torsions:
REMARK  status: ('A' for Active; 'I' for Inactive)
REMARK    1  A    between atoms: C_1  and  C_2
REMARK    2  A    between atoms: C_6  and  N_12
REMARK    3  A    between atoms: C_9  and  C_11
REMARK    4  A    between atoms: C_13  and  C_15
REMARK    5  A    between atoms: C_15  and  S_16
REMARK    6  A    between atoms: S_16  and  C_17
REMARK    7  A    between atoms: N_22  and  C_23
REMARK                            x       y       z     vdW  Elec       q    Type
REMARK                         _______ _______ _______ _____ _____    ______ ____
ROOT
ATOM      1  S   UNL     1      -6.319  -5.979  -1.046  0.00  0.00    -0.108 S 
ENDROOT
BRANCH   1   2
ATOM      2  C   UNL     1      -6.264  -7.177  -2.407  0.00  0.00    +0.240 C 
ATOM      3  N   UNL     1      -4.931  -7.799  -2.495  0.00  0.00    -0.259 N 
ATOM      4  N   UNL     1      -4.426  -7.462  -3.757  0.00  0.00    -0.283 N 
ATOM      5  C   UNL     1      -5.261  -6.737  -4.421  0.00  0.00    +0.183 C 
ATOM      6  N   UNL     1      -6.426  -6.496  -3.702  0.00  0.00    -0.244 N 
ATOM      7  N   UNL     1      -5.026  -6.257  -5.703  0.00  0.00    -0.303 N 
ATOM      8  C   UNL     1      -4.655  -4.852  -5.919  0.00  0.00    +0.108 C 
ATOM      9  C   UNL     1      -3.361  -4.804  -6.738  0.00  0.00    +0.019 C 
ATOM     10  C   UNL     1      -3.546  -5.610  -8.025  0.00  0.00    +0.003 C 
ATOM     11  C   UNL     1      -3.843  -7.071  -7.676  0.00  0.00    +0.019 C 
ATOM     12  C   UNL     1      -5.136  -7.146  -6.868  0.00  0.00    +0.108 C 
ATOM     13  H   UNL     1      -4.491  -8.334  -1.815  0.00  0.00    +0.169 HD
ATOM     14  H   UNL     1      -3.558  -7.738  -4.089  0.00  0.00    +0.187 HD
BRANCH   6  15
ATOM     15  C   UNL     1      -7.532  -5.753  -4.123  0.00  0.00    +0.039 A 
ATOM     16  C   UNL     1      -7.597  -5.278  -5.427  0.00  0.00    +0.023 A 
ATOM     17  C   UNL     1      -8.692  -4.545  -5.839  0.00  0.00    +0.002 A 
ATOM     18  C   UNL     1      -9.724  -4.284  -4.956  0.00  0.00    +0.000 A 
ATOM     19  C   UNL     1      -9.663  -4.756  -3.658  0.00  0.00    +0.002 A 
ATOM     20  C   UNL     1      -8.573  -5.494  -3.240  0.00  0.00    +0.023 A 
ENDBRANCH   6  15
ENDBRANCH   1   2
BRANCH   1  21
ATOM     21  C   UNL     1      -4.973  -4.824  -1.424  0.00  0.00    +0.168 C 
BRANCH  21  23
ATOM     22  N   UNL     1      -3.977  -2.789  -0.429  0.00  0.00    -0.285 N 
ATOM     23  C   UNL     1      -4.907  -3.762  -0.356  0.00  0.00    +0.225 C 
ATOM     24  O   UNL     1      -5.691  -3.783   0.569  0.00  0.00    -0.275 OA
ATOM     25  H   UNL     1      -3.350  -2.772  -1.169  0.00  0.00    +0.151 HD
BRANCH  22  30
ATOM     26  C   UNL     1      -1.090   1.997   0.313  0.00  0.00    +0.030 C 
ATOM     27  C   UNL     1      -0.917   0.477   0.302  0.00  0.00    +0.099 C 
ATOM     28  C   UNL     1      -2.268  -0.184   0.244  0.00  0.00    -0.011 C 
ATOM     29  C   UNL     1      -2.493  -1.360   0.856  0.00  0.00    +0.065 C 
ATOM     30  C   UNL     1      -3.913  -1.757   0.609  0.00  0.00    +0.243 C 
ATOM     31  O   UNL     1      -4.584  -0.558   0.164  0.00  0.00    -0.347 OA
ATOM     32  C   UNL     1      -3.537   0.244  -0.426  0.00  0.00    +0.146 C 
ATOM     33  C   UNL     1      -3.455  -0.020  -1.931  0.00  0.00    +0.043 C 
ATOM     34  C   UNL     1      -1.415  -2.013   1.614  0.00  0.00    +0.258 C 
ATOM     35  O   UNL     1      -1.528  -3.140   2.058  0.00  0.00    -0.269 OA
ATOM     36  N   UNL     1      -0.286  -1.281   1.787  0.00  0.00    -0.247 N 
ATOM     37  N   UNL     1      -0.231   0.051   1.529  0.00  0.00    -0.233 NA
ATOM     38  H   UNL     1       0.514  -1.726   2.107  0.00  0.00    +0.169 HD
ATOM     39  H   UNL     1       0.721   0.386   1.546  0.00  0.00    +0.145 HD
ENDBRANCH  22  30
ENDBRANCH  21  23
ENDBRANCH   1  21
TORSDOF 5
