REMARK  Name = ZINC11064180
REMARK  13 active torsions:
REMARK  status: ('A' for Active; 'I' for Inactive)
REMARK    1  A    between atoms: C_1  and  C_2
REMARK    2  A    between atoms: C_4  and  C_13
REMARK    3  A    between atoms: C_5  and  C_12
REMARK    4  A    between atoms: N_6  and  C_7
REMARK    5  A    between atoms: C_7  and  C_8
REMARK    6  A    between atoms: C_8  and  C_9
REMARK    7  A    between atoms: C_9  and  O_10
REMARK    8  A    between atoms: O_10  and  C_11
REMARK    9  A    between atoms: C_13  and  C_15
REMARK   10  A    between atoms: C_15  and  O_16
REMARK   11  A    between atoms: O_16  and  C_17
REMARK   12  A    between atoms: C_17  and  C_19
REMARK   13  A    between atoms: C_20  and  C_34
REMARK                            x       y       z     vdW  Elec       q    Type
REMARK                         _______ _______ _______ _____ _____    ______ ____
ROOT
ATOM      1  C   UNL     1       3.126   5.724  -6.397  0.00  0.00    +0.347 C 
ATOM      2  O   UNL     1       2.928   6.884  -6.089  0.00  0.00    -0.244 OA
ENDROOT
BRANCH   1   3
ATOM      3  C   UNL     1       2.909   4.659  -5.415  0.00  0.00    +0.102 A 
ATOM      4  C   UNL     1       2.491   4.766  -4.120  0.00  0.00    -0.015 A 
ATOM      5  C   UNL     1       2.344   3.618  -3.340  0.00  0.00    +0.076 A 
ATOM      6  C   UNL     1       2.654   2.395  -3.980  0.00  0.00    +0.116 A 
ATOM      7  S   UNL     1       3.125   2.899  -5.615  0.00  0.00    -0.062 S 
ATOM      8  N   UNL     1       2.558   1.231  -3.350  0.00  0.00    -0.226 NA
ATOM      9  C   UNL     1       2.164   1.152  -2.110  0.00  0.00    +0.114 A 
ATOM     10  N   UNL     1       1.835   2.264  -1.391  0.00  0.00    -0.296 N 
ATOM     11  C   UNL     1       1.906   3.493  -1.931  0.00  0.00    +0.263 A 
ATOM     12  O   UNL     1       1.616   4.479  -1.278  0.00  0.00    -0.267 OA
ATOM     13  C   UNL     1       1.397   2.086  -0.000  0.00  0.00    +0.126 C 
ATOM     14  C   UNL     1      -0.018   1.515   0.010  0.00  0.00    +0.022 C 
ATOM     15  C   UNL     1       0.002  -0.004   0.002  0.00  0.00    +0.002 C 
ATOM     16  C   UNL     1       0.583  -0.563  -1.285  0.00  0.00    +0.008 C 
ATOM     17  C   UNL     1       2.058  -0.193  -1.429  0.00  0.00    +0.074 C 
ATOM     18  C   UNL     1       2.189   6.121  -3.533  0.00  0.00    +0.046 C 
ENDBRANCH   1   3
BRANCH   1  19
ATOM     19  O   UNL     1       3.546   5.418  -7.642  0.00  0.00    -0.453 OA
BRANCH  19  20
ATOM     20  C   UNL     1       3.740   6.525  -8.562  0.00  0.00    +0.312 C 
BRANCH  20  21
ATOM     21  C   UNL     1       4.206   5.995  -9.893  0.00  0.00    +0.202 C 
ATOM     22  O   UNL     1       4.360   4.801 -10.051  0.00  0.00    -0.288 OA
BRANCH  21  26
ATOM     23  C   UNL     1       4.706  10.248 -12.654  0.00  0.00    +0.063 C 
ATOM     24  C   UNL     1       4.690   8.810 -12.203  0.00  0.00    +0.017 A 
ATOM     25  C   UNL     1       4.335   8.382 -10.979  0.00  0.00    +0.034 A 
ATOM     26  C   UNL     1       4.474   6.920 -10.996  0.00  0.00    +0.042 A 
ATOM     27  C   UNL     1       4.904   6.596 -12.270  0.00  0.00    +0.026 A 
ATOM     28  N   UNL     1       5.027   7.735 -12.973  0.00  0.00    -0.347 N 
ATOM     29  C   UNL     1       5.187   5.206 -12.780  0.00  0.00    +0.064 C 
BRANCH  28  30
ATOM     30  C   UNL     1       5.461   7.812 -14.370  0.00  0.00    +0.124 C 
BRANCH  30  31
ATOM     31  C   UNL     1       4.241   7.719 -15.289  0.00  0.00    +0.049 C 
BRANCH  31  32
ATOM     32  C   UNL     1       4.695   7.799 -16.748  0.00  0.00    +0.161 C 
BRANCH  32  33
ATOM     33  O   UNL     1       3.555   7.712 -17.607  0.00  0.00    -0.383 OA
ATOM     34  C   UNL     1       3.870   7.777 -18.999  0.00  0.00    +0.193 C 
ENDBRANCH  32  33
ENDBRANCH  31  32
ENDBRANCH  30  31
ENDBRANCH  28  30
ENDBRANCH  21  26
ENDBRANCH  20  21
ENDBRANCH  19  20
ENDBRANCH   1  19
TORSDOF 9
