REMARK  Name = ZINC15932702
REMARK  5 active torsions:
REMARK  status: ('A' for Active; 'I' for Inactive)
REMARK    1  A    between atoms: C_1  and  C_2
REMARK    2  A    between atoms: C_5  and  C_7
REMARK    3  A    between atoms: C_9  and  C_20
REMARK    4  A    between atoms: C_13  and  N_19
REMARK    5  A    between atoms: C_14  and  C_16
REMARK                            x       y       z     vdW  Elec       q    Type
REMARK                         _______ _______ _______ _____ _____    ______ ____
ROOT
ATOM      1  C   UNL     1      -1.146   3.731   2.802  0.00  0.00    +0.031 A 
ATOM      2  C   UNL     1      -0.516   3.269   1.650  0.00  0.00    +0.044 A 
ATOM      3  C   UNL     1      -0.334   1.914   1.454  0.00  0.00    +0.146 A 
ATOM      4  N   UNL     1      -0.743   1.042   2.358  0.00  0.00    -0.235 NA
ATOM      5  C   UNL     1      -1.339   1.421   3.468  0.00  0.00    +0.112 A 
ATOM      6  C   UNL     1      -1.585   2.778   3.774  0.00  0.00    +0.040 A 
ATOM      7  C   UNL     1      -2.254   3.016   5.039  0.00  0.00    +0.054 A 
ATOM      8  C   UNL     1      -2.585   1.927   5.819  0.00  0.00    +0.097 A 
ATOM      9  S   UNL     1      -2.002   0.543   4.862  0.00  0.00    -0.062 S 
ENDROOT
BRANCH   1  14
ATOM     10  C   UNL     1      -3.409   8.121   3.671  0.00  0.00    +0.086 C 
ATOM     11  C   UNL     1      -2.336   7.099   3.400  0.00  0.00    +0.103 A 
ATOM     12  C   UNL     1      -1.019   7.358   3.268  0.00  0.00    +0.045 A 
ATOM     13  C   UNL     1      -0.378   6.128   3.029  0.00  0.00    +0.050 A 
ATOM     14  C   UNL     1      -1.351   5.174   3.019  0.00  0.00    +0.136 A 
ATOM     15  O   UNL     1      -2.533   5.780   3.249  0.00  0.00    -0.460 OA
ENDBRANCH   1  14
BRANCH   8  16
ATOM     16  C   UNL     1      -3.233   1.914   7.079  0.00  0.00    +0.250 C 
ATOM     17  O   UNL     1      -3.571   2.961   7.601  0.00  0.00    -0.270 OA
ATOM     18  N   UNL     1      -3.477   0.742   7.699  0.00  0.00    -0.325 N 
ATOM     19  H   UNL     1      -3.209  -0.092   7.282  0.00  0.00    +0.145 HD
ATOM     20  H   UNL     1      -3.921   0.733   8.561  0.00  0.00    +0.145 HD
ENDBRANCH   8  16
BRANCH   3  21
ATOM     21  C   UNL     1       0.345   1.426   0.200  0.00  0.00    +0.434 C 
ATOM     22  F   UNL     1       0.321   0.027   0.171  0.00  0.00    -0.164 F 
ATOM     23  F   UNL     1       1.671   1.870   0.184  0.00  0.00    -0.164 F 
ATOM     24  F   UNL     1      -0.329   1.927  -0.919  0.00  0.00    -0.164 F 
ENDBRANCH   3  21
BRANCH   7  25
ATOM     25  N   UNL     1      -2.552   4.307   5.455  0.00  0.00    -0.356 N 
ATOM     26  H   UNL     1      -2.044   5.057   5.109  0.00  0.00    +0.142 HD
ATOM     27  H   UNL     1      -3.269   4.458   6.091  0.00  0.00    +0.142 HD
ENDBRANCH   7  25
TORSDOF 4
