REMARK  Name = ZINC08948613
REMARK  10 active torsions:
REMARK  status: ('A' for Active; 'I' for Inactive)
REMARK    1  A    between atoms: C_1  and  C_2
REMARK    2  A    between atoms: C_7  and  C_10
REMARK    3  A    between atoms: C_11  and  C_13
REMARK    4  A    between atoms: C_13  and  N_14
REMARK    5  A    between atoms: C_17  and  C_21
REMARK    6  A    between atoms: C_17  and  C_22
REMARK    7  A    between atoms: C_25  and  C_28
REMARK    8  A    between atoms: C_28  and  C_29
REMARK    9  A    between atoms: C_28  and  C_30
REMARK   10  A    between atoms: C_28  and  C_31
REMARK                            x       y       z     vdW  Elec       q    Type
REMARK                         _______ _______ _______ _____ _____    ______ ____
ROOT
ATOM      1  N   UNL     1      -0.730  -1.265   1.761  0.00  0.00    -0.215 N 
ATOM      2  C   UNL     1      -1.213  -0.558   0.720  0.00  0.00    +0.251 C 
ATOM      3  O   UNL     1      -2.376  -0.397   0.421  0.00  0.00    -0.272 OA
ATOM      4  C   UNL     1       0.002  -0.004   0.002  0.00  0.00    +0.135 C 
ATOM      5  N   UNL     1       1.135  -0.511   0.796  0.00  0.00    -0.281 N 
ATOM      6  C   UNL     1       0.607  -1.236   1.799  0.00  0.00    +0.310 C 
ATOM      7  O   UNL     1       1.272  -1.800   2.647  0.00  0.00    -0.252 OA
ATOM      8  C   UNL     1       0.066  -0.532  -1.433  0.00  0.00    +0.047 C 
ATOM      9  H   UNL     1       2.077  -0.354   0.627  0.00  0.00    +0.152 HD
ENDROOT
BRANCH   4  10
ATOM     10  C   UNL     1      -0.018   1.503   0.010  0.00  0.00    -0.015 A 
ATOM     11  C   UNL     1      -1.225   2.178   0.020  0.00  0.00    +0.006 A 
ATOM     12  C   UNL     1      -1.244   3.560   0.032  0.00  0.00    +0.004 A 
ATOM     13  C   UNL     1      -0.056   4.267   0.025  0.00  0.00    -0.042 A 
ATOM     14  C   UNL     1       1.151   3.592   0.010  0.00  0.00    +0.004 A 
ATOM     15  C   UNL     1       1.169   2.210   0.003  0.00  0.00    +0.006 A 
BRANCH  13  16
ATOM     16  C   UNL     1      -0.076   5.774   0.032  0.00  0.00    -0.013 C 
ATOM     17  C   UNL     1       0.626   6.300  -1.222  0.00  0.00    +0.015 C 
ATOM     18  C   UNL     1      -1.526   6.264   0.048  0.00  0.00    +0.015 C 
ATOM     19  C   UNL     1       0.650   6.288   1.277  0.00  0.00    +0.015 C 
ENDBRANCH  13  16
ENDBRANCH   4  10
BRANCH   1  20
ATOM     20  C   UNL     1      -1.565  -1.979   2.729  0.00  0.00    +0.213 C 
BRANCH  20  29
ATOM     21  C   UNL     1      -4.568  -7.365   2.323  0.00  0.00    +0.039 C 
ATOM     22  C   UNL     1      -4.301  -5.884   2.599  0.00  0.00    +0.133 C 
ATOM     23  C   UNL     1      -2.794  -5.614   2.532  0.00  0.00    +0.139 C 
ATOM     24  N   UNL     1      -2.549  -4.235   2.982  0.00  0.00    -0.295 N 
ATOM     25  C   UNL     1      -3.139  -3.810   4.261  0.00  0.00    +0.139 C 
ATOM     26  C   UNL     1      -4.634  -4.166   4.241  0.00  0.00    +0.133 C 
ATOM     27  O   UNL     1      -4.783  -5.547   3.902  0.00  0.00    -0.371 OA
ATOM     28  C   UNL     1      -5.355  -3.304   3.202  0.00  0.00    +0.039 C 
ATOM     29  C   UNL     1      -1.802  -3.387   2.247  0.00  0.00    +0.234 C 
ATOM     30  O   UNL     1      -1.320  -3.758   1.198  0.00  0.00    -0.274 OA
ENDBRANCH  20  29
ENDBRANCH   1  20
TORSDOF 4
