REMARK  Name = ZINC11591866
REMARK  7 active torsions:
REMARK  status: ('A' for Active; 'I' for Inactive)
REMARK    1  A    between atoms: C_3  and  C_6
REMARK    2  A    between atoms: C_9  and  S_12
REMARK    3  A    between atoms: N_10  and  N_11
REMARK    4  A    between atoms: S_12  and  C_13
REMARK    5  A    between atoms: C_13  and  C_14
REMARK    6  A    between atoms: N_16  and  N_17
REMARK    7  A    between atoms: C_18  and  C_20
REMARK                            x       y       z     vdW  Elec       q    Type
REMARK                         _______ _______ _______ _____ _____    ______ ____
ROOT
ATOM      1  S   UNL     1       3.538   7.997   0.415  0.00  0.00    -0.075 S 
ENDROOT
BRANCH   1   5
ATOM      2  C   UNL     1       0.914   5.126   0.019  0.00  0.00    +0.188 A 
ATOM      3  N   UNL     1       0.209   6.203  -0.249  0.00  0.00    -0.126 NA
ATOM      4  N   UNL     1       0.950   7.248  -0.151  0.00  0.00    -0.121 NA
ATOM      5  C   UNL     1       2.175   6.905   0.176  0.00  0.00    +0.209 A 
ATOM      6  N   UNL     1       2.197   5.543   0.297  0.00  0.00    -0.223 N 
BRANCH   2   9
ATOM      7  C   UNL     1      -1.081   1.915   0.017  0.00  0.00    +0.008 A 
ATOM      8  C   UNL     1      -0.866   3.275   0.026  0.00  0.00    +0.019 A 
ATOM      9  C   UNL     1       0.426   3.737   0.017  0.00  0.00    +0.058 A 
ATOM     10  S   UNL     1       1.361   2.216   0.001  0.00  0.00    -0.093 S 
ATOM     11  C   UNL     1      -0.013   1.076   0.008  0.00  0.00    +0.046 A 
ENDBRANCH   2   9
BRANCH   6  12
ATOM     12  N   UNL     1       3.267   4.760   0.623  0.00  0.00    -0.295 N 
ATOM     13  H   UNL     1       3.773   4.476  -0.203  0.00  0.00    +0.163 HD
ATOM     14  H   UNL     1       3.876   5.232   1.275  0.00  0.00    +0.163 HD
ENDBRANCH   6  12
ENDBRANCH   1   5
BRANCH   1  15
ATOM     15  C   UNL     1       2.731   9.583   0.085  0.00  0.00    +0.174 C 
BRANCH  15  16
ATOM     16  C   UNL     1       3.734  10.697   0.235  0.00  0.00    +0.239 C 
ATOM     17  O   UNL     1       4.882  10.444   0.535  0.00  0.00    -0.273 OA
ATOM     18  N   UNL     1       3.356  11.976   0.035  0.00  0.00    -0.233 N 
ATOM     19  H   UNL     1       2.439  12.178  -0.205  0.00  0.00    +0.173 HD
BRANCH  18  20
ATOM     20  N   UNL     1       4.289  13.012   0.174  0.00  0.00    -0.230 N 
ATOM     21  C   UNL     1       3.911  14.290  -0.026  0.00  0.00    +0.267 C 
ATOM     22  O   UNL     1       2.760  14.544  -0.327  0.00  0.00    -0.268 OA
ATOM     23  H   UNL     1       5.207  12.809   0.414  0.00  0.00    +0.173 HD
BRANCH  21  24
ATOM     24  C   UNL     1       4.887  15.374   0.120  0.00  0.00    +0.075 A 
ATOM     25  C   UNL     1       4.708  16.738  -0.045  0.00  0.00    +0.021 A 
ATOM     26  C   UNL     1       5.803  17.541   0.158  0.00  0.00    +0.008 A 
ATOM     27  C   UNL     1       6.990  16.972   0.494  0.00  0.00    +0.046 A 
ATOM     28  S   UNL     1       6.617  15.280   0.547  0.00  0.00    -0.092 S 
ENDBRANCH  21  24
ENDBRANCH  18  20
ENDBRANCH  15  16
ENDBRANCH   1  15
TORSDOF 7
