REMARK  Name = ZINC39363164
REMARK  7 active torsions:
REMARK  status: ('A' for Active; 'I' for Inactive)
REMARK    1  A    between atoms: C_1  and  C_2
REMARK    2  A    between atoms: C_6  and  C_8
REMARK    3  A    between atoms: C_8  and  S_9
REMARK    4  A    between atoms: S_9  and  C_10
REMARK    5  A    between atoms: C_13  and  C_23
REMARK    6  A    between atoms: N_15  and  C_16
REMARK    7  A    between atoms: C_23  and  C_24
REMARK                            x       y       z     vdW  Elec       q    Type
REMARK                         _______ _______ _______ _____ _____    ______ ____
ROOT
ATOM      1  C   UNL     1       1.629  -4.220   4.422  0.00  0.00    +0.180 C 
ATOM      2  N   UNL     1       0.501  -4.491   4.988  0.00  0.00    -0.162 NA
ATOM      3  N   UNL     1       0.680  -4.932   6.304  0.00  0.00    -0.246 N 
ATOM      4  C   UNL     1       2.133  -4.918   6.548  0.00  0.00    +0.187 C 
ATOM      5  N   UNL     1       2.701  -4.447   5.274  0.00  0.00    -0.258 N 
ATOM      6  H   UNL     1      -0.013  -5.194   6.930  0.00  0.00    +0.170 HD
ENDROOT
BRANCH   5   7
ATOM      7  C   UNL     1       4.055  -4.262   4.980  0.00  0.00    +0.038 A 
ATOM      8  C   UNL     1       4.908  -5.356   4.909  0.00  0.00    +0.025 A 
ATOM      9  C   UNL     1       6.245  -5.170   4.619  0.00  0.00    +0.022 A 
ATOM     10  C   UNL     1       6.736  -3.895   4.399  0.00  0.00    +0.041 A 
ATOM     11  C   UNL     1       5.889  -2.803   4.470  0.00  0.00    +0.022 A 
ATOM     12  C   UNL     1       4.550  -2.983   4.754  0.00  0.00    +0.025 A 
ATOM     13 CL   UNL     1       8.418  -3.665   4.035  0.00  0.00    -0.084 Cl
ENDBRANCH   5   7
BRANCH   1  14
ATOM     14  S   UNL     1       1.790  -3.640   2.766  0.00  0.00    -0.084 S 
BRANCH  14  15
ATOM     15  C   UNL     1       0.080  -3.541   2.169  0.00  0.00    +0.112 C 
BRANCH  15  21
ATOM     16  C   UNL     1      -0.089   0.231  -1.116  0.00  0.00    +0.044 C 
ATOM     17  C   UNL     1      -0.008  -1.246  -0.828  0.00  0.00    -0.050 A 
ATOM     18  C   UNL     1       0.060  -2.151  -1.870  0.00  0.00    +0.003 A 
ATOM     19  C   UNL     1       0.134  -3.505  -1.606  0.00  0.00    +0.001 A 
ATOM     20  C   UNL     1       0.140  -3.955  -0.299  0.00  0.00    +0.004 A 
ATOM     21  C   UNL     1       0.073  -3.050   0.744  0.00  0.00    -0.037 A 
ATOM     22  C   UNL     1       0.004  -1.695   0.479  0.00  0.00    +0.007 A 
ENDBRANCH  15  21
ENDBRANCH  14  15
ENDBRANCH   1  14
BRANCH   4  23
ATOM     23  C   UNL     1       2.477  -3.955   7.687  0.00  0.00    +0.097 C 
BRANCH  23  24
ATOM     24  C   UNL     1       1.905  -4.480   8.978  0.00  0.00    +0.029 A 
ATOM     25  N   UNL     1       0.606  -4.212   9.314  0.00  0.00    -0.311 N 
ATOM     26  C   UNL     1       0.086  -4.676  10.465  0.00  0.00    +0.327 A 
ATOM     27  O   UNL     1      -1.071  -4.426  10.743  0.00  0.00    -0.247 OA
ATOM     28  N   UNL     1       0.828  -5.414  11.311  0.00  0.00    -0.275 N 
ATOM     29  C   UNL     1       2.112  -5.701  11.017  0.00  0.00    +0.254 A 
ATOM     30  O   UNL     1       2.784  -6.368  11.782  0.00  0.00    -0.268 OA
ATOM     31  C   UNL     1       2.670  -5.222   9.807  0.00  0.00    +0.091 A 
ATOM     32  H   UNL     1       0.437  -5.741  12.137  0.00  0.00    +0.173 HD
ATOM     33  H   UNL     1       0.055  -3.682   8.717  0.00  0.00    +0.170 HD
ENDBRANCH  23  24
ENDBRANCH   4  23
TORSDOF 6
