REMARK  Name = ZINC16569797
REMARK  10 active torsions:
REMARK  status: ('A' for Active; 'I' for Inactive)
REMARK    1  A    between atoms: C_1  and  C_2
REMARK    2  A    between atoms: C_2  and  C_3
REMARK    3  A    between atoms: C_3  and  C_4
REMARK    4  A    between atoms: C_4  and  N_5
REMARK    5  A    between atoms: N_5  and  C_6
REMARK    6  A    between atoms: C_6  and  C_7
REMARK    7  A    between atoms: C_21  and  C_23
REMARK    8  A    between atoms: N_31  and  C_32
REMARK    9  A    between atoms: C_36  and  C_39
REMARK   10  A    between atoms: C_37  and  C_38
REMARK                            x       y       z     vdW  Elec       q    Type
REMARK                         _______ _______ _______ _____ _____    ______ ____
ROOT
ATOM      1  C   UNL     1      -0.952   1.308  -1.243  0.00  0.00    +0.238 C 
ATOM      2  O   UNL     1      -1.973   1.952  -1.123  0.00  0.00    -0.273 OA
ATOM      3  N   UNL     1      -0.481   1.013  -2.471  0.00  0.00    -0.255 N 
ATOM      4  C   UNL     1      -1.120   1.528  -3.607  0.00  0.00    +0.061 A 
ATOM      5  C   UNL     1      -2.479   1.802  -3.588  0.00  0.00    +0.025 A 
ATOM      6  C   UNL     1      -3.094   2.319  -4.713  0.00  0.00    +0.002 A 
ATOM      7  C   UNL     1      -2.362   2.567  -5.860  0.00  0.00    +0.002 A 
ATOM      8  C   UNL     1      -1.006   2.294  -5.891  0.00  0.00    +0.028 A 
ATOM      9  C   UNL     1      -0.386   1.773  -4.773  0.00  0.00    +0.068 A 
ATOM     10  N   UNL     1       0.981   1.457  -4.763  0.00  0.00    -0.316 N 
ATOM     11  C   UNL     1       1.960   1.791  -5.638  0.00  0.00    +0.092 A 
ATOM     12  C   UNL     1       3.120   1.256  -5.195  0.00  0.00    +0.020 A 
ATOM     13  C   UNL     1       2.839   0.562  -3.997  0.00  0.00    +0.025 A 
ATOM     14  C   UNL     1       1.531   0.696  -3.755  0.00  0.00    +0.049 A 
ATOM     15  C   UNL     1       0.707   0.156  -2.617  0.00  0.00    +0.159 C 
ENDROOT
BRANCH  15  16
ATOM     16  C   UNL     1       0.282  -1.257  -2.925  0.00  0.00    -0.021 A 
ATOM     17  C   UNL     1      -0.774  -1.488  -3.786  0.00  0.00    +0.006 A 
ATOM     18  C   UNL     1      -1.161  -2.784  -4.073  0.00  0.00    +0.000 A 
ATOM     19  C   UNL     1      -0.497  -3.848  -3.491  0.00  0.00    +0.000 A 
ATOM     20  C   UNL     1       0.555  -3.617  -2.626  0.00  0.00    +0.000 A 
ATOM     21  C   UNL     1       0.945  -2.321  -2.343  0.00  0.00    +0.006 A 
ENDBRANCH  15  16
BRANCH   1  22
ATOM     22  C   UNL     1      -0.209   0.839  -0.018  0.00  0.00    +0.205 C 
BRANCH  22  23
ATOM     23  N   UNL     1      -0.851   1.383   1.181  0.00  0.00    -0.277 N 
ATOM     24  C   UNL     1      -0.457   2.573   1.675  0.00  0.00    +0.307 C 
ATOM     25  O   UNL     1       0.432   3.195   1.125  0.00  0.00    -0.252 OA
ATOM     26  N   UNL     1      -1.047   3.074   2.778  0.00  0.00    -0.269 N 
ATOM     27  H   UNL     1      -1.708   2.548   3.255  0.00  0.00    +0.156 HD
BRANCH  26  28
ATOM     28  C   UNL     1      -0.707   4.352   3.235  0.00  0.00    +0.038 A 
ATOM     29  C   UNL     1       0.597   4.814   3.103  0.00  0.00    +0.023 A 
ATOM     30  C   UNL     1       0.929   6.076   3.555  0.00  0.00    +0.002 A 
ATOM     31  C   UNL     1      -0.034   6.879   4.138  0.00  0.00    +0.004 A 
ATOM     32  C   UNL     1      -1.332   6.422   4.271  0.00  0.00    -0.046 A 
ATOM     33  C   UNL     1      -1.672   5.163   3.816  0.00  0.00    -0.026 A 
ATOM     34  C   UNL     1      -3.089   4.668   3.955  0.00  0.00    +0.046 C 
ATOM     35  C   UNL     1      -2.378   7.301   4.907  0.00  0.00    +0.044 C 
ENDBRANCH  26  28
BRANCH  23  36
ATOM     36  C   UNL     1      -1.921   0.633   1.843  0.00  0.00    +0.110 C 
BRANCH  36  37
ATOM     37  C   UNL     1      -1.317  -0.294   2.899  0.00  0.00    +0.019 C 
BRANCH  37  39
ATOM     38  C   UNL     1      -1.830  -2.004   4.647  0.00  0.00    +0.004 C 
ATOM     39  C   UNL     1      -2.434  -1.077   3.591  0.00  0.00    -0.002 C 
ENDBRANCH  37  39
ENDBRANCH  36  37
ENDBRANCH  23  36
ENDBRANCH  22  23
ENDBRANCH   1  22
TORSDOF 7
