REMARK  Name = ZINC42993627
REMARK  10 active torsions:
REMARK  status: ('A' for Active; 'I' for Inactive)
REMARK    1  A    between atoms: C_1  and  C_2
REMARK    2  A    between atoms: C_6  and  C_28
REMARK    3  A    between atoms: C_7  and  N_8
REMARK    4  A    between atoms: C_9  and  S_13
REMARK    5  A    between atoms: S_13  and  C_14
REMARK    6  A    between atoms: C_14  and  C_16
REMARK    7  A    between atoms: C_14  and  C_19
REMARK    8  A    between atoms: C_16  and  C_17
REMARK    9  A    between atoms: C_16  and  C_18
REMARK   10  A    between atoms: C_24  and  C_27
REMARK                            x       y       z     vdW  Elec       q    Type
REMARK                         _______ _______ _______ _____ _____    ______ ____
ROOT
ATOM      1  S   UNL     1       0.739  -2.482   3.636  0.00  0.00    -0.071 S 
ENDROOT
BRANCH   1   3
ATOM      2  N   UNL     1       0.068  -0.303   2.027  0.00  0.00    -0.187 N 
ATOM      3  C   UNL     1       0.141  -0.869   3.258  0.00  0.00    +0.215 A 
ATOM      4  N   UNL     1      -0.318   0.016   4.117  0.00  0.00    -0.101 NA
ATOM      5  N   UNL     1      -0.672   1.091   3.509  0.00  0.00    -0.022 NA
ATOM      6  N   UNL     1      -0.465   0.980   2.242  0.00  0.00    -0.038 NA
BRANCH   2  13
ATOM      7  C   UNL     1       2.076   1.008   0.494  0.00  0.00    +0.046 C 
ATOM      8  C   UNL     1       1.423  -0.266   0.025  0.00  0.00    -0.025 A 
ATOM      9  C   UNL     1       1.798  -0.834  -1.177  0.00  0.00    +0.005 A 
ATOM     10  C   UNL     1       1.199  -2.003  -1.608  0.00  0.00    +0.001 A 
ATOM     11  C   UNL     1       0.223  -2.608  -0.838  0.00  0.00    +0.005 A 
ATOM     12  C   UNL     1      -0.157  -2.045   0.365  0.00  0.00    -0.025 A 
ATOM     13  C   UNL     1       0.447  -0.874   0.803  0.00  0.00    +0.076 A 
ATOM     14  C   UNL     1      -1.221  -2.704   1.204  0.00  0.00    +0.046 C 
ENDBRANCH   2  13
ENDBRANCH   1   3
BRANCH   1  15
ATOM     15  C   UNL     1       0.702  -2.551   5.448  0.00  0.00    +0.143 C 
BRANCH  15  16
ATOM     16  C   UNL     1       1.398  -3.802   5.918  0.00  0.00    +0.229 C 
ATOM     17  O   UNL     1       1.406  -4.792   5.216  0.00  0.00    -0.274 OA
ATOM     18  N   UNL     1       2.011  -3.822   7.118  0.00  0.00    -0.301 N 
ATOM     19  C   UNL     1       1.932  -2.664   8.019  0.00  0.00    +0.108 C 
ATOM     20  C   UNL     1       3.352  -2.248   8.413  0.00  0.00    +0.022 C 
ATOM     21  C   UNL     1       4.087  -3.454   9.003  0.00  0.00    -0.011 C 
ATOM     22  C   UNL     1       4.183  -4.560   7.950  0.00  0.00    +0.022 C 
ATOM     23  C   UNL     1       2.767  -5.005   7.553  0.00  0.00    +0.108 C 
ATOM     24  C   UNL     1       5.495  -3.034   9.431  0.00  0.00    +0.007 C 
ENDBRANCH  15  16
BRANCH  15  25
ATOM     25  C   UNL     1      -0.751  -2.565   5.928  0.00  0.00    +0.005 C 
ATOM     26  C   UNL     1      -1.424  -3.864   5.481  0.00  0.00    +0.009 C 
ATOM     27  C   UNL     1      -0.785  -2.472   7.455  0.00  0.00    +0.009 C 
ENDBRANCH  15  25
ENDBRANCH   1  15
TORSDOF 5
