REMARK  Name = ZINC30883716
REMARK  9 active torsions:
REMARK  status: ('A' for Active; 'I' for Inactive)
REMARK    1  A    between atoms: C_1  and  C_2
REMARK    2  A    between atoms: C_4  and  N_31
REMARK    3  A    between atoms: C_8  and  C_30
REMARK    4  A    between atoms: C_11  and  O_29
REMARK    5  A    between atoms: C_13  and  C_17
REMARK    6  A    between atoms: C_17  and  C_19
REMARK    7  A    between atoms: C_17  and  C_20
REMARK    8  A    between atoms: N_22  and  C_23
REMARK    9  A    between atoms: C_32  and  C_34
REMARK                            x       y       z     vdW  Elec       q    Type
REMARK                         _______ _______ _______ _____ _____    ______ ____
ROOT
ATOM      1  C   UNL     1       2.653   0.451   1.375  0.00  0.00    +0.010 C 
ATOM      2  C   UNL     1       1.765   1.079   0.299  0.00  0.00    +0.012 C 
ATOM      3  C   UNL     1       0.473   0.269   0.167  0.00  0.00    +0.076 C 
ATOM      4  C   UNL     1      -0.415   0.897  -0.908  0.00  0.00    +0.023 C 
ATOM      5  C   UNL     1       0.326   0.897  -2.247  0.00  0.00    +0.009 C 
ATOM      6  C   UNL     1       1.617   1.707  -2.115  0.00  0.00    -0.027 C 
ATOM      7  C   UNL     1       2.506   1.079  -1.039  0.00  0.00    +0.028 C 
ATOM      8  C   UNL     1       3.797   1.889  -0.907  0.00  0.00    +0.122 C 
ATOM      9  C   UNL     1       4.538   1.888  -2.246  0.00  0.00    +0.029 C 
ATOM     10  C   UNL     1       3.650   2.517  -3.321  0.00  0.00    +0.007 C 
ATOM     11  C   UNL     1       2.358   1.707  -3.453  0.00  0.00    +0.007 C 
ATOM     12  C   UNL     1       1.279   3.146  -1.719  0.00  0.00    +0.011 C 
ENDROOT
BRANCH   3  13
ATOM     13  N   UNL     1      -0.236   0.269   1.449  0.00  0.00    -0.312 N 
ATOM     14  C   UNL     1      -1.086  -0.733   1.749  0.00  0.00    +0.216 C 
ATOM     15  O   UNL     1      -1.264  -1.635   0.958  0.00  0.00    -0.276 OA
ATOM     16  H   UNL     1      -0.076   1.087   2.166  0.00  0.00    +0.149 HD
BRANCH  14  17
ATOM     17  C   UNL     1      -1.816  -0.733   3.067  0.00  0.00    +0.075 C 
ATOM     18  C   UNL     1      -0.802  -0.753   4.212  0.00  0.00    +0.013 C 
ATOM     19  C   UNL     1      -1.543  -0.753   5.550  0.00  0.00    +0.001 C 
ATOM     20  C   UNL     1      -2.437  -1.992   5.638  0.00  0.00    +0.000 C 
ATOM     21  C   UNL     1      -3.452  -1.971   4.494  0.00  0.00    +0.001 C 
ATOM     22  C   UNL     1      -2.710  -1.971   3.155  0.00  0.00    +0.013 C 
ENDBRANCH  14  17
ENDBRANCH   3  13
BRANCH   9  23
ATOM     23  C   UNL     1       5.830   2.699  -2.114  0.00  0.00    +0.077 C 
ATOM     24  C   UNL     1       5.486   4.170  -1.873  0.00  0.00    +0.017 C 
BRANCH  23  25
ATOM     25  C   UNL     1       6.634   2.571  -3.382  0.00  0.00    +0.216 C 
ATOM     26  O   UNL     1       6.238   1.863  -4.283  0.00  0.00    -0.276 OA
ATOM     27  N   UNL     1       7.795   3.244  -3.514  0.00  0.00    -0.312 N 
ATOM     28  H   UNL     1       8.155   3.886  -2.696  0.00  0.00    +0.149 HD
BRANCH  27  29
ATOM     29  C   UNL     1       8.577   3.120  -4.746  0.00  0.00    +0.073 C 
ATOM     30  C   UNL     1       9.473   1.883  -4.659  0.00  0.00    +0.022 C 
ATOM     31  C   UNL     1      10.290   1.754  -5.947  0.00  0.00    +0.002 C 
ATOM     32  C   UNL     1      11.158   3.001  -6.127  0.00  0.00    +0.000 C 
ATOM     33  C   UNL     1      10.261   4.238  -6.214  0.00  0.00    +0.002 C 
ATOM     34  C   UNL     1       9.445   4.367  -4.927  0.00  0.00    +0.022 C 
ENDBRANCH  27  29
ENDBRANCH  23  25
ENDBRANCH   9  23
BRANCH   8  35
ATOM     35  O   UNL     1       4.627   1.302   0.097  0.00  0.00    -0.391 OA
ATOM     36  H   UNL     1       5.604   1.749   0.334  0.00  0.00    +0.210 HD
ENDBRANCH   8  35
TORSDOF 6
