REMARK  Name = ZINC02465026
REMARK  10 active torsions:
REMARK  status: ('A' for Active; 'I' for Inactive)
REMARK    1  A    between atoms: C_1  and  C_2
REMARK    2  A    between atoms: C_2  and  C_3
REMARK    3  A    between atoms: C_2  and  C_4
REMARK    4  A    between atoms: C_4  and  C_6
REMARK    5  A    between atoms: C_4  and  N_18
REMARK    6  A    between atoms: N_8  and  C_9
REMARK    7  A    between atoms: C_12  and  C_15
REMARK    8  A    between atoms: C_15  and  C_17
REMARK    9  A    between atoms: N_18  and  S_19
REMARK   10  A    between atoms: S_19  and  C_22
REMARK                            x       y       z     vdW  Elec       q    Type
REMARK                         _______ _______ _______ _____ _____    ______ ____
ROOT
ATOM      1  C   UNL     1       2.315  -4.235  -0.330  0.00  0.00    +0.165 C 
ENDROOT
BRANCH   1   2
ATOM      2  C   UNL     1       2.294  -2.848  -0.919  0.00  0.00    +0.236 C 
ATOM      3  O   UNL     1       3.335  -2.285  -1.181  0.00  0.00    -0.274 OA
ATOM      4  N   UNL     1       1.117  -2.234  -1.154  0.00  0.00    -0.284 N 
ATOM      5  H   UNL     1       0.288  -2.652  -0.875  0.00  0.00    +0.155 HD
BRANCH   4   6
ATOM      6  C   UNL     1       1.093  -0.999  -1.798  0.00  0.00    +0.033 A 
ATOM      7  C   UNL     1       2.038  -0.709  -2.779  0.00  0.00    +0.024 A 
ATOM      8  C   UNL     1       2.017   0.505  -3.415  0.00  0.00    +0.013 A 
ATOM      9  C   UNL     1       1.045   1.455  -3.076  0.00  0.00    +0.017 A 
ATOM     10  C   UNL     1       0.097   1.159  -2.089  0.00  0.00    +0.013 A 
ATOM     11  C   UNL     1       0.125  -0.058  -1.458  0.00  0.00    +0.024 A 
BRANCH   9  12
ATOM     12  C   UNL     1       1.020   2.757  -3.755  0.00  0.00    +0.160 C 
ATOM     13  O   UNL     1       1.780   2.977  -4.674  0.00  0.00    -0.292 OA
ATOM     14  C   UNL     1       0.050   3.821  -3.308  0.00  0.00    +0.091 C 
ENDBRANCH   9  12
ENDBRANCH   4   6
ENDBRANCH   1   2
BRANCH   1  16
ATOM     15  C   UNL     1       1.609  -5.636   1.615  0.00  0.00    +0.009 C 
ATOM     16  C   UNL     1       1.626  -4.220   1.036  0.00  0.00    +0.010 C 
ATOM     17  C   UNL     1       2.391  -3.292   1.982  0.00  0.00    +0.009 C 
ENDBRANCH   1  16
BRANCH   1  18
ATOM     18  N   UNL     1       3.703  -4.678  -0.172  0.00  0.00    -0.177 NA
ATOM     19  H   UNL     1       4.328  -4.141   0.340  0.00  0.00    +0.149 HD
BRANCH  18  20
ATOM     20  S   UNL     1       4.204  -6.094  -0.868  0.00  0.00    +0.065 S 
ATOM     21  O   UNL     1       5.596  -6.205  -0.605  0.00  0.00    -0.153 OA
ATOM     22  O   UNL     1       3.272  -7.092  -0.474  0.00  0.00    -0.153 OA
BRANCH  20  23
ATOM     23  C   UNL     1       4.035  -5.907  -2.612  0.00  0.00    +0.142 A 
ATOM     24  C   UNL     1       4.935  -5.441  -3.512  0.00  0.00    +0.036 A 
ATOM     25  C   UNL     1       4.580  -5.382  -4.846  0.00  0.00    +0.010 A 
ATOM     26  C   UNL     1       3.342  -5.792  -5.216  0.00  0.00    +0.047 A 
ATOM     27  S   UNL     1       2.636  -6.288  -3.653  0.00  0.00    -0.077 S 
ENDBRANCH  20  23
ENDBRANCH  18  20
ENDBRANCH   1  18
TORSDOF 7
