REMARK  Name = ZINC09018718
REMARK  7 active torsions:
REMARK  status: ('A' for Active; 'I' for Inactive)
REMARK    1  A    between atoms: C_1  and  C_2
REMARK    2  A    between atoms: C_2  and  C_3
REMARK    3  A    between atoms: C_2  and  C_4
REMARK    4  A    between atoms: C_2  and  C_5
REMARK    5  A    between atoms: C_13  and  S_16
REMARK    6  A    between atoms: S_16  and  C_17
REMARK    7  A    between atoms: C_17  and  C_18
REMARK                            x       y       z     vdW  Elec       q    Type
REMARK                         _______ _______ _______ _____ _____    ______ ____
ROOT
ATOM      1  C   UNL     1      -2.180  -1.098   6.866  0.00  0.00    +0.039 A 
ATOM      2  C   UNL     1      -2.822  -0.712   7.984  0.00  0.00    +0.092 A 
ATOM      3  C   UNL     1      -3.322   0.610   8.091  0.00  0.00    +0.253 A 
ATOM      4  O   UNL     1      -3.903   0.963   9.102  0.00  0.00    -0.268 OA
ATOM      5  N   UNL     1      -3.151   1.476   7.071  0.00  0.00    -0.291 N 
ATOM      6  H   UNL     1      -3.492   2.381   7.140  0.00  0.00    +0.172 HD
ATOM      7  C   UNL     1      -2.489   1.069   5.925  0.00  0.00    +0.237 A 
ATOM      8  N   UNL     1      -2.013  -0.214   5.825  0.00  0.00    -0.260 N 
ATOM      9  C   UNL     1      -1.405  -0.342   4.604  0.00  0.00    +0.198 A 
ATOM     10  N   UNL     1      -1.510   0.804   3.978  0.00  0.00    -0.120 NA
ATOM     11  N   UNL     1      -2.195   1.697   4.813  0.00  0.00    -0.109 NA
ENDROOT
BRANCH   1  13
ATOM     12  C   UNL     1      -1.967  -3.274   8.034  0.00  0.00    +0.017 C 
ATOM     13  C   UNL     1      -1.649  -2.503   6.752  0.00  0.00    +0.003 C 
ATOM     14  C   UNL     1      -2.306  -3.202   5.560  0.00  0.00    +0.017 C 
ATOM     15  C   UNL     1      -0.133  -2.460   6.545  0.00  0.00    +0.017 C 
ENDBRANCH   1  13
BRANCH   9  16
ATOM     16  S   UNL     1      -0.626  -1.795   3.983  0.00  0.00    -0.076 S 
BRANCH  16  17
ATOM     17  C   UNL     1      -0.040  -1.308   2.337  0.00  0.00    +0.173 C 
BRANCH  17  18
ATOM     18  C   UNL     1       0.656  -2.476   1.685  0.00  0.00    +0.226 C 
ATOM     19  O   UNL     1       0.747  -3.532   2.274  0.00  0.00    -0.275 OA
ATOM     20  N   UNL     1       1.177  -2.346   0.449  0.00  0.00    -0.301 N 
ATOM     21  C   UNL     1       1.851  -3.509  -0.160  0.00  0.00    +0.108 C 
ATOM     22  C   UNL     1       1.484  -3.678  -1.646  0.00  0.00    +0.019 C 
ATOM     23  C   UNL     1       0.015  -3.402  -1.852  0.00  0.00    +0.002 C 
ATOM     24  C   UNL     1      -0.179  -1.929  -2.197  0.00  0.00    +0.002 C 
ATOM     25  C   UNL     1      -0.270  -1.040  -1.029  0.00  0.00    +0.019 C 
ATOM     26  C   UNL     1       1.053  -1.073  -0.224  0.00  0.00    +0.108 C 
ENDBRANCH  17  18
ENDBRANCH  16  17
ENDBRANCH   9  16
TORSDOF 4
