REMARK  Name = ZINC00931504
REMARK  9 active torsions:
REMARK  status: ('A' for Active; 'I' for Inactive)
REMARK    1  A    between atoms: C_1  and  C_2
REMARK    2  A    between atoms: C_4  and  C_31
REMARK    3  A    between atoms: C_9  and  C_14
REMARK    4  A    between atoms: C_14  and  N_15
REMARK    5  A    between atoms: N_15  and  C_16
REMARK    6  A    between atoms: N_15  and  C_21
REMARK    7  A    between atoms: C_21  and  N_23
REMARK    8  A    between atoms: N_23  and  C_24
REMARK    9  A    between atoms: C_24  and  C_25
REMARK                            x       y       z     vdW  Elec       q    Type
REMARK                         _______ _______ _______ _____ _____    ______ ____
ROOT
ATOM      1  N   UNL     1      -1.302  -5.401   4.001  0.00  0.00    -0.305 N 
ENDROOT
BRANCH   1   2
ATOM      2  C   UNL     1      -1.850  -6.668   3.509  0.00  0.00    +0.075 C 
ATOM      3  C   UNL     1      -3.221  -6.427   2.843  0.00  0.00    +0.022 C 
ATOM      4  C   UNL     1      -4.057  -7.670   3.236  0.00  0.00    +0.002 C 
ATOM      5  C   UNL     1      -3.607  -7.938   4.694  0.00  0.00    +0.002 C 
ATOM      6  C   UNL     1      -2.095  -7.628   4.686  0.00  0.00    +0.022 C 
ENDBRANCH   1   2
BRANCH   1   7
ATOM      7  C   UNL     1      -2.056  -4.597   4.776  0.00  0.00    +0.133 C 
ATOM      8  S   UNL     1      -1.457  -3.067   5.258  0.00  0.00    -0.019 S 
BRANCH   7   9
ATOM      9  N   UNL     1      -3.281  -4.996   5.171  0.00  0.00    -0.324 N 
ATOM     10  H   UNL     1      -3.593  -5.889   4.956  0.00  0.00    +0.148 HD
BRANCH   9  11
ATOM     11  C   UNL     1      -4.141  -4.082   5.926  0.00  0.00    +0.134 C 
BRANCH  11  12
ATOM     12  C   UNL     1      -5.466  -4.777   6.248  0.00  0.00    +0.135 C 
ATOM     13  C   UNL     1      -6.405  -3.815   7.017  0.00  0.00    +0.035 C 
ATOM     14  C   UNL     1      -7.794  -4.418   6.669  0.00  0.00    +0.031 C 
ATOM     15  C   UNL     1      -7.577  -4.929   5.229  0.00  0.00    +0.160 C 
ATOM     16  O   UNL     1      -6.167  -5.101   5.037  0.00  0.00    -0.375 OA
ENDBRANCH  11  12
ENDBRANCH   9  11
ENDBRANCH   7   9
ENDBRANCH   1   7
BRANCH   1  17
ATOM     17  C   UNL     1       0.065  -5.009   3.650  0.00  0.00    +0.147 C 
BRANCH  17  26
ATOM     18  C   UNL     1      -0.085   1.453  -0.070  0.00  0.00    +0.044 C 
ATOM     19  C   UNL     1      -0.050  -0.053  -0.053  0.00  0.00    -0.050 A 
ATOM     20  C   UNL     1      -0.033  -0.754  -1.252  0.00  0.00    +0.008 A 
ATOM     21  C   UNL     1      -0.001  -2.131  -1.261  0.00  0.00    -0.026 A 
ATOM     22  C   UNL     1       0.015  -2.829  -0.057  0.00  0.00    +0.052 A 
ATOM     23  C   UNL     1      -0.002  -2.115   1.156  0.00  0.00    -0.001 A 
ATOM     24  C   UNL     1      -0.030  -0.717   1.140  0.00  0.00    +0.013 A 
ATOM     25  C   UNL     1       0.015  -2.859   2.417  0.00  0.00    +0.020 A 
ATOM     26  C   UNL     1       0.047  -4.214   2.370  0.00  0.00    +0.035 A 
ATOM     27  C   UNL     1       0.063  -4.881   1.127  0.00  0.00    +0.254 A 
ATOM     28  O   UNL     1       0.091  -6.100   1.107  0.00  0.00    -0.268 OA
ATOM     29  N   UNL     1       0.048  -4.207  -0.037  0.00  0.00    -0.322 N 
ATOM     30  H   UNL     1       0.059  -4.698  -0.874  0.00  0.00    +0.169 HD
ATOM     31  C   UNL     1       0.016  -2.879  -2.569  0.00  0.00    +0.046 C 
ENDBRANCH  17  26
ENDBRANCH   1  17
TORSDOF 7
