REMARK  Name = ZINC63646690
REMARK  4 active torsions:
REMARK  status: ('A' for Active; 'I' for Inactive)
REMARK    1  A    between atoms: C_1  and  C_2
REMARK    2  A    between atoms: C_9  and  C_13
REMARK    3  A    between atoms: C_13  and  S_14
REMARK    4  A    between atoms: S_14  and  C_15
REMARK                            x       y       z     vdW  Elec       q    Type
REMARK                         _______ _______ _______ _____ _____    ______ ____
ROOT
ATOM      1  C   UNL     1      -0.018   1.503   0.010  0.00  0.00    +0.075 C 
ATOM      2  C   UNL     1       0.002  -0.004   0.002  0.00  0.00    +0.093 C 
ATOM      3  N   UNL     1       0.009  -0.800  -1.023  0.00  0.00    -0.173 NA
ATOM      4  N   UNL     1      -0.033  -2.175  -0.896  0.00  0.00    -0.158 N 
ATOM      5  C   UNL     1       0.394  -2.652   0.457  0.00  0.00    +0.250 C 
ATOM      6  S   UNL     1       0.030  -1.117   1.402  0.00  0.00    -0.065 S 
ATOM      7  N   UNL     1      -0.547  -3.717   0.830  0.00  0.00    -0.318 N 
ATOM      8  C   UNL     1      -0.812  -4.686  -0.110  0.00  0.00    +0.021 C 
ATOM      9  C   UNL     1      -0.745  -4.385  -1.423  0.00  0.00    +0.088 C 
ATOM     10  C   UNL     1      -0.427  -3.072  -1.837  0.00  0.00    +0.263 C 
ATOM     11  O   UNL     1      -0.475  -2.765  -3.015  0.00  0.00    -0.269 OA
ATOM     12  H   UNL     1      -0.964  -3.737   1.706  0.00  0.00    +0.148 HD
ENDROOT
BRANCH   8  13
ATOM     13  C   UNL     1      -1.176  -6.082   0.327  0.00  0.00    +0.128 C 
BRANCH  13  14
ATOM     14  S   UNL     1       0.312  -6.940   0.910  0.00  0.00    -0.078 S 
BRANCH  14  15
ATOM     15  C   UNL     1      -0.272  -8.535   1.378  0.00  0.00    +0.210 A 
ATOM     16  H   UNL     1      -2.318 -10.845   1.837  0.00  0.00    +0.192 HD
ATOM     17  N   UNL     1       0.480  -9.525   1.873  0.00  0.00    -0.188 NA
ATOM     18  C   UNL     1      -0.274 -10.576   2.114  0.00  0.00    +0.209 A 
ATOM     19  N   UNL     1      -1.542 -10.267   1.771  0.00  0.00    -0.246 N 
ATOM     20  N   UNL     1      -1.516  -8.944   1.303  0.00  0.00    -0.144 NA
ATOM     21  N   UNL     1       0.158 -11.785   2.629  0.00  0.00    -0.328 N 
ATOM     22  H   UNL     1       1.094 -11.913   2.846  0.00  0.00    +0.145 HD
ATOM     23  H   UNL     1      -0.476 -12.505   2.772  0.00  0.00    +0.145 HD
ENDBRANCH  14  15
ENDBRANCH  13  14
ENDBRANCH   8  13
TORSDOF 3
