REMARK  Name = ZINC66931044
REMARK  9 active torsions:
REMARK  status: ('A' for Active; 'I' for Inactive)
REMARK    1  A    between atoms: C_1  and  C_2
REMARK    2  A    between atoms: C_2  and  C_3
REMARK    3  A    between atoms: C_2  and  C_4
REMARK    4  A    between atoms: C_2  and  C_5
REMARK    5  A    between atoms: C_7  and  C_10
REMARK    6  A    between atoms: C_10  and  C_11
REMARK    7  A    between atoms: N_13  and  C_14
REMARK    8  A    between atoms: C_14  and  C_15
REMARK    9  A    between atoms: C_15  and  O_25
REMARK                            x       y       z     vdW  Elec       q    Type
REMARK                         _______ _______ _______ _____ _____    ______ ____
ROOT
ATOM      1  C   UNL     1       3.858   0.535  -4.289  0.00  0.00    +0.219 C 
ATOM      2  O   UNL     1       2.841   1.172  -4.462  0.00  0.00    -0.275 OA
ATOM      3  N   UNL     1       5.026   0.979  -4.795  0.00  0.00    -0.312 N 
ATOM      4  H   UNL     1       5.840   0.470  -4.657  0.00  0.00    +0.149 HD
ENDROOT
BRANCH   1   5
ATOM      5  C   UNL     1       3.818  -0.754  -3.509  0.00  0.00    +0.151 C 
BRANCH   5   8
ATOM      6  C   UNL     1       0.755  -0.898  -1.473  0.00  0.00    +0.084 A 
ATOM      7  N   UNL     1       1.983  -0.662  -1.862  0.00  0.00    -0.248 NA
ATOM      8  C   UNL     1       2.405  -1.023  -3.057  0.00  0.00    +0.057 A 
ATOM      9  C   UNL     1       1.509  -1.648  -3.863  0.00  0.00    +0.070 A 
ATOM     10  S   UNL     1       0.075  -1.678  -2.800  0.00  0.00    -0.080 S 
BRANCH   6  12
ATOM     11  C   UNL     1       0.145   0.957   0.056  0.00  0.00    +0.017 C 
ATOM     12  C   UNL     1       0.109  -0.558  -0.154  0.00  0.00    +0.011 C 
ATOM     13  C   UNL     1       0.871  -1.249   0.979  0.00  0.00    +0.017 C 
ATOM     14  C   UNL     1      -1.343  -1.039  -0.159  0.00  0.00    +0.017 C 
ENDBRANCH   6  12
ENDBRANCH   5   8
ENDBRANCH   1   5
BRANCH   3  15
ATOM     15  C   UNL     1       5.065   2.232  -5.554  0.00  0.00    +0.143 C 
BRANCH  15  16
ATOM     16  C   UNL     1       6.516   2.574  -5.899  0.00  0.00    +0.107 C 
ATOM     17  C   UNL     1       7.334   2.655  -4.612  0.00  0.00    +0.041 C 
ATOM     18  C   UNL     1       8.723   3.208  -4.955  0.00  0.00    +0.008 C 
ATOM     19  C   UNL     1       8.574   4.680  -5.334  0.00  0.00    +0.035 C 
ATOM     20  C   UNL     1       7.503   4.853  -6.379  0.00  0.00    -0.041 A 
ATOM     21  C   UNL     1       6.556   3.887  -6.636  0.00  0.00    -0.011 A 
ATOM     22  C   UNL     1       5.591   4.111  -7.609  0.00  0.00    +0.007 A 
ATOM     23  C   UNL     1       5.576   5.292  -8.323  0.00  0.00    +0.000 A 
ATOM     24  C   UNL     1       6.529   6.260  -8.068  0.00  0.00    +0.000 A 
ATOM     25  C   UNL     1       7.488   6.040  -7.100  0.00  0.00    +0.004 A 
BRANCH  16  26
ATOM     26  O   UNL     1       7.056   1.548  -6.735  0.00  0.00    -0.382 OA
ATOM     27  H   UNL     1       6.582   1.431  -7.570  0.00  0.00    +0.211 HD
ENDBRANCH  16  26
ENDBRANCH  15  16
ENDBRANCH   3  15
TORSDOF 6
