REMARK  Name = ZINC23368240
REMARK  6 active torsions:
REMARK  status: ('A' for Active; 'I' for Inactive)
REMARK    1  A    between atoms: C_3  and  C_6
REMARK    2  A    between atoms: C_9  and  N_12
REMARK    3  A    between atoms: C_15  and  N_18
REMARK    4  A    between atoms: N_18  and  C_19
REMARK    5  A    between atoms: C_19  and  C_20
REMARK    6  A    between atoms: C_20  and  C_21
REMARK                            x       y       z     vdW  Elec       q    Type
REMARK                         _______ _______ _______ _____ _____    ______ ____
ROOT
ATOM      1  N   UNL     1       2.354   3.884   0.000  0.00  0.00    -0.330 N 
ATOM      2  C   UNL     1       3.210   3.484   1.124  0.00  0.00    +0.103 C 
ATOM      3  C   UNL     1       4.570   4.175   1.002  0.00  0.00    +0.003 C 
ATOM      4  C   UNL     1       4.368   5.693   1.005  0.00  0.00    -0.069 C 
ATOM      5  C   UNL     1       3.434   6.078  -0.146  0.00  0.00    +0.003 C 
ATOM      6  C   UNL     1       2.107   5.332   0.009  0.00  0.00    +0.103 C 
ENDROOT
BRANCH   1  10
ATOM      7  C   UNL     1      -1.231   1.758   0.017  0.00  0.00    +0.017 A 
ATOM      8  C   UNL     1      -0.013   1.076   0.008  0.00  0.00    +0.013 A 
ATOM      9  C   UNL     1       1.171   1.782   0.000  0.00  0.00    +0.024 A 
ATOM     10  C   UNL     1       1.153   3.172   0.008  0.00  0.00    +0.030 A 
ATOM     11  C   UNL     1      -0.058   3.854   0.022  0.00  0.00    +0.024 A 
ATOM     12  C   UNL     1      -1.245   3.155   0.029  0.00  0.00    +0.013 A 
BRANCH   7  15
ATOM     13  C   UNL     1      -4.658   0.467   0.026  0.00  0.00    +0.042 A 
ATOM     14  C   UNL     1      -3.749   1.544   0.034  0.00  0.00    +0.050 A 
ATOM     15  C   UNL     1      -2.502   1.004   0.019  0.00  0.00    +0.135 A 
ATOM     16  O   UNL     1      -2.625  -0.337   0.013  0.00  0.00    -0.463 OA
ATOM     17  C   UNL     1      -3.928  -0.665   0.017  0.00  0.00    +0.196 A 
ENDBRANCH   7  15
ENDBRANCH   1  10
BRANCH   4  18
ATOM     18  N   UNL     1       5.665   6.361   0.829  0.00  0.00    +0.381 N 
ATOM     19  H   UNL     1       6.300   5.759   0.162  0.00  0.00    -0.086 HD
ATOM     20  H   UNL     1       5.508   7.356   0.387  0.00  0.00    -0.086 HD
BRANCH  18  21
ATOM     21  C   UNL     1       6.353   6.521   2.117  0.00  0.00    -0.076 C 
BRANCH  21  22
ATOM     22  C   UNL     1       7.697   7.218   1.894  0.00  0.00    +0.037 C 
BRANCH  22  23
ATOM     23  C   UNL     1       8.403   7.383   3.215  0.00  0.00    +0.047 A 
ATOM     24  C   UNL     1       9.660   6.903   3.395  0.00  0.00    +0.069 A 
ATOM     25  S   UNL     1       9.954   7.382   5.092  0.00  0.00    -0.084 S 
ATOM     26  C   UNL     1       8.418   8.140   5.380  0.00  0.00    +0.156 A 
ATOM     27  N   UNL     1       7.814   7.990   4.223  0.00  0.00    -0.252 NA
ENDBRANCH  22  23
ENDBRANCH  21  22
ENDBRANCH  18  21
ENDBRANCH   4  18
TORSDOF 6
