REMARK  Name = ZINC39685869
REMARK  11 active torsions:
REMARK  status: ('A' for Active; 'I' for Inactive)
REMARK    1  A    between atoms: C_1  and  C_2
REMARK    2  A    between atoms: C_2  and  C_3
REMARK    3  A    between atoms: C_2  and  C_4
REMARK    4  A    between atoms: C_4  and  C_6
REMARK    5  A    between atoms: C_4  and  N_13
REMARK    6  A    between atoms: N_8  and  C_9
REMARK    7  A    between atoms: C_9  and  C_10
REMARK    8  A    between atoms: C_9  and  C_11
REMARK    9  A    between atoms: C_9  and  C_12
REMARK   10  A    between atoms: C_14  and  C_16
REMARK   11  A    between atoms: C_27  and  C_29
REMARK                            x       y       z     vdW  Elec       q    Type
REMARK                         _______ _______ _______ _____ _____    ______ ____
ROOT
ATOM      1  C   UNL     1      -2.216  -1.587  -1.856  0.00  0.00    +0.100 C 
ATOM      2  C   UNL     1      -1.665  -0.862  -3.104  0.00  0.00    +0.121 C 
ATOM      3  N   UNL     1      -0.542  -1.712  -3.565  0.00  0.00    -0.300 N 
ATOM      4  C   UNL     1      -1.026  -3.099  -3.369  0.00  0.00    +0.115 C 
ATOM      5  C   UNL     1      -1.798  -3.056  -2.035  0.00  0.00    -0.004 C 
ATOM      6  C   UNL     1      -3.031  -3.951  -2.109  0.00  0.00    -0.010 C 
ATOM      7  C   UNL     1      -2.588  -5.412  -2.228  0.00  0.00    -0.082 C 
ATOM      8  N   UNL     1      -1.765  -5.773  -1.067  0.00  0.00    +0.379 N 
ATOM      9  C   UNL     1      -0.536  -4.971  -1.056  0.00  0.00    -0.082 C 
ATOM     10  C   UNL     1      -0.892  -3.491  -0.887  0.00  0.00    -0.010 C 
ATOM     11  C   UNL     1       0.649  -1.313  -4.053  0.00  0.00    +0.219 C 
ATOM     12  O   UNL     1       0.932  -0.134  -4.073  0.00  0.00    -0.275 OA
ATOM     13  H   UNL     1      -2.286  -5.600  -0.221  0.00  0.00    -0.086 HD
ATOM     14  H   UNL     1      -1.526  -6.752  -1.118  0.00  0.00    -0.086 HD
ENDROOT
BRANCH  11  15
ATOM     15  C   UNL     1       1.629  -2.332  -4.575  0.00  0.00    +0.079 C 
ATOM     16  C   UNL     1       3.041  -1.734  -4.581  0.00  0.00    +0.017 C 
ATOM     17  C   UNL     1       4.034  -2.841  -4.943  0.00  0.00    +0.027 C 
ATOM     18  C   UNL     1       3.571  -3.569  -6.170  0.00  0.00    -0.031 C 
ATOM     19  C   UNL     1       2.363  -3.518  -6.632  0.00  0.00    -0.030 C 
ATOM     20  C   UNL     1       1.256  -2.718  -6.008  0.00  0.00    +0.039 C 
ENDBRANCH  11  15
BRANCH   1  22
ATOM     21  N   UNL     1      -2.290  -1.040   0.556  0.00  0.00    -0.303 N 
ATOM     22  C   UNL     1      -1.603  -1.015  -0.603  0.00  0.00    +0.219 C 
ATOM     23  O   UNL     1      -0.490  -0.534  -0.638  0.00  0.00    -0.275 OA
ATOM     24  H   UNL     1      -3.153  -1.482   0.599  0.00  0.00    +0.149 HD
BRANCH  21  25
ATOM     25  C   UNL     1      -1.735  -0.400   1.751  0.00  0.00    +0.161 C 
BRANCH  25  26
ATOM     26  C   UNL     1      -1.822  -1.350   2.917  0.00  0.00    +0.234 C 
ATOM     27  O   UNL     1      -2.688  -2.199   2.944  0.00  0.00    -0.274 OA
ATOM     28  N   UNL     1      -0.937  -1.258   3.929  0.00  0.00    -0.309 N 
ATOM     29  H   UNL     1      -0.291  -0.535   3.944  0.00  0.00    +0.149 HD
BRANCH  28  30
ATOM     30  C   UNL     1      -0.952  -2.250   5.007  0.00  0.00    +0.026 C 
ATOM     31  C   UNL     1      -0.701  -3.642   4.423  0.00  0.00    +0.031 C 
ATOM     32  C   UNL     1       0.145  -1.917   6.021  0.00  0.00    +0.031 C 
ATOM     33  C   UNL     1      -2.314  -2.227   5.703  0.00  0.00    +0.031 C 
ENDBRANCH  28  30
ENDBRANCH  25  26
BRANCH  25  35
ATOM     34  C   UNL     1      -2.377   1.866   0.916  0.00  0.00    +0.009 C 
ATOM     35  C   UNL     1      -2.530   0.869   2.066  0.00  0.00    +0.012 C 
ATOM     36  C   UNL     1      -4.008   0.514   2.239  0.00  0.00    +0.009 C 
ENDBRANCH  25  35
ENDBRANCH  21  25
ENDBRANCH   1  22
TORSDOF 6
