REMARK  Name = ZINC12550716
REMARK  10 active torsions:
REMARK  status: ('A' for Active; 'I' for Inactive)
REMARK    1  A    between atoms: C_1  and  N_2
REMARK    2  A    between atoms: C_6  and  C_7
REMARK    3  A    between atoms: C_7  and  C_9
REMARK    4  A    between atoms: C_7  and  N_17
REMARK    5  A    between atoms: C_14  and  O_15
REMARK    6  A    between atoms: O_15  and  C_16
REMARK    7  A    between atoms: N_17  and  C_18
REMARK    8  A    between atoms: C_21  and  S_27
REMARK    9  A    between atoms: C_23  and  N_24
REMARK   10  A    between atoms: S_27  and  C_30
REMARK                            x       y       z     vdW  Elec       q    Type
REMARK                         _______ _______ _______ _____ _____    ______ ____
ROOT
ATOM      1  N   UNL     1      -0.801   1.161   2.443  0.00  0.00    -0.329 N 
ATOM      2  H   UNL     1      -0.390   2.005   2.199  0.00  0.00    +0.147 HD
ENDROOT
BRANCH   1   3
ATOM      3  C   UNL     1      -2.167   1.107   2.732  0.00  0.00    +0.059 A 
ATOM      4  C   UNL     1      -2.766  -0.109   3.038  0.00  0.00    +0.027 A 
ATOM      5  C   UNL     1      -4.116  -0.159   3.324  0.00  0.00    +0.029 A 
ATOM      6  C   UNL     1      -4.871   1.000   3.306  0.00  0.00    +0.100 A 
ATOM      7  C   UNL     1      -4.278   2.211   3.002  0.00  0.00    +0.062 A 
ATOM      8  C   UNL     1      -2.927   2.269   2.721  0.00  0.00    +0.149 A 
BRANCH   8   9
ATOM      9  N   UNL     1      -2.292   3.567   2.401  0.00  0.00    +0.058 N 
ATOM     10  O   UNL     1      -1.173   3.805   2.792  0.00  0.00    -0.126 OA
ATOM     11  O   UNL     1      -2.892   4.389   1.749  0.00  0.00    -0.126 OA
ENDBRANCH   8   9
BRANCH   6  12
ATOM     12  S   UNL     1      -6.594   0.931   3.672  0.00  0.00    +0.091 S 
ATOM     13  O   UNL     1      -7.152   2.050   2.997  0.00  0.00    -0.161 OA
ATOM     14  O   UNL     1      -6.985  -0.391   3.329  0.00  0.00    -0.161 OA
BRANCH  12  15
ATOM     15  C   UNL     1      -6.699   1.168   5.467  0.00  0.00    +0.526 C 
ATOM     16  F   UNL     1      -6.146   2.407   5.808  0.00  0.00    -0.150 F 
ATOM     17  F   UNL     1      -8.040   1.130   5.865  0.00  0.00    -0.150 F 
ATOM     18  F   UNL     1      -5.992   0.148   6.114  0.00  0.00    -0.150 F 
ENDBRANCH  12  15
ENDBRANCH   6  12
ENDBRANCH   1   3
BRANCH   1  19
ATOM     19  C   UNL     1       0.010  -0.057   2.507  0.00  0.00    +0.169 C 
BRANCH  19  25
ATOM     20  C   UNL     1      -0.780   1.091  -0.260  0.00  0.00    +0.150 C 
ATOM     21  N   UNL     1      -0.495  -0.317   0.029  0.00  0.00    -0.337 N 
ATOM     22  C   UNL     1      -0.524  -1.351  -0.867  0.00  0.00    +0.104 A 
ATOM     23  C   UNL     1      -0.200  -2.466  -0.185  0.00  0.00    +0.102 A 
ATOM     24  N   UNL     1       0.021  -2.122   1.092  0.00  0.00    -0.348 N 
ATOM     25  C   UNL     1      -0.149  -0.835   1.227  0.00  0.00    +0.112 A 
ATOM     26  H   UNL     1       0.271  -2.733   1.803  0.00  0.00    +0.167 HD
ENDBRANCH  19  25
BRANCH  19  27
ATOM     27  C   UNL     1       1.459   0.313   2.693  0.00  0.00    +0.022 A 
ATOM     28  C   UNL     1       1.922   1.537   2.249  0.00  0.00    +0.009 A 
ATOM     29  C   UNL     1       3.251   1.877   2.419  0.00  0.00    +0.001 A 
ATOM     30  C   UNL     1       4.120   0.995   3.033  0.00  0.00    +0.004 A 
ATOM     31  C   UNL     1       3.662  -0.230   3.479  0.00  0.00    +0.046 A 
ATOM     32  C   UNL     1       2.328  -0.572   3.315  0.00  0.00    +0.125 A 
BRANCH  32  33
ATOM     33  O   UNL     1       1.873  -1.773   3.758  0.00  0.00    -0.495 OA
ATOM     34  C   UNL     1       2.824  -2.634   4.388  0.00  0.00    +0.277 C 
ENDBRANCH  32  33
ENDBRANCH  19  27
ENDBRANCH   1  19
TORSDOF 8
