REMARK  Name = ZINC39404335
REMARK  13 active torsions:
REMARK  status: ('A' for Active; 'I' for Inactive)
REMARK    1  A    between atoms: C_1  and  C_2
REMARK    2  A    between atoms: C_2  and  O_3
REMARK    3  A    between atoms: O_3  and  C_4
REMARK    4  A    between atoms: C_7  and  C_10
REMARK    5  A    between atoms: N_11  and  N_12
REMARK    6  A    between atoms: C_15  and  S_19
REMARK    7  A    between atoms: S_19  and  C_20
REMARK    8  A    between atoms: C_20  and  C_21
REMARK    9  A    between atoms: C_27  and  S_29
REMARK   10  A    between atoms: S_29  and  C_30
REMARK   11  A    between atoms: C_30  and  C_31
REMARK   12  A    between atoms: C_31  and  C_32
REMARK   13  A    between atoms: C_31  and  C_33
REMARK                            x       y       z     vdW  Elec       q    Type
REMARK                         _______ _______ _______ _____ _____    ______ ____
ROOT
ATOM      1  N   UNL     1       1.814  -7.769  -3.050  0.00  0.00    -0.247 N 
ATOM      2  C   UNL     1       2.424  -8.258  -4.109  0.00  0.00    +0.231 C 
ATOM      3  N   UNL     1       3.000  -7.504  -5.121  0.00  0.00    -0.281 N 
ATOM      4  C   UNL     1       3.540  -8.511  -6.054  0.00  0.00    +0.274 C 
ATOM      5  N   UNL     1       3.189  -9.795  -5.431  0.00  0.00    -0.150 NA
ATOM      6  N   UNL     1       2.590  -9.575  -4.377  0.00  0.00    -0.116 NA
ATOM      7  H   UNL     1       3.039  -6.538  -5.197  0.00  0.00    +0.152 HD
ATOM      8  H   UNL     1       1.441  -8.369  -2.385  0.00  0.00    +0.192 HD
ENDROOT
BRANCH   1  10
ATOM      9  C   UNL     1       1.107  -6.006  -1.843  0.00  0.00    +0.140 C 
ATOM     10  N   UNL     1       1.714  -6.492  -2.896  0.00  0.00    -0.179 NA
BRANCH   9  14
ATOM     11  C   UNL     1       0.777  -1.809  -1.336  0.00  0.00    +0.121 A 
ATOM     12  C   UNL     1       0.240  -2.666  -0.382  0.00  0.00    +0.046 A 
ATOM     13  C   UNL     1       0.344  -4.029  -0.541  0.00  0.00    +0.013 A 
ATOM     14  C   UNL     1       0.993  -4.552  -1.667  0.00  0.00    -0.005 A 
ATOM     15  C   UNL     1       1.531  -3.684  -2.625  0.00  0.00    +0.013 A 
ATOM     16  C   UNL     1       1.416  -2.322  -2.458  0.00  0.00    +0.046 A 
BRANCH  11  17
ATOM     17  O   UNL     1       0.671  -0.465  -1.174  0.00  0.00    -0.492 OA
BRANCH  17  19
ATOM     18  C   UNL     1      -0.019   1.526   0.010  0.00  0.00    +0.048 C 
ATOM     19  C   UNL     1       0.002  -0.004   0.002  0.00  0.00    +0.225 C 
ENDBRANCH  17  19
ENDBRANCH  11  17
ENDBRANCH   9  14
ENDBRANCH   1  10
BRANCH   4  20
ATOM     20  S   UNL     1       5.340  -8.342  -6.201  0.00  0.00    -0.104 S 
BRANCH  20  21
ATOM     21  C   UNL     1       5.945  -8.602  -4.511  0.00  0.00    +0.168 C 
BRANCH  21  22
ATOM     22  C   UNL     1       7.447  -8.487  -4.492  0.00  0.00    +0.229 C 
ATOM     23  O   UNL     1       8.051  -8.252  -5.517  0.00  0.00    -0.275 OA
ATOM     24  N   UNL     1       8.121  -8.645  -3.335  0.00  0.00    -0.263 N 
ATOM     25  C   UNL     1       9.509  -8.538  -3.317  0.00  0.00    +0.189 A 
ATOM     26  N   UNL     1      10.355  -8.285  -4.302  0.00  0.00    -0.125 NA
ATOM     27  N   UNL     1      11.601  -8.222  -4.114  0.00  0.00    -0.133 NA
ATOM     28  C   UNL     1      12.139  -8.404  -2.917  0.00  0.00    +0.160 A 
ATOM     29  S   UNL     1      10.658  -8.696  -1.953  0.00  0.00    -0.024 S 
ATOM     30  H   UNL     1       7.638  -8.832  -2.515  0.00  0.00    +0.157 HD
BRANCH  28  31
ATOM     31  S   UNL     1      13.827  -8.365  -2.416  0.00  0.00    -0.097 S 
BRANCH  31  32
ATOM     32  C   UNL     1      14.731  -8.006  -3.947  0.00  0.00    +0.079 C 
BRANCH  32  33
ATOM     33  C   UNL     1      16.231  -7.943  -3.651  0.00  0.00    -0.007 C 
ATOM     34  C   UNL     1      16.721  -9.322  -3.206  0.00  0.00    +0.008 C 
ATOM     35  C   UNL     1      16.983  -7.517  -4.913  0.00  0.00    +0.008 C 
ENDBRANCH  32  33
ENDBRANCH  31  32
ENDBRANCH  28  31
ENDBRANCH  21  22
ENDBRANCH  20  21
ENDBRANCH   4  20
TORSDOF 10
