REMARK  Name = ZINC09304161
REMARK  5 active torsions:
REMARK  status: ('A' for Active; 'I' for Inactive)
REMARK    1  A    between atoms: C_1  and  C_2
REMARK    2  A    between atoms: C_12  and  C_14
REMARK    3  A    between atoms: C_21  and  C_23
REMARK    4  A    between atoms: C_23  and  C_25
REMARK    5  A    between atoms: C_23  and  N_26
REMARK                            x       y       z     vdW  Elec       q    Type
REMARK                         _______ _______ _______ _____ _____    ______ ____
ROOT
ATOM      1  C   UNL     1       4.631   2.629  -2.341  0.00  0.00    +0.062 C 
ATOM      2  C   UNL     1       4.315   1.591  -1.294  0.00  0.00    +0.031 C 
ATOM      3  N   UNL     1       4.635   0.376  -1.506  0.00  0.00    -0.254 NA
ATOM      4  C   UNL     1       4.441  -0.657  -0.639  0.00  0.00    +0.089 A 
ATOM      5  C   UNL     1       5.477  -1.596  -0.527  0.00  0.00    +0.030 A 
ATOM      6  C   UNL     1       5.362  -2.671   0.324  0.00  0.00    +0.002 A 
ATOM      7  C   UNL     1       4.215  -2.837   1.084  0.00  0.00    +0.002 A 
ATOM      8  C   UNL     1       3.187  -1.928   0.990  0.00  0.00    +0.030 A 
ATOM      9  C   UNL     1       3.283  -0.824   0.128  0.00  0.00    +0.091 A 
ATOM     10  N   UNL     1       2.223   0.027   0.100  0.00  0.00    -0.234 NA
ATOM     11  C   UNL     1       2.298   1.309   0.045  0.00  0.00    +0.115 C 
ATOM     12  C   UNL     1       3.628   2.013  -0.022  0.00  0.00    +0.127 C 
ATOM     13  N   UNL     1       1.142   2.053   0.053  0.00  0.00    -0.271 N 
ATOM     14  C   UNL     1      -0.055   1.437   0.112  0.00  0.00    +0.239 C 
ATOM     15  O   UNL     1      -0.113   0.226   0.159  0.00  0.00    -0.273 OA
ATOM     16  H   UNL     1       1.188   3.021   0.016  0.00  0.00    +0.156 HD
ENDROOT
BRANCH  12  17
ATOM     17  C   UNL     1       4.471   1.624   1.166  0.00  0.00    -0.032 A 
ATOM     18  C   UNL     1       3.866   1.310   2.369  0.00  0.00    +0.005 A 
ATOM     19  C   UNL     1       4.639   0.949   3.457  0.00  0.00    +0.000 A 
ATOM     20  C   UNL     1       6.016   0.911   3.345  0.00  0.00    +0.000 A 
ATOM     21  C   UNL     1       6.621   1.231   2.143  0.00  0.00    +0.000 A 
ATOM     22  C   UNL     1       5.848   1.588   1.054  0.00  0.00    +0.005 A 
ENDBRANCH  12  17
BRANCH  14  23
ATOM     23  C   UNL     1      -1.323   2.252   0.115  0.00  0.00    +0.168 C 
ATOM     24  C   UNL     1      -1.394   3.087  -1.165  0.00  0.00    +0.038 C 
BRANCH  23  25
ATOM     25  N   UNL     1      -2.480   1.355   0.178  0.00  0.00    -0.222 N 
ATOM     26  C   UNL     1      -2.769   0.420  -0.744  0.00  0.00    +0.254 C 
ATOM     27  O   UNL     1      -2.122   0.188  -1.746  0.00  0.00    -0.270 OA
ATOM     28  C   UNL     1      -4.003  -0.281  -0.333  0.00  0.00    +0.049 A 
ATOM     29  C   UNL     1      -4.757  -1.312  -0.872  0.00  0.00    +0.014 A 
ATOM     30  C   UNL     1      -5.900  -1.743  -0.217  0.00  0.00    +0.001 A 
ATOM     31  C   UNL     1      -6.293  -1.152   0.969  0.00  0.00    +0.001 A 
ATOM     32  C   UNL     1      -5.549  -0.121   1.520  0.00  0.00    +0.014 A 
ATOM     33  C   UNL     1      -4.404   0.321   0.877  0.00  0.00    +0.049 A 
ATOM     34  C   UNL     1      -3.396   1.363   1.163  0.00  0.00    +0.254 C 
ATOM     35  O   UNL     1      -3.395   2.103   2.126  0.00  0.00    -0.270 OA
ENDBRANCH  23  25
ENDBRANCH  14  23
TORSDOF 3
