REMARK  Name = ZINC39608204
REMARK  7 active torsions:
REMARK  status: ('A' for Active; 'I' for Inactive)
REMARK    1  A    between atoms: C_1  and  C_2
REMARK    2  A    between atoms: C_2  and  C_4
REMARK    3  A    between atoms: C_2  and  N_7
REMARK    4  A    between atoms: C_4  and  C_5
REMARK    5  A    between atoms: C_4  and  C_6
REMARK    6  A    between atoms: C_8  and  C_10
REMARK    7  A    between atoms: C_21  and  C_23
REMARK                            x       y       z     vdW  Elec       q    Type
REMARK                         _______ _______ _______ _____ _____    ______ ____
ROOT
ATOM      1  C   UNL     1      -3.412  -1.051   1.225  0.00  0.00    +0.100 C 
ATOM      2  C   UNL     1      -4.402  -0.080   0.544  0.00  0.00    +0.121 C 
ATOM      3  N   UNL     1      -5.638  -0.177   1.356  0.00  0.00    -0.297 N 
ATOM      4  C   UNL     1      -5.155  -0.267   2.755  0.00  0.00    +0.115 C 
ATOM      5  C   UNL     1      -3.909  -1.171   2.675  0.00  0.00    -0.004 C 
ATOM      6  C   UNL     1      -4.284  -2.616   2.987  0.00  0.00    -0.010 C 
ATOM      7  C   UNL     1      -4.721  -2.720   4.451  0.00  0.00    -0.082 C 
ATOM      8  N   UNL     1      -3.627  -2.279   5.323  0.00  0.00    +0.379 N 
ATOM      9  C   UNL     1      -3.334  -0.861   5.081  0.00  0.00    -0.082 C 
ATOM     10  C   UNL     1      -2.838  -0.678   3.644  0.00  0.00    -0.010 C 
ATOM     11  C   UNL     1      -6.914  -0.182   0.921  0.00  0.00    +0.260 C 
ATOM     12  O   UNL     1      -7.149  -0.193  -0.269  0.00  0.00    -0.271 OA
ATOM     13  H   UNL     1      -3.894  -2.406   6.287  0.00  0.00    -0.086 HD
ATOM     14  H   UNL     1      -2.803  -2.829   5.131  0.00  0.00    -0.086 HD
ENDROOT
BRANCH  11  15
ATOM     15  C   UNL     1      -8.049  -0.174   1.913  0.00  0.00    +0.296 C 
ATOM     16  C   UNL     1      -8.079   1.170   2.654  0.00  0.00    +0.283 C 
ATOM     17  O   UNL     1      -9.174   1.149   3.575  0.00  0.00    -0.484 OA
ATOM     18  C   UNL     1     -10.364   0.691   3.100  0.00  0.00    +0.162 A 
ATOM     19  C   UNL     1     -11.530   0.973   3.798  0.00  0.00    +0.049 A 
ATOM     20  C   UNL     1     -12.746   0.511   3.330  0.00  0.00    +0.004 A 
ATOM     21  C   UNL     1     -12.804  -0.232   2.166  0.00  0.00    +0.004 A 
ATOM     22  C   UNL     1     -11.647  -0.515   1.465  0.00  0.00    +0.049 A 
ATOM     23  C   UNL     1     -10.423  -0.054   1.929  0.00  0.00    +0.163 A 
ATOM     24  O   UNL     1      -9.293  -0.335   1.224  0.00  0.00    -0.473 OA
ENDBRANCH  11  15
BRANCH   1  26
ATOM     25  N   UNL     1      -0.952  -1.304   1.308  0.00  0.00    -0.312 N 
ATOM     26  C   UNL     1      -2.016  -0.483   1.194  0.00  0.00    +0.218 C 
ATOM     27  O   UNL     1      -1.849   0.711   1.066  0.00  0.00    -0.275 OA
ATOM     28  H   UNL     1      -1.085  -2.259   1.410  0.00  0.00    +0.149 HD
BRANCH  25  30
ATOM     29  C   UNL     1       0.862  -0.601  -0.174  0.00  0.00    +0.028 C 
ATOM     30  C   UNL     1       0.405  -0.752   1.278  0.00  0.00    +0.072 C 
BRANCH  30  31
ATOM     31  C   UNL     1       1.355  -1.696   2.017  0.00  0.00    +0.003 C 
ATOM     32  C   UNL     1       1.442  -3.025   1.263  0.00  0.00    +0.009 C 
ATOM     33  C   UNL     1       2.746  -1.062   2.094  0.00  0.00    +0.009 C 
ENDBRANCH  30  31
ENDBRANCH  25  30
ENDBRANCH   1  26
TORSDOF 4
