REMARK  Name = ZINC32951949
REMARK  8 active torsions:
REMARK  status: ('A' for Active; 'I' for Inactive)
REMARK    1  A    between atoms: C_1  and  C_2
REMARK    2  A    between atoms: C_4  and  C_27
REMARK    3  A    between atoms: C_5  and  S_9
REMARK    4  A    between atoms: C_6  and  C_8
REMARK    5  A    between atoms: S_9  and  N_12
REMARK    6  A    between atoms: C_15  and  C_18
REMARK    7  A    between atoms: C_18  and  N_19
REMARK    8  A    between atoms: C_23  and  C_26
REMARK                            x       y       z     vdW  Elec       q    Type
REMARK                         _______ _______ _______ _____ _____    ______ ____
ROOT
ATOM      1  N   UNL     1       2.697   3.530  -3.517  0.00  0.00    -0.177 NA
ATOM      2  C   UNL     1       3.416   2.251  -3.448  0.00  0.00    +0.109 C 
ATOM      3  C   UNL     1       2.470   1.128  -3.885  0.00  0.00    +0.019 C 
ATOM      4  C   UNL     1       1.197   1.180  -3.037  0.00  0.00    -0.025 C 
ATOM      5  C   UNL     1       0.491   2.520  -3.256  0.00  0.00    +0.019 C 
ATOM      6  C   UNL     1       1.415   3.658  -2.811  0.00  0.00    +0.109 C 
ENDROOT
BRANCH   1   7
ATOM      7  S   UNL     1       3.319   4.802  -4.375  0.00  0.00    +0.061 S 
ATOM      8  O   UNL     1       2.871   5.986  -3.728  0.00  0.00    -0.153 OA
ATOM      9  O   UNL     1       4.697   4.520  -4.578  0.00  0.00    -0.153 OA
BRANCH   7  14
ATOM     10  C   UNL     1       0.720   4.723  -9.819  0.00  0.00    +0.044 C 
ATOM     11  C   UNL     1       1.369   4.742  -8.460  0.00  0.00    -0.050 A 
ATOM     12  C   UNL     1       2.421   3.889  -8.183  0.00  0.00    +0.008 A 
ATOM     13  C   UNL     1       3.016   3.907  -6.936  0.00  0.00    -0.024 A 
ATOM     14  C   UNL     1       2.560   4.779  -5.965  0.00  0.00    +0.111 A 
ATOM     15  C   UNL     1       1.505   5.629  -6.240  0.00  0.00    -0.024 A 
ATOM     16  C   UNL     1       0.913   5.614  -7.489  0.00  0.00    +0.008 A 
ATOM     17  C   UNL     1       1.004   6.575  -5.179  0.00  0.00    +0.046 C 
ATOM     18  C   UNL     1       4.163   2.977  -6.634  0.00  0.00    +0.046 C 
ENDBRANCH   7  14
ENDBRANCH   1   7
BRANCH   4  19
ATOM     19  C   UNL     1       0.264   0.039  -3.448  0.00  0.00    -0.075 C 
BRANCH  19  20
ATOM     20  N   UNL     1      -0.902   0.015  -2.555  0.00  0.00    +0.380 N 
ATOM     21  C   UNL     1      -0.508  -0.333  -1.184  0.00  0.00    -0.079 C 
ATOM     22  C   UNL     1      -1.719  -0.206  -0.256  0.00  0.00    -0.018 C 
ATOM     23  C   UNL     1      -2.828  -1.144  -0.742  0.00  0.00    -0.001 C 
ATOM     24  C   UNL     1      -3.186  -0.792  -2.188  0.00  0.00    -0.031 C 
ATOM     25  C   UNL     1      -1.933  -0.902  -3.060  0.00  0.00    -0.076 C 
ATOM     26  C   UNL     1      -4.251  -1.764  -2.701  0.00  0.00    +0.005 C 
ATOM     27  H   UNL     1      -1.335   1.026  -2.533  0.00  0.00    -0.082 HD
ENDBRANCH  19  20
ENDBRANCH   4  19
TORSDOF 4
