REMARK  Name = ZINC39302496
REMARK  8 active torsions:
REMARK  status: ('A' for Active; 'I' for Inactive)
REMARK    1  A    between atoms: C_4  and  C_7
REMARK    2  A    between atoms: C_7  and  C_29
REMARK    3  A    between atoms: C_9  and  C_11
REMARK    4  A    between atoms: N_13  and  C_14
REMARK    5  A    between atoms: C_14  and  C_15
REMARK    6  A    between atoms: N_17  and  C_18
REMARK    7  A    between atoms: C_18  and  C_19
REMARK    8  A    between atoms: C_19  and  C_20
REMARK                            x       y       z     vdW  Elec       q    Type
REMARK                         _______ _______ _______ _____ _____    ______ ____
ROOT
ATOM      1  C   UNL     1       2.615  -2.478  -0.737  0.00  0.00    +0.218 C 
ATOM      2  O   UNL     1       1.497  -2.132  -0.415  0.00  0.00    -0.275 OA
ATOM      3  N   UNL     1       2.806  -3.672  -1.331  0.00  0.00    -0.306 N 
ATOM      4  H   UNL     1       3.699  -3.949  -1.588  0.00  0.00    +0.149 HD
ENDROOT
BRANCH   1   7
ATOM      5  C   UNL     1       4.293  -1.472   0.969  0.00  0.00    +0.032 C 
ATOM      6  C   UNL     1       3.532  -0.302   0.342  0.00  0.00    +0.031 C 
ATOM      7  C   UNL     1       3.789  -1.571  -0.472  0.00  0.00    +0.091 C 
BRANCH   5  11
ATOM      8  C   UNL     1       2.264  -3.784   3.932  0.00  0.00    +0.000 A 
ATOM      9  C   UNL     1       2.276  -2.404   4.021  0.00  0.00    +0.000 A 
ATOM     10  C   UNL     1       2.933  -1.656   3.062  0.00  0.00    +0.004 A 
ATOM     11  C   UNL     1       3.578  -2.287   2.015  0.00  0.00    -0.036 A 
ATOM     12  C   UNL     1       3.567  -3.667   1.927  0.00  0.00    +0.004 A 
ATOM     13  C   UNL     1       2.908  -4.415   2.885  0.00  0.00    +0.000 A 
ENDBRANCH   5  11
BRANCH   5  14
ATOM     14  C   UNL     1       5.777  -1.305   1.177  0.00  0.00    -0.036 A 
ATOM     15  C   UNL     1       6.668  -1.879   0.289  0.00  0.00    +0.004 A 
ATOM     16  C   UNL     1       8.028  -1.726   0.480  0.00  0.00    +0.000 A 
ATOM     17  C   UNL     1       8.498  -1.000   1.558  0.00  0.00    +0.000 A 
ATOM     18  C   UNL     1       7.607  -0.425   2.445  0.00  0.00    +0.000 A 
ATOM     19  C   UNL     1       6.246  -0.574   2.252  0.00  0.00    +0.004 A 
ENDBRANCH   5  14
ENDBRANCH   1   7
BRANCH   3  20
ATOM     20  C   UNL     1       1.664  -4.554  -1.588  0.00  0.00    +0.200 C 
BRANCH  20  21
ATOM     21  C   UNL     1       2.144  -5.816  -2.256  0.00  0.00    +0.230 C 
ATOM     22  O   UNL     1       3.325  -5.966  -2.493  0.00  0.00    -0.274 OA
ATOM     23  N   UNL     1       1.263  -6.780  -2.589  0.00  0.00    -0.314 N 
ATOM     24  H   UNL     1       0.319  -6.661  -2.399  0.00  0.00    +0.149 HD
BRANCH  23  25
ATOM     25  C   UNL     1       1.730  -8.008  -3.238  0.00  0.00    +0.112 C 
BRANCH  25  26
ATOM     26  C   UNL     1       0.538  -8.928  -3.506  0.00  0.00    +0.093 C 
BRANCH  26  27
ATOM     27  C   UNL     1       1.018 -10.191  -4.174  0.00  0.00    +0.110 A 
ATOM     28  N   UNL     1       1.721 -10.235  -5.268  0.00  0.00    -0.232 NA
ATOM     29  C   UNL     1       1.982 -11.527  -5.591  0.00  0.00    +0.089 A 
ATOM     30  C   UNL     1       2.678 -12.137  -6.638  0.00  0.00    +0.030 A 
ATOM     31  C   UNL     1       2.771 -13.499  -6.692  0.00  0.00    +0.002 A 
ATOM     32  C   UNL     1       2.179 -14.288  -5.715  0.00  0.00    +0.002 A 
ATOM     33  C   UNL     1       1.487 -13.708  -4.673  0.00  0.00    +0.028 A 
ATOM     34  C   UNL     1       1.383 -12.326  -4.602  0.00  0.00    +0.066 A 
ATOM     35  N   UNL     1       0.786 -11.451  -3.716  0.00  0.00    -0.342 N 
ATOM     36  H   UNL     1       0.291 -11.690  -2.918  0.00  0.00    +0.167 HD
ENDBRANCH  26  27
ENDBRANCH  25  26
ENDBRANCH  23  25
ENDBRANCH  20  21
ENDBRANCH   3  20
TORSDOF 8
