REMARK  Name = ZINC39459169
REMARK  8 active torsions:
REMARK  status: ('A' for Active; 'I' for Inactive)
REMARK    1  A    between atoms: C_1  and  C_2
REMARK    2  A    between atoms: C_2  and  O_3
REMARK    3  A    between atoms: O_3  and  C_4
REMARK    4  A    between atoms: N_16  and  C_27
REMARK    5  A    between atoms: C_17  and  C_26
REMARK    6  A    between atoms: C_18  and  C_19
REMARK    7  A    between atoms: C_24  and  O_25
REMARK    8  A    between atoms: C_32  and  O_33
REMARK                            x       y       z     vdW  Elec       q    Type
REMARK                         _______ _______ _______ _____ _____    ______ ____
ROOT
ATOM      1  C   UNL     1       0.776  -1.806  -1.336  0.00  0.00    +0.134 A 
ATOM      2  C   UNL     1       0.248  -2.689  -0.396  0.00  0.00    +0.066 A 
ATOM      3  C   UNL     1       0.380  -4.051  -0.585  0.00  0.00    +0.115 A 
ATOM      4  N   UNL     1       1.012  -4.548  -1.634  0.00  0.00    -0.253 NA
ATOM      5  C   UNL     1       1.540  -3.761  -2.554  0.00  0.00    +0.102 A 
ATOM      6  C   UNL     1       1.416  -2.353  -2.458  0.00  0.00    +0.086 A 
ATOM      7  C   UNL     1       1.944  -1.528  -3.536  0.00  0.00    +0.169 C 
ATOM      8  O   UNL     1       1.177  -1.020  -4.327  0.00  0.00    -0.292 OA
ATOM      9  C   UNL     1       3.429  -1.292  -3.688  0.00  0.00    +0.084 C 
ATOM     10  C   UNL     1       4.175  -2.615  -3.459  0.00  0.00    +0.046 C 
ATOM     11  C   UNL     1       3.462  -3.748  -4.144  0.00  0.00    -0.012 A 
ATOM     12  C   UNL     1       2.281  -4.282  -3.717  0.00  0.00    +0.077 A 
ATOM     13  N   UNL     1       1.958  -5.312  -4.555  0.00  0.00    -0.308 N 
ATOM     14  C   UNL     1       2.922  -5.415  -5.512  0.00  0.00    +0.030 A 
ATOM     15  C   UNL     1       3.853  -4.457  -5.292  0.00  0.00    +0.010 A 
ATOM     16  C   UNL     1       2.940  -6.413  -6.641  0.00  0.00    +0.064 C 
ENDROOT
BRANCH  15  17
ATOM     17  C   UNL     1       5.071  -4.214  -6.104  0.00  0.00    +0.026 A 
ATOM     18  C   UNL     1       6.257  -4.878  -5.801  0.00  0.00    +0.012 A 
ATOM     19  C   UNL     1       7.388  -4.649  -6.559  0.00  0.00    +0.001 A 
ATOM     20  C   UNL     1       7.347  -3.759  -7.619  0.00  0.00    +0.004 A 
ATOM     21  C   UNL     1       6.175  -3.095  -7.927  0.00  0.00    +0.046 A 
ATOM     22  C   UNL     1       5.032  -3.321  -7.178  0.00  0.00    +0.125 A 
BRANCH  22  23
ATOM     23  O   UNL     1       3.877  -2.673  -7.484  0.00  0.00    -0.506 OA
ATOM     24  H   UNL     1       3.771  -1.825  -7.032  0.00  0.00    +0.292 HD
ENDBRANCH  22  23
ENDBRANCH  15  17
BRANCH  13  25
ATOM     25  C   UNL     1       0.823  -6.128  -4.447  0.00  0.00    +0.089 A 
ATOM     26  C   UNL     1      -0.351  -5.776  -5.097  0.00  0.00    +0.030 A 
ATOM     27  C   UNL     1      -1.469  -6.582  -4.989  0.00  0.00    +0.002 A 
ATOM     28  C   UNL     1      -1.421  -7.740  -4.235  0.00  0.00    +0.004 A 
ATOM     29  C   UNL     1      -0.255  -8.097  -3.584  0.00  0.00    +0.047 A 
ATOM     30  C   UNL     1       0.872  -7.298  -3.692  0.00  0.00    +0.141 A 
BRANCH  30  31
ATOM     31  O   UNL     1       2.022  -7.651  -3.058  0.00  0.00    -0.505 OA
ATOM     32  H   UNL     1       2.098  -7.303  -2.159  0.00  0.00    +0.292 HD
ENDBRANCH  30  31
ENDBRANCH  13  25
BRANCH   1  33
ATOM     33  O   UNL     1       0.671  -0.465  -1.174  0.00  0.00    -0.491 OA
BRANCH  33  35
ATOM     34  C   UNL     1      -0.019   1.526   0.010  0.00  0.00    +0.048 C 
ATOM     35  C   UNL     1       0.002  -0.004   0.002  0.00  0.00    +0.226 C 
ENDBRANCH  33  35
ENDBRANCH   1  33
TORSDOF 6
