REMARK  Name = ZINC35636634
REMARK  8 active torsions:
REMARK  status: ('A' for Active; 'I' for Inactive)
REMARK    1  A    between atoms: C_1  and  N_2
REMARK    2  A    between atoms: C_5  and  C_10
REMARK    3  A    between atoms: C_14  and  O_16
REMARK    4  A    between atoms: O_16  and  C_17
REMARK    5  A    between atoms: N_25  and  C_27
REMARK    6  A    between atoms: C_27  and  C_28
REMARK    7  A    between atoms: N_30  and  C_31
REMARK    8  A    between atoms: C_31  and  C_32
REMARK                            x       y       z     vdW  Elec       q    Type
REMARK                         _______ _______ _______ _____ _____    ______ ____
ROOT
ATOM      1  C   UNL     1      -0.245   1.459  -0.034  0.00  0.00    +0.139 C 
ATOM      2  N   UNL     1      -0.205  -0.006  -0.039  0.00  0.00    -0.260 N 
ATOM      3  C   UNL     1      -1.389  -0.684   0.027  0.00  0.00    +0.042 C 
ATOM      4  C   UNL     1      -1.423  -2.032   0.026  0.00  0.00    +0.058 C 
ATOM      5  C   UNL     1      -0.102  -2.770  -0.051  0.00  0.00    +0.142 C 
ATOM      6  N   UNL     1       1.119  -1.948  -0.118  0.00  0.00    -0.288 N 
ATOM      7  C   UNL     1       0.990  -0.606  -0.113  0.00  0.00    +0.307 C 
ATOM      8  O   UNL     1       1.991   0.081  -0.173  0.00  0.00    -0.252 OA
ATOM      9  C   UNL     1      -2.754  -2.489   0.101  0.00  0.00    +0.247 C 
ATOM     10  O   UNL     1      -3.079  -3.662   0.118  0.00  0.00    -0.270 OA
ATOM     11  N   UNL     1      -3.619  -1.460   0.153  0.00  0.00    -0.283 N 
ATOM     12  C   UNL     1      -2.826  -0.222   0.110  0.00  0.00    +0.160 C 
ATOM     13  H   UNL     1       1.994  -2.362  -0.169  0.00  0.00    +0.151 HD
ENDROOT
BRANCH   5  14
ATOM     14  C   UNL     1       0.005  -3.659   1.161  0.00  0.00    -0.019 A 
ATOM     15  C   UNL     1       0.385  -3.126   2.379  0.00  0.00    +0.006 A 
ATOM     16  C   UNL     1       0.484  -3.939   3.493  0.00  0.00    +0.004 A 
ATOM     17  C   UNL     1       0.202  -5.287   3.391  0.00  0.00    +0.046 A 
ATOM     18  C   UNL     1      -0.179  -5.826   2.171  0.00  0.00    +0.129 A 
ATOM     19  C   UNL     1      -0.283  -5.006   1.056  0.00  0.00    +0.052 A 
BRANCH  18  20
ATOM     20  O   UNL     1      -0.456  -7.152   2.069  0.00  0.00    -0.456 OA
BRANCH  20  21
ATOM     21  C   UNL     1       0.383  -7.924   1.330  0.00  0.00    +0.128 A 
ATOM     22  C   UNL     1       1.554  -7.384   0.817  0.00  0.00    +0.046 A 
ATOM     23  C   UNL     1       2.405  -8.171   0.066  0.00  0.00    +0.004 A 
ATOM     24  C   UNL     1       2.091  -9.496  -0.175  0.00  0.00    +0.000 A 
ATOM     25  C   UNL     1       0.925 -10.037   0.335  0.00  0.00    +0.004 A 
ATOM     26  C   UNL     1       0.074  -9.256   1.092  0.00  0.00    +0.046 A 
ENDBRANCH  20  21
ENDBRANCH  18  20
ENDBRANCH   5  14
BRANCH  11  27
ATOM     27  C   UNL     1      -5.079  -1.554   0.236  0.00  0.00    +0.204 C 
BRANCH  27  28
ATOM     28  C   UNL     1      -5.498  -1.589   1.683  0.00  0.00    +0.231 C 
ATOM     29  O   UNL     1      -4.661  -1.540   2.559  0.00  0.00    -0.274 OA
ATOM     30  N   UNL     1      -6.805  -1.675   2.004  0.00  0.00    -0.312 N 
ATOM     31  H   UNL     1      -7.474  -1.715   1.303  0.00  0.00    +0.149 HD
BRANCH  30  32
ATOM     32  C   UNL     1      -7.213  -1.710   3.410  0.00  0.00    +0.135 C 
BRANCH  32  33
ATOM     33  C   UNL     1      -8.737  -1.808   3.497  0.00  0.00    +0.135 C 
ATOM     34  C   UNL     1      -9.193  -1.811   4.978  0.00  0.00    +0.035 C 
ATOM     35  C   UNL     1     -10.643  -1.272   4.841  0.00  0.00    +0.031 C 
ATOM     36  C   UNL     1     -10.514  -0.280   3.665  0.00  0.00    +0.160 C 
ATOM     37  O   UNL     1      -9.346  -0.644   2.917  0.00  0.00    -0.375 OA
ENDBRANCH  32  33
ENDBRANCH  30  32
ENDBRANCH  27  28
ENDBRANCH  11  27
TORSDOF 7
