REMARK  Name = ZINC40372686
REMARK  7 active torsions:
REMARK  status: ('A' for Active; 'I' for Inactive)
REMARK    1  A    between atoms: C_1  and  C_2
REMARK    2  A    between atoms: C_2  and  C_3
REMARK    3  A    between atoms: C_6  and  C_9
REMARK    4  A    between atoms: C_6  and  N_13
REMARK    5  A    between atoms: N_10  and  O_11
REMARK    6  A    between atoms: C_14  and  C_16
REMARK    7  A    between atoms: C_16  and  C_17
REMARK                            x       y       z     vdW  Elec       q    Type
REMARK                         _______ _______ _______ _____ _____    ______ ____
ROOT
ATOM      1  C   UNL     1       0.615  -0.491   1.074  0.00  0.00    -0.011 C 
ATOM      2  C   UNL     1      -0.074  -0.104   2.384  0.00  0.00    +0.006 C 
ATOM      3  C   UNL     1      -1.457  -0.757   2.444  0.00  0.00    +0.034 C 
ATOM      4  C   UNL     1      -1.307  -2.278   2.377  0.00  0.00    +0.093 C 
ATOM      5  C   UNL     1      -0.617  -2.664   1.066  0.00  0.00    +0.034 C 
ATOM      6  C   UNL     1       0.766  -2.012   1.006  0.00  0.00    +0.006 C 
ENDROOT
BRANCH   4   7
ATOM      7  C   UNL     1      -2.668  -2.920   2.436  0.00  0.00    +0.155 C 
ATOM      8  N   UNL     1      -3.728  -2.184   2.502  0.00  0.00    -0.075 NA
ATOM      9  N   UNL     1      -2.784  -4.292   2.419  0.00  0.00    -0.342 N 
ATOM     10  H   UNL     1      -1.988  -4.846   2.444  0.00  0.00    +0.144 HD
ATOM     11  H   UNL     1      -3.661  -4.705   2.382  0.00  0.00    +0.144 HD
BRANCH   8  12
ATOM     12  O   UNL     1      -5.007  -2.787   2.558  0.00  0.00    -0.408 OA
ATOM     13  H   UNL     1      -5.738  -2.156   2.606  0.00  0.00    +0.328 HD
ENDBRANCH   8  12
ENDBRANCH   4   7
BRANCH   4  14
ATOM     14  N   UNL     1      -0.499  -2.740   3.508  0.00  0.00    -0.303 N 
ATOM     15  C   UNL     1      -0.965  -2.610   4.766  0.00  0.00    +0.219 C 
ATOM     16  O   UNL     1      -2.012  -2.031   4.968  0.00  0.00    -0.275 OA
ATOM     17  H   UNL     1       0.371  -3.139   3.352  0.00  0.00    +0.150 HD
BRANCH  15  18
ATOM     18  C   UNL     1      -0.186  -3.185   5.921  0.00  0.00    +0.138 C 
BRANCH  18  19
ATOM     19  C   UNL     1      -0.918  -2.906   7.209  0.00  0.00    -0.001 A 
ATOM     20  C   UNL     1      -1.851  -3.659   7.841  0.00  0.00    +0.011 A 
ATOM     21  C   UNL     1      -2.393  -3.200   9.026  0.00  0.00    +0.008 A 
ATOM     22  C   UNL     1      -1.976  -2.009   9.522  0.00  0.00    +0.045 A 
ATOM     23  S   UNL     1      -0.776  -1.501   8.301  0.00  0.00    -0.101 S 
ENDBRANCH  18  19
ENDBRANCH  15  18
ENDBRANCH   4  14
BRANCH   1  25
ATOM     24  C   UNL     1      -0.275   1.521  -0.110  0.00  0.00    +0.004 C 
ATOM     25  C   UNL     1      -0.228  -0.008  -0.108  0.00  0.00    -0.000 C 
ENDBRANCH   1  25
TORSDOF 6
