REMARK  Name = ZINC12581701
REMARK  7 active torsions:
REMARK  status: ('A' for Active; 'I' for Inactive)
REMARK    1  A    between atoms: C_4  and  C_7
REMARK    2  A    between atoms: C_7  and  C_12
REMARK    3  A    between atoms: C_12  and  N_13
REMARK    4  A    between atoms: C_14  and  C_16
REMARK    5  A    between atoms: C_16  and  C_17
REMARK    6  A    between atoms: C_24  and  C_25
REMARK    7  A    between atoms: C_24  and  N_61
REMARK                            x       y       z     vdW  Elec       q    Type
REMARK                         _______ _______ _______ _____ _____    ______ ____
ROOT
ATOM      1  C   UNL     1       3.521   6.731  -0.280  0.00  0.00    +0.089 C 
ENDROOT
BRANCH   1   2
ATOM      2  C   UNL     1       3.841   5.584  -1.241  0.00  0.00    +0.028 C 
ATOM      3  C   UNL     1       2.772   4.534  -1.135  0.00  0.00    +0.200 C 
ATOM      4  O   UNL     1       1.614   4.888  -1.074  0.00  0.00    -0.278 OA
ATOM      5  N   UNL     1       3.044   3.225  -1.105  0.00  0.00    -0.318 N 
ATOM      6  C   UNL     1       4.404   2.696  -1.137  0.00  0.00    +0.085 C 
ATOM      7  C   UNL     1       5.371   3.765  -1.650  0.00  0.00    -0.058 C 
ATOM      8  H   UNL     1       2.304   2.599  -1.061  0.00  0.00    +0.149 HD
ATOM      9  N   UNL     1       5.144   4.999  -0.872  0.00  0.00    +0.391 N 
ATOM     10  H   UNL     1       5.137   4.768   0.129  0.00  0.00    -0.080 HD
BRANCH   9  11
ATOM     11  C   UNL     1       6.229   5.972  -1.134  0.00  0.00    -0.039 C 
BRANCH  11  12
ATOM     12  C   UNL     1       7.483   5.502  -0.444  0.00  0.00    -0.029 A 
ATOM     13  C   UNL     1       8.516   4.956  -1.182  0.00  0.00    +0.004 A 
ATOM     14  C   UNL     1       9.666   4.525  -0.549  0.00  0.00    +0.000 A 
ATOM     15  C   UNL     1       9.784   4.635   0.824  0.00  0.00    +0.003 A 
ATOM     16  C   UNL     1       8.755   5.186   1.564  0.00  0.00    +0.038 A 
ATOM     17  C   UNL     1       7.602   5.618   0.931  0.00  0.00    +0.125 A 
ATOM     18  F   UNL     1       6.593   6.152   1.654  0.00  0.00    -0.205 F 
ENDBRANCH  11  12
ENDBRANCH   9  11
ENDBRANCH   1   2
BRANCH   1  20
ATOM     19  N   UNL     1       3.163   7.029   2.149  0.00  0.00    -0.315 N 
ATOM     20  C   UNL     1       3.518   6.215   1.135  0.00  0.00    +0.212 C 
ATOM     21  O   UNL     1       3.835   5.066   1.363  0.00  0.00    -0.276 OA
ATOM     22  H   UNL     1       2.910   7.948   1.967  0.00  0.00    +0.149 HD
BRANCH  19  23
ATOM     23  C   UNL     1       3.160   6.527   3.525  0.00  0.00    +0.115 C 
BRANCH  23  24
ATOM     24  C   UNL     1       2.843   7.674   4.486  0.00  0.00    +0.011 C 
ATOM     25  C   UNL     1       3.866   8.809   4.309  0.00  0.00    +0.013 C 
ATOM     26  C   UNL     1       4.579   8.977   5.666  0.00  0.00    +0.001 C 
ATOM     27  C   UNL     1       4.404   7.603   6.359  0.00  0.00    +0.001 C 
ATOM     28  C   UNL     1       2.969   7.192   5.946  0.00  0.00    +0.013 C 
BRANCH  24  32
ATOM     29  C   UNL     1      -1.107   9.134   3.765  0.00  0.00    +0.000 A 
ATOM     30  C   UNL     1      -0.650   8.015   3.094  0.00  0.00    +0.000 A 
ATOM     31  C   UNL     1       0.628   7.543   3.327  0.00  0.00    +0.004 A 
ATOM     32  C   UNL     1       1.449   8.190   4.231  0.00  0.00    -0.040 A 
ATOM     33  C   UNL     1       0.991   9.305   4.907  0.00  0.00    +0.004 A 
ATOM     34  C   UNL     1      -0.285   9.780   4.670  0.00  0.00    +0.000 A 
ENDBRANCH  24  32
ENDBRANCH  23  24
ENDBRANCH  19  23
ENDBRANCH   1  20
TORSDOF 7
