REMARK  Name = ZINC03259930
REMARK  8 active torsions:
REMARK  status: ('A' for Active; 'I' for Inactive)
REMARK    1  A    between atoms: C_1  and  N_2
REMARK    2  A    between atoms: C_3  and  N_33
REMARK    3  A    between atoms: C_4  and  C_11
REMARK    4  A    between atoms: N_7  and  C_10
REMARK    5  A    between atoms: C_11  and  C_13
REMARK    6  A    between atoms: C_13  and  S_14
REMARK    7  A    between atoms: S_14  and  C_15
REMARK    8  A    between atoms: N_25  and  C_26
REMARK                            x       y       z     vdW  Elec       q    Type
REMARK                         _______ _______ _______ _____ _____    ______ ____
ROOT
ATOM      1  C   UNL     1      -3.092   4.064   1.240  0.00  0.00    +0.177 A 
ATOM      2  N   UNL     1      -4.238   4.694   1.329  0.00  0.00    -0.223 NA
ATOM      3  C   UNL     1      -4.935   5.052   0.233  0.00  0.00    +0.079 A 
ATOM      4  C   UNL     1      -6.158   5.723   0.329  0.00  0.00    +0.028 A 
ATOM      5  C   UNL     1      -6.832   6.068  -0.809  0.00  0.00    +0.002 A 
ATOM      6  C   UNL     1      -6.320   5.761  -2.063  0.00  0.00    +0.001 A 
ATOM      7  C   UNL     1      -5.127   5.105  -2.190  0.00  0.00    +0.015 A 
ATOM      8  C   UNL     1      -4.418   4.742  -1.046  0.00  0.00    +0.065 A 
ATOM      9  C   UNL     1      -3.129   4.042  -1.121  0.00  0.00    +0.267 A 
ATOM     10  O   UNL     1      -2.630   3.752  -2.193  0.00  0.00    -0.267 OA
ATOM     11  N   UNL     1      -2.519   3.726   0.045  0.00  0.00    -0.254 N 
ENDROOT
BRANCH  11  12
ATOM     12  C   UNL     1      -1.290   3.053   0.028  0.00  0.00    +0.070 A 
ATOM     13  C   UNL     1      -1.257   1.665   0.037  0.00  0.00    +0.028 A 
ATOM     14  C   UNL     1      -0.044   1.005   0.026  0.00  0.00    +0.002 A 
ATOM     15  C   UNL     1       1.137   1.724  -0.004  0.00  0.00    +0.002 A 
ATOM     16  C   UNL     1       1.108   3.106  -0.018  0.00  0.00    +0.022 A 
ATOM     17  C   UNL     1      -0.103   3.773  -0.002  0.00  0.00    +0.065 A 
ATOM     18 CL   UNL     1      -0.139   5.509  -0.020  0.00  0.00    -0.081 Cl
ENDBRANCH  11  12
BRANCH   1  19
ATOM     19  S   UNL     1      -2.251   3.635   2.727  0.00  0.00    -0.079 S 
BRANCH  19  20
ATOM     20  C   UNL     1      -3.413   4.296   3.947  0.00  0.00    +0.157 C 
BRANCH  20  21
ATOM     21  C   UNL     1      -2.885   4.037   5.335  0.00  0.00    +0.182 C 
ATOM     22  O   UNL     1      -1.826   3.460   5.484  0.00  0.00    -0.291 OA
BRANCH  21  26
ATOM     23  C   UNL     1      -3.538   4.226  10.184  0.00  0.00    +0.155 C 
ATOM     24  N   UNL     1      -3.957   4.567   8.822  0.00  0.00    -0.284 N 
ATOM     25  C   UNL     1      -3.214   4.127   7.764  0.00  0.00    +0.116 A 
ATOM     26  C   UNL     1      -3.621   4.463   6.461  0.00  0.00    +0.120 A 
ATOM     27  C   UNL     1      -4.841   5.267   6.309  0.00  0.00    +0.269 A 
ATOM     28  O   UNL     1      -5.243   5.583   5.205  0.00  0.00    -0.267 OA
ATOM     29  N   UNL     1      -5.506   5.647   7.419  0.00  0.00    -0.263 N 
ATOM     30  C   UNL     1      -5.066   5.300   8.639  0.00  0.00    +0.333 A 
ATOM     31  O   UNL     1      -5.694   5.664   9.614  0.00  0.00    -0.246 OA
ATOM     32  C   UNL     1      -6.725   6.450   7.292  0.00  0.00    +0.157 C 
BRANCH  25  33
ATOM     33  N   UNL     1      -2.096   3.379   7.967  0.00  0.00    -0.344 N 
ATOM     34  H   UNL     1      -1.528   3.141   7.217  0.00  0.00    +0.144 HD
ATOM     35  H   UNL     1      -1.866   3.084   8.862  0.00  0.00    +0.144 HD
ENDBRANCH  25  33
ENDBRANCH  21  26
ENDBRANCH  20  21
ENDBRANCH  19  20
ENDBRANCH   1  19
TORSDOF 6
