REMARK  Name = ZINC63702825
REMARK  6 active torsions:
REMARK  status: ('A' for Active; 'I' for Inactive)
REMARK    1  A    between atoms: C_1  and  C_2
REMARK    2  A    between atoms: N_6  and  C_7
REMARK    3  A    between atoms: C_7  and  C_16
REMARK    4  A    between atoms: C_8  and  C_9
REMARK    5  A    between atoms: N_18  and  C_19
REMARK    6  A    between atoms: N_22  and  C_25
REMARK                            x       y       z     vdW  Elec       q    Type
REMARK                         _______ _______ _______ _____ _____    ______ ____
ROOT
ATOM      1  C   UNL     1      -0.211  -0.445   2.388  0.00  0.00    +0.131 C 
ATOM      2  C   UNL     1      -0.227   0.804   2.909  0.00  0.00    +0.041 C 
ENDROOT
BRANCH   2   3
ATOM      3  C   UNL     1      -0.424   1.965   2.029  0.00  0.00    -0.023 A 
ATOM      4  C   UNL     1      -1.060   3.114   2.513  0.00  0.00    +0.011 A 
ATOM      5  C   UNL     1      -1.241   4.199   1.683  0.00  0.00    +0.039 A 
ATOM      6  C   UNL     1      -0.795   4.154   0.370  0.00  0.00    +0.123 A 
ATOM      7  C   UNL     1      -0.165   3.018  -0.116  0.00  0.00    +0.039 A 
ATOM      8  C   UNL     1       0.029   1.929   0.706  0.00  0.00    +0.011 A 
ATOM      9  F   UNL     1      -0.977   5.221  -0.438  0.00  0.00    -0.205 F 
ENDBRANCH   2   3
BRANCH   1  15
ATOM     10  C   UNL     1       1.686  -1.623   0.242  0.00  0.00    +0.090 C 
ATOM     11  C   UNL     1       0.264  -1.155   0.073  0.00  0.00    +0.154 A 
ATOM     12  N   UNL     1      -0.431  -1.172  -1.035  0.00  0.00    -0.113 NA
ATOM     13  N   UNL     1      -1.610  -0.702  -0.836  0.00  0.00    -0.023 NA
ATOM     14  N   UNL     1      -1.750  -0.357   0.398  0.00  0.00    -0.039 NA
ATOM     15  N   UNL     1      -0.532  -0.645   1.038  0.00  0.00    -0.192 N 
ENDBRANCH   1  15
BRANCH   1  16
ATOM     16  C   UNL     1       0.141  -1.590   3.236  0.00  0.00    +0.263 C 
ATOM     17  O   UNL     1       0.513  -1.408   4.380  0.00  0.00    -0.269 OA
ATOM     18  N   UNL     1       0.053  -2.844   2.748  0.00  0.00    -0.307 N 
ATOM     19  H   UNL     1      -0.176  -2.986   1.816  0.00  0.00    +0.149 HD
BRANCH  18  20
ATOM     20  C   UNL     1       0.302  -3.990   3.624  0.00  0.00    +0.070 C 
ATOM     21  C   UNL     1       1.805  -4.282   3.671  0.00  0.00    +0.004 C 
ATOM     22  C   UNL     1       2.050  -5.529   4.524  0.00  0.00    -0.077 C 
ATOM     23  N   UNL     1       1.346  -6.675   3.937  0.00  0.00    +0.382 N 
ATOM     24  C   UNL     1      -0.102  -6.432   3.954  0.00  0.00    -0.077 C 
ATOM     25  C   UNL     1      -0.430  -5.220   3.079  0.00  0.00    +0.004 C 
ATOM     26  H   UNL     1       1.653  -6.804   2.984  0.00  0.00    -0.081 HD
BRANCH  23  27
ATOM     27  C   UNL     1       1.648  -7.884   4.714  0.00  0.00    -0.069 C 
ATOM     28  C   UNL     1       2.500  -8.962   4.041  0.00  0.00    -0.017 C 
ATOM     29  C   UNL     1       1.004  -9.195   4.259  0.00  0.00    -0.017 C 
ENDBRANCH  23  27
ENDBRANCH  18  20
ENDBRANCH   1  16
TORSDOF 5
