REMARK  Name = ZINC46543637
REMARK  6 active torsions:
REMARK  status: ('A' for Active; 'I' for Inactive)
REMARK    1  A    between atoms: C_1  and  C_2
REMARK    2  A    between atoms: C_2  and  C_4
REMARK    3  A    between atoms: C_2  and  O_21
REMARK    4  A    between atoms: N_6  and  N_7
REMARK    5  A    between atoms: C_8  and  C_10
REMARK    6  A    between atoms: O_21  and  C_22
REMARK                            x       y       z     vdW  Elec       q    Type
REMARK                         _______ _______ _______ _____ _____    ______ ____
ROOT
ATOM      1  C   UNL     1       1.290  -0.300   0.764  0.00  0.00    +0.270 C 
ATOM      2  O   UNL     1       2.483  -0.492   0.663  0.00  0.00    -0.270 OA
ATOM      3  N   UNL     1       0.716  -0.255   1.982  0.00  0.00    -0.231 N 
ATOM      4  H   UNL     1      -0.239  -0.101   2.063  0.00  0.00    +0.173 HD
ENDROOT
BRANCH   3   5
ATOM      5  N   UNL     1       1.497  -0.429   3.132  0.00  0.00    -0.234 N 
ATOM      6  C   UNL     1       0.922  -0.383   4.351  0.00  0.00    +0.237 C 
ATOM      7  O   UNL     1      -0.283  -0.287   4.450  0.00  0.00    -0.274 OA
ATOM      8  H   UNL     1       2.451  -0.583   3.051  0.00  0.00    +0.173 HD
BRANCH   6   9
ATOM      9  C   UNL     1       1.777  -0.453   5.590  0.00  0.00    +0.107 C 
ATOM     10  C   UNL     1       1.104   0.337   6.711  0.00  0.00    +0.018 C 
ATOM     11  C   UNL     1       1.870   0.076   8.013  0.00  0.00    +0.006 C 
ATOM     12  C   UNL     1       1.615  -1.368   8.441  0.00  0.00    +0.035 C 
ATOM     13  C   UNL     1       1.885  -2.313   7.300  0.00  0.00    -0.043 A 
ATOM     14  C   UNL     1       1.955  -1.894   5.991  0.00  0.00    -0.032 A 
ATOM     15  C   UNL     1       2.201  -2.819   4.985  0.00  0.00    +0.004 A 
ATOM     16  C   UNL     1       2.378  -4.153   5.287  0.00  0.00    +0.000 A 
ATOM     17  C   UNL     1       2.311  -4.574   6.602  0.00  0.00    +0.000 A 
ATOM     18  C   UNL     1       2.066  -3.657   7.602  0.00  0.00    +0.004 A 
ENDBRANCH   6   9
ENDBRANCH   3   5
BRANCH   1  20
ATOM     19  C   UNL     1      -0.119   1.308  -0.492  0.00  0.00    +0.062 C 
ATOM     20  C   UNL     1       0.450  -0.112  -0.473  0.00  0.00    +0.257 C 
BRANCH  20  21
ATOM     21  O   UNL     1       1.258  -0.318  -1.633  0.00  0.00    -0.480 OA
BRANCH  21  22
ATOM     22  C   UNL     1       0.616  -0.673  -2.777  0.00  0.00    +0.123 A 
ATOM     23  C   UNL     1       1.341  -0.918  -3.934  0.00  0.00    +0.046 A 
ATOM     24  C   UNL     1       0.687  -1.279  -5.096  0.00  0.00    +0.005 A 
ATOM     25  C   UNL     1      -0.691  -1.397  -5.106  0.00  0.00    +0.015 A 
ATOM     26  C   UNL     1      -1.417  -1.154  -3.954  0.00  0.00    +0.021 A 
ATOM     27  C   UNL     1      -0.766  -0.798  -2.788  0.00  0.00    +0.061 A 
ATOM     28 BR   UNL     1      -3.301  -1.316  -3.973  0.00  0.00    -0.050 Br
ENDBRANCH  21  22
ENDBRANCH  20  21
ENDBRANCH   1  20
TORSDOF 5
