REMARK  Name = ZINC09415990
REMARK  12 active torsions:
REMARK  status: ('A' for Active; 'I' for Inactive)
REMARK    1  A    between atoms: C_1  and  C_2
REMARK    2  A    between atoms: C_2  and  N_3
REMARK    3  A    between atoms: N_3  and  C_4
REMARK    4  A    between atoms: C_4  and  C_5
REMARK    5  A    between atoms: C_6  and  C_8
REMARK    6  A    between atoms: C_8  and  C_10
REMARK    7  A    between atoms: C_8  and  S_16
REMARK    8  A    between atoms: S_16  and  C_17
REMARK    9  A    between atoms: C_20  and  C_29
REMARK   10  A    between atoms: N_21  and  C_22
REMARK   11  A    between atoms: C_29  and  C_31
REMARK   12  A    between atoms: C_29  and  N_69
REMARK                            x       y       z     vdW  Elec       q    Type
REMARK                         _______ _______ _______ _____ _____    ______ ____
ROOT
ATOM      1  C   UNL     1       4.874   4.214  -1.517  0.00  0.00    +0.197 A 
ATOM      2  N   UNL     1       5.963   3.953  -0.832  0.00  0.00    -0.122 NA
ATOM      3  N   UNL     1       6.911   4.737  -1.200  0.00  0.00    -0.135 NA
ATOM      4  C   UNL     1       6.487   5.548  -2.129  0.00  0.00    +0.125 A 
ATOM      5  N   UNL     1       5.173   5.245  -2.365  0.00  0.00    -0.275 N 
ENDROOT
BRANCH   5   6
ATOM      6  C   UNL     1       4.312   5.862  -3.286  0.00  0.00    +0.050 A 
ATOM      7  C   UNL     1       4.567   5.767  -4.647  0.00  0.00    +0.029 A 
ATOM      8  C   UNL     1       3.716   6.371  -5.552  0.00  0.00    +0.040 A 
ATOM      9  C   UNL     1       2.616   7.080  -5.101  0.00  0.00    +0.124 A 
ATOM     10  C   UNL     1       2.363   7.181  -3.744  0.00  0.00    +0.040 A 
ATOM     11  C   UNL     1       3.209   6.574  -2.836  0.00  0.00    +0.029 A 
ATOM     12  F   UNL     1       1.787   7.675  -5.988  0.00  0.00    -0.205 F 
ENDBRANCH   5   6
BRANCH   4  13
ATOM     13  C   UNL     1       7.294   6.620  -2.816  0.00  0.00    -0.002 C 
ATOM     14  C   UNL     1       8.252   5.974  -3.819  0.00  0.00    -0.005 C 
BRANCH  13  20
ATOM     15  C   UNL     1       7.186   7.920  -0.777  0.00  0.00    -0.078 C 
ATOM     16  C   UNL     1       8.033   8.567   0.322  0.00  0.00    -0.019 C 
ATOM     17  C   UNL     1       8.891   9.677  -0.289  0.00  0.00    -0.004 C 
ATOM     18  C   UNL     1       9.763   9.085  -1.400  0.00  0.00    -0.019 C 
ATOM     19  C   UNL     1       8.866   8.424  -2.448  0.00  0.00    -0.078 C 
ATOM     20  N   UNL     1       8.084   7.349  -1.802  0.00  0.00    +0.386 N 
ATOM     21  H   UNL     1       8.732   6.693  -1.349  0.00  0.00    -0.081 HD
ENDBRANCH  13  20
ENDBRANCH   4  13
BRANCH   1  22
ATOM     22  S   UNL     1       3.319   3.398  -1.367  0.00  0.00    -0.068 S 
BRANCH  22  23
ATOM     23  C   UNL     1       3.691   2.263  -0.007  0.00  0.00    +0.170 C 
BRANCH  23  24
ATOM     24  C   UNL     1       2.500   1.373   0.245  0.00  0.00    -0.025 A 
ATOM     25  C   UNL     1       1.285   1.929   0.598  0.00  0.00    +0.005 A 
ATOM     26  C   UNL     1       0.193   1.113   0.828  0.00  0.00    +0.000 A 
ATOM     27  C   UNL     1       0.317  -0.258   0.706  0.00  0.00    +0.000 A 
ATOM     28  C   UNL     1       1.532  -0.814   0.354  0.00  0.00    +0.000 A 
ATOM     29  C   UNL     1       2.624   0.002   0.124  0.00  0.00    +0.005 A 
ENDBRANCH  23  24
BRANCH  23  31
ATOM     30  N   UNL     1       4.922   2.604   2.112  0.00  0.00    -0.301 N 
ATOM     31  C   UNL     1       3.999   3.054   1.238  0.00  0.00    +0.233 C 
ATOM     32  O   UNL     1       3.416   4.095   1.454  0.00  0.00    -0.274 OA
BRANCH  30  34
ATOM     33  C   UNL     1       4.220   2.744   4.450  0.00  0.00    +0.024 C 
ATOM     34  C   UNL     1       5.144   3.315   3.373  0.00  0.00    +0.104 C 
ENDBRANCH  30  34
BRANCH  30  35
ATOM     35  C   UNL     1       5.702   1.404   1.799  0.00  0.00    +0.104 C 
ATOM     36  C   UNL     1       6.958   1.801   1.022  0.00  0.00    +0.024 C 
ENDBRANCH  30  35
ENDBRANCH  23  31
ENDBRANCH  22  23
ENDBRANCH   1  22
TORSDOF 9
