REMARK  Name = ZINC12829322
REMARK  3 active torsions:
REMARK  status: ('A' for Active; 'I' for Inactive)
REMARK    1  A    between atoms: N_13  and  C_14
REMARK    2  A    between atoms: C_14  and  C_15
REMARK    3  A    between atoms: C_15  and  C_16
REMARK                            x       y       z     vdW  Elec       q    Type
REMARK                         _______ _______ _______ _____ _____    ______ ____
ROOT
ATOM      1  C   UNL     1       1.280   1.980   0.001  0.00  0.00    +0.118 C 
ENDROOT
BRANCH   1   2
ATOM      2  C   UNL     1      -0.014   1.209   0.009  0.00  0.00    +0.220 C 
ATOM      3  O   UNL     1       0.002  -0.004   0.002  0.00  0.00    -0.275 OA
ATOM      4  N   UNL     1      -1.191   1.867   0.018  0.00  0.00    -0.265 N 
ATOM      5  C   UNL     1      -2.385   1.155   0.020  0.00  0.00    +0.165 A 
ATOM      6  N   UNL     1      -2.573  -0.148   0.008  0.00  0.00    -0.229 NA
ATOM      7  C   UNL     1      -3.794  -0.693   0.008  0.00  0.00    +0.054 A 
ATOM      8  C   UNL     1      -4.818   0.180   0.032  0.00  0.00    +0.014 A 
ATOM      9  S   UNL     1      -4.017   1.757   0.031  0.00  0.00    -0.057 S 
ATOM     10  C   UNL     1      -6.288  -0.148   0.101  0.00  0.00    +0.044 C 
ATOM     11  C   UNL     1      -6.663  -0.817  -1.236  0.00  0.00    +0.005 C 
ATOM     12  C   UNL     1      -6.226  -2.262  -1.236  0.00  0.00    +0.001 C 
ATOM     13  C   UNL     1      -4.745  -2.522  -1.344  0.00  0.00    +0.006 C 
ATOM     14  C   UNL     1      -4.013  -2.206  -0.036  0.00  0.00    +0.056 C 
ATOM     15  H   UNL     1      -1.204   2.837   0.023  0.00  0.00    +0.157 HD
ENDBRANCH   1   2
BRANCH   1  16
ATOM     16  C   UNL     1       2.457   1.002  -0.016  0.00  0.00    +0.136 C 
BRANCH  16  29
ATOM     17  C   UNL     1       5.578   2.822   3.541  0.00  0.00    +0.001 A 
ATOM     18  C   UNL     1       4.387   2.113   3.570  0.00  0.00    +0.002 A 
ATOM     19  C   UNL     1       3.756   1.750   2.397  0.00  0.00    +0.027 A 
ATOM     20  C   UNL     1       4.317   2.096   1.177  0.00  0.00    +0.059 A 
ATOM     21  C   UNL     1       5.524   2.815   1.147  0.00  0.00    +0.063 A 
ATOM     22  C   UNL     1       6.152   3.175   2.338  0.00  0.00    +0.015 A 
ATOM     23  C   UNL     1       6.093   3.168  -0.166  0.00  0.00    +0.262 A 
ATOM     24  O   UNL     1       7.136   3.789  -0.247  0.00  0.00    -0.267 OA
ATOM     25  N   UNL     1       5.427   2.784  -1.276  0.00  0.00    -0.274 N 
ATOM     26  H   UNL     1       5.796   3.018  -2.175  0.00  0.00    +0.173 HD
ATOM     27  C   UNL     1       4.279   2.093  -1.195  0.00  0.00    +0.330 A 
ATOM     28  O   UNL     1       3.722   1.768  -2.226  0.00  0.00    -0.246 OA
ATOM     29  N   UNL     1       3.715   1.751  -0.024  0.00  0.00    -0.293 N 
ENDBRANCH  16  29
ENDBRANCH   1  16
TORSDOF 3
