REMARK  Name = ZINC39325063
REMARK  10 active torsions:
REMARK  status: ('A' for Active; 'I' for Inactive)
REMARK    1  A    between atoms: C_1  and  C_2
REMARK    2  A    between atoms: C_7  and  C_8
REMARK    3  A    between atoms: C_8  and  C_9
REMARK    4  A    between atoms: C_9  and  N_10
REMARK    5  A    between atoms: N_10  and  C_11
REMARK    6  A    between atoms: N_10  and  S_26
REMARK    7  A    between atoms: C_11  and  C_12
REMARK    8  A    between atoms: C_17  and  C_25
REMARK    9  A    between atoms: C_18  and  C_24
REMARK   10  A    between atoms: S_26  and  C_29
REMARK                            x       y       z     vdW  Elec       q    Type
REMARK                         _______ _______ _______ _____ _____    ______ ____
ROOT
ATOM      1  N   UNL     1      -1.285   2.859   2.724  0.00  0.00    -0.175 NA
ENDROOT
BRANCH   1   2
ATOM      2  S   UNL     1      -0.756   1.684   3.764  0.00  0.00    +0.061 S 
ATOM      3  O   UNL     1      -0.846   2.230   5.073  0.00  0.00    -0.153 OA
ATOM      4  O   UNL     1      -1.421   0.484   3.392  0.00  0.00    -0.153 OA
BRANCH   2   5
ATOM      5  C   UNL     1       0.957   1.432   3.439  0.00  0.00    +0.109 A 
ATOM      6  C   UNL     1       1.351   0.498   2.499  0.00  0.00    +0.032 A 
ATOM      7  C   UNL     1       2.694   0.296   2.242  0.00  0.00    +0.051 A 
ATOM      8  C   UNL     1       3.650   1.032   2.926  0.00  0.00    +0.162 A 
ATOM      9  C   UNL     1       3.254   1.973   3.869  0.00  0.00    +0.164 A 
ATOM     10  C   UNL     1       1.904   2.173   4.120  0.00  0.00    +0.078 A 
ATOM     11  O   UNL     1       4.175   2.712   4.546  0.00  0.00    -0.485 OA
ATOM     12  C   UNL     1       5.523   2.227   4.534  0.00  0.00    +0.270 C 
ATOM     13  C   UNL     1       5.881   1.837   3.094  0.00  0.00    +0.270 C 
ATOM     14  O   UNL     1       4.969   0.821   2.665  0.00  0.00    -0.485 OA
ENDBRANCH   2   5
ENDBRANCH   1   2
BRANCH   1  15
ATOM     15  C   UNL     1      -1.811   2.490   1.408  0.00  0.00    +0.114 C 
BRANCH  15  16
ATOM     16  C   UNL     1      -0.692   2.574   0.368  0.00  0.00    +0.052 C 
BRANCH  16  23
ATOM     17  C   UNL     1      -1.991   4.561  -1.277  0.00  0.00    +0.044 C 
ATOM     18  C   UNL     1      -1.855   3.145  -1.773  0.00  0.00    -0.047 A 
ATOM     19  C   UNL     1      -2.347   2.797  -3.017  0.00  0.00    +0.003 A 
ATOM     20  C   UNL     1      -2.223   1.498  -3.472  0.00  0.00    +0.000 A 
ATOM     21  C   UNL     1      -1.606   0.546  -2.682  0.00  0.00    +0.000 A 
ATOM     22  C   UNL     1      -1.113   0.893  -1.438  0.00  0.00    +0.004 A 
ATOM     23  C   UNL     1      -1.234   2.194  -0.985  0.00  0.00    -0.043 A 
ENDBRANCH  16  23
ENDBRANCH  15  16
ENDBRANCH   1  15
BRANCH   1  24
ATOM     24  C   UNL     1      -1.225   4.269   3.120  0.00  0.00    +0.126 C 
BRANCH  24  25
ATOM     25  C   UNL     1      -2.639   4.779   3.405  0.00  0.00    +0.114 C 
ATOM     26  C   UNL     1      -3.244   3.897   4.480  0.00  0.00    -0.003 C 
ATOM     27  C   UNL     1      -3.662   4.506   5.626  0.00  0.00    -0.007 A 
ATOM     28  C   UNL     1      -4.258   3.730   6.714  0.00  0.00    +0.013 A 
ATOM     29  C   UNL     1      -4.660   4.380   7.837  0.00  0.00    -0.047 A 
ATOM     30  C   UNL     1      -4.517   5.761   7.968  0.00  0.00    -0.046 A 
ATOM     31  C   UNL     1      -3.972   6.537   6.995  0.00  0.00    +0.027 A 
ATOM     32  C   UNL     1      -3.522   5.963   5.792  0.00  0.00    +0.041 A 
ATOM     33  N   UNL     1      -2.989   6.734   4.844  0.00  0.00    -0.284 N 
ATOM     34  C   UNL     1      -2.549   6.261   3.692  0.00  0.00    +0.225 C 
ATOM     35  O   UNL     1      -2.072   7.014   2.865  0.00  0.00    -0.275 OA
ATOM     36  C   UNL     1      -4.985   6.419   9.240  0.00  0.00    +0.044 C 
ATOM     37  C   UNL     1      -5.275   3.591   8.964  0.00  0.00    +0.044 C 
ATOM     38  H   UNL     1      -2.922   7.688   5.008  0.00  0.00    +0.155 HD
ENDBRANCH  24  25
ENDBRANCH   1  24
TORSDOF 7
