REMARK  Name = ZINC04142446
REMARK  5 active torsions:
REMARK  status: ('A' for Active; 'I' for Inactive)
REMARK    1  A    between atoms: C_1  and  C_2
REMARK    2  A    between atoms: C_8  and  O_9
REMARK    3  A    between atoms: C_18  and  C_20
REMARK    4  A    between atoms: C_23  and  S_26
REMARK    5  A    between atoms: S_26  and  N_29
REMARK                            x       y       z     vdW  Elec       q    Type
REMARK                         _______ _______ _______ _____ _____    ______ ____
ROOT
ATOM      1  C   UNL     1      -0.018   1.503   0.010  0.00  0.00    +0.045 C 
ATOM      2  C   UNL     1       0.002  -0.004   0.002  0.00  0.00    -0.031 A 
ATOM      3  C   UNL     1      -0.096  -0.698  -1.167  0.00  0.00    +0.048 A 
ATOM      4  C   UNL     1      -0.074  -2.106  -1.148  0.00  0.00    +0.126 A 
ATOM      5  N   UNL     1       0.042  -2.780  -0.004  0.00  0.00    -0.231 NA
ATOM      6  C   UNL     1       0.139  -2.150   1.152  0.00  0.00    +0.091 A 
ATOM      7  C   UNL     1       0.129  -0.732   1.203  0.00  0.00    +0.084 A 
ATOM      8  C   UNL     1       0.239  -0.090   2.445  0.00  0.00    +0.294 A 
ATOM      9  O   UNL     1       0.359  -0.784   3.579  0.00  0.00    -0.424 OA
ATOM     10  C   UNL     1       0.382  -2.133   3.614  0.00  0.00    +0.141 A 
ATOM     11  C   UNL     1       0.268  -2.877   2.428  0.00  0.00    +0.044 A 
ATOM     12  C   UNL     1       0.292  -4.269   2.469  0.00  0.00    +0.014 A 
ATOM     13  C   UNL     1       0.414  -4.914   3.681  0.00  0.00    +0.001 A 
ATOM     14  C   UNL     1       0.511  -4.182   4.854  0.00  0.00    +0.004 A 
ATOM     15  C   UNL     1       0.508  -2.803   4.825  0.00  0.00    +0.047 A 
ATOM     16  N   UNL     1      -0.172  -2.784  -2.309  0.00  0.00    -0.266 N 
ATOM     17  C   UNL     1      -0.152  -4.113  -2.306  0.00  0.00    +0.249 C 
ATOM     18  O   UNL     1      -0.046  -4.719  -1.252  0.00  0.00    -0.270 OA
ATOM     19  H   UNL     1      -0.256  -2.302  -3.147  0.00  0.00    +0.157 HD
ENDROOT
BRANCH  17  20
ATOM     20  C   UNL     1      -0.260  -4.859  -3.582  0.00  0.00    +0.037 A 
ATOM     21  C   UNL     1      -0.376  -4.169  -4.788  0.00  0.00    +0.015 A 
ATOM     22  C   UNL     1      -0.475  -4.869  -5.973  0.00  0.00    +0.029 A 
ATOM     23  C   UNL     1      -0.460  -6.252  -5.966  0.00  0.00    +0.106 A 
ATOM     24  C   UNL     1      -0.345  -6.942  -4.772  0.00  0.00    +0.029 A 
ATOM     25  C   UNL     1      -0.240  -6.253  -3.581  0.00  0.00    +0.015 A 
BRANCH  23  26
ATOM     26  S   UNL     1      -0.587  -7.139  -7.483  0.00  0.00    +0.061 S 
ATOM     27  O   UNL     1      -1.097  -8.425  -7.160  0.00  0.00    -0.153 OA
ATOM     28  O   UNL     1      -1.232  -6.273  -8.407  0.00  0.00    -0.153 OA
BRANCH  26  29
ATOM     29  N   UNL     1       0.953  -7.369  -8.047  0.00  0.00    -0.177 NA
ATOM     30  C   UNL     1       1.688  -6.452  -8.931  0.00  0.00    +0.109 C 
ATOM     31  C   UNL     1       3.065  -7.089  -9.209  0.00  0.00    +0.018 C 
ATOM     32  C   UNL     1       2.816  -8.594  -8.925  0.00  0.00    +0.018 C 
ATOM     33  C   UNL     1       1.817  -8.523  -7.740  0.00  0.00    +0.109 C 
ENDBRANCH  26  29
ENDBRANCH  23  26
ENDBRANCH  17  20
BRANCH   8  34
ATOM     34  O   UNL     1       0.224   1.252   2.495  0.00  0.00    -0.480 OA
ATOM     35  H   UNL     1       0.305   1.613   3.388  0.00  0.00    +0.295 HD
ENDBRANCH   8  34
TORSDOF 4
