REMARK  Name = ZINC40822669
REMARK  5 active torsions:
REMARK  status: ('A' for Active; 'I' for Inactive)
REMARK    1  A    between atoms: C_1  and  C_2
REMARK    2  A    between atoms: C_6  and  C_7
REMARK    3  A    between atoms: N_14  and  N_15
REMARK    4  A    between atoms: C_16  and  C_18
REMARK    5  A    between atoms: C_21  and  C_24
REMARK                            x       y       z     vdW  Elec       q    Type
REMARK                         _______ _______ _______ _____ _____    ______ ____
ROOT
ATOM      1  C   UNL     1      -0.018   1.503   0.010  0.00  0.00    +0.048 C 
ATOM      2  C   UNL     1       0.002  -0.004   0.002  0.00  0.00    +0.009 A 
ATOM      3  C   UNL     1       0.009  -0.838  -1.123  0.00  0.00    +0.042 A 
ATOM      4  C   UNL     1       0.027  -2.138  -0.672  0.00  0.00    +0.115 A 
ATOM      5  O   UNL     1       0.035  -2.112   0.658  0.00  0.00    -0.454 OA
ATOM      6  C   UNL     1       0.024  -0.830   1.091  0.00  0.00    +0.193 A 
ATOM      7  C   UNL     1       0.034  -3.327  -1.599  0.00  0.00    +0.075 C 
ATOM      8  C   UNL     1      -0.491  -2.903  -2.974  0.00  0.00    +0.014 C 
ATOM      9  C   UNL     1       0.279  -1.685  -3.495  0.00  0.00    +0.058 C 
ATOM     10  C   UNL     1       0.000  -0.512  -2.566  0.00  0.00    +0.070 C 
ATOM     11  N   UNL     1      -0.229   0.686  -3.008  0.00  0.00    -0.184 NA
ENDROOT
BRANCH   6  12
ATOM     12  C   UNL     1       0.031  -0.399   2.493  0.00  0.00    +0.277 C 
ATOM     13  O   UNL     1       0.016   0.786   2.766  0.00  0.00    -0.267 OA
ATOM     14  N   UNL     1       0.053  -1.317   3.480  0.00  0.00    -0.323 N 
ATOM     15  H   UNL     1       0.065  -2.263   3.263  0.00  0.00    +0.145 HD
ATOM     16  H   UNL     1       0.058  -1.032   4.407  0.00  0.00    +0.145 HD
ENDBRANCH   6  12
BRANCH  11  17
ATOM     17  N   UNL     1      -0.224   0.938  -4.386  0.00  0.00    -0.203 N 
ATOM     18  C   UNL     1      -0.462   2.182  -4.845  0.00  0.00    +0.263 C 
ATOM     19  O   UNL     1      -0.680   3.087  -4.062  0.00  0.00    -0.268 OA
ATOM     20  H   UNL     1      -0.050   0.216  -5.010  0.00  0.00    +0.178 HD
BRANCH  18  21
ATOM     21  C   UNL     1      -0.457   2.447  -6.297  0.00  0.00    +0.038 A 
ATOM     22  C   UNL     1      -0.212   1.407  -7.197  0.00  0.00    +0.014 A 
ATOM     23  C   UNL     1      -0.209   1.655  -8.551  0.00  0.00    +0.009 A 
ATOM     24  C   UNL     1      -0.450   2.945  -9.025  0.00  0.00    -0.018 A 
ATOM     25  C   UNL     1      -0.695   3.984  -8.128  0.00  0.00    +0.009 A 
ATOM     26  C   UNL     1      -0.704   3.738  -6.774  0.00  0.00    +0.014 A 
BRANCH  24  27
ATOM     27  C   UNL     1      -0.445   3.211 -10.484  0.00  0.00    -0.018 A 
ATOM     28  C   UNL     1      -0.206   2.173 -11.383  0.00  0.00    +0.008 A 
ATOM     29  C   UNL     1      -0.203   2.426 -12.740  0.00  0.00    +0.001 A 
ATOM     30  C   UNL     1      -0.436   3.708 -13.207  0.00  0.00    +0.000 A 
ATOM     31  C   UNL     1      -0.674   4.741 -12.319  0.00  0.00    +0.001 A 
ATOM     32  C   UNL     1      -0.685   4.498 -10.961  0.00  0.00    +0.008 A 
ENDBRANCH  24  27
ENDBRANCH  18  21
ENDBRANCH  11  17
TORSDOF 4
