REMARK  Name = ZINC08199942
REMARK  9 active torsions:
REMARK  status: ('A' for Active; 'I' for Inactive)
REMARK    1  A    between atoms: C_1  and  C_2
REMARK    2  A    between atoms: C_3  and  N_14
REMARK    3  A    between atoms: C_4  and  C_13
REMARK    4  A    between atoms: N_5  and  C_7
REMARK    5  A    between atoms: C_15  and  C_17
REMARK    6  A    between atoms: C_17  and  N_49
REMARK    7  A    between atoms: C_18  and  C_20
REMARK    8  A    between atoms: C_18  and  C_21
REMARK    9  A    between atoms: C_18  and  N_49
REMARK                            x       y       z     vdW  Elec       q    Type
REMARK                         _______ _______ _______ _____ _____    ______ ____
ROOT
ATOM      1  N   UNL     1       1.818   6.948   0.857  0.00  0.00    -0.284 N 
ATOM      2  C   UNL     1       0.944   7.971   0.783  0.00  0.00    +0.200 C 
ATOM      3  O   UNL     1      -0.192   7.773   0.407  0.00  0.00    -0.278 OA
ATOM      4  H   UNL     1       2.707   7.094   1.216  0.00  0.00    +0.155 HD
ENDROOT
BRANCH   1   7
ATOM      5  C   UNL     1       1.401   6.170  -2.131  0.00  0.00    +0.069 C 
ATOM      6  C   UNL     1       1.244   5.281  -0.923  0.00  0.00    +0.082 A 
ATOM      7  C   UNL     1       1.441   5.667   0.411  0.00  0.00    +0.078 A 
ATOM      8  C   UNL     1       1.198   4.587   1.197  0.00  0.00    +0.063 A 
ATOM      9  N   UNL     1       0.867   3.551   0.379  0.00  0.00    -0.235 N 
ATOM     10  N   UNL     1       0.902   4.018  -0.941  0.00  0.00    -0.170 NA
ATOM     11  C   UNL     1       1.281   4.543   2.701  0.00  0.00    +0.068 C 
BRANCH   9  12
ATOM     12  C   UNL     1       0.544   2.250   0.785  0.00  0.00    +0.066 A 
ATOM     13  C   UNL     1      -0.415   1.523   0.093  0.00  0.00    +0.028 A 
ATOM     14  C   UNL     1      -0.732   0.240   0.496  0.00  0.00    +0.002 A 
ATOM     15  C   UNL     1      -0.094  -0.321   1.587  0.00  0.00    +0.000 A 
ATOM     16  C   UNL     1       0.862   0.401   2.279  0.00  0.00    +0.002 A 
ATOM     17  C   UNL     1       1.182   1.684   1.881  0.00  0.00    +0.028 A 
ENDBRANCH   9  12
ENDBRANCH   1   7
BRANCH   2  18
ATOM     18  C   UNL     1       1.378   9.362   1.169  0.00  0.00    +0.016 C 
BRANCH  18  19
ATOM     19  N   UNL     1       0.241  10.287   1.000  0.00  0.00    +0.389 N 
ATOM     20  H   UNL     1      -0.534   9.985   1.600  0.00  0.00    -0.084 HD
ATOM     21  H   UNL     1      -0.061  10.276   0.018  0.00  0.00    -0.084 HD
BRANCH  19  22
ATOM     22  C   UNL     1       0.638  11.659   1.371  0.00  0.00    -0.043 C 
ATOM     23  C   UNL     1       0.483  11.844   2.882  0.00  0.00    -0.009 C 
BRANCH  22  24
ATOM     24  C   UNL     1      -0.248  12.642   0.650  0.00  0.00    -0.062 A 
ATOM     25  C   UNL     1      -1.597  12.378   0.504  0.00  0.00    +0.003 A 
ATOM     26  C   UNL     1      -2.412  13.282  -0.152  0.00  0.00    +0.020 A 
ATOM     27  C   UNL     1      -1.874  14.446  -0.672  0.00  0.00    +0.041 A 
ATOM     28  C   UNL     1      -0.523  14.707  -0.530  0.00  0.00    +0.020 A 
ATOM     29  C   UNL     1       0.289  13.805   0.131  0.00  0.00    +0.003 A 
ATOM     30 CL   UNL     1      -2.895  15.578  -1.502  0.00  0.00    -0.084 Cl
ENDBRANCH  22  24
ENDBRANCH  19  22
ENDBRANCH  18  19
ENDBRANCH   2  18
TORSDOF 6
