REMARK  Name = ZINC21607811
REMARK  10 active torsions:
REMARK  status: ('A' for Active; 'I' for Inactive)
REMARK    1  A    between atoms: C_1  and  C_2
REMARK    2  A    between atoms: C_2  and  O_3
REMARK    3  A    between atoms: O_3  and  C_4
REMARK    4  A    between atoms: C_12  and  C_14
REMARK    5  A    between atoms: C_14  and  O_15
REMARK    6  A    between atoms: O_15  and  C_16
REMARK    7  A    between atoms: C_16  and  C_18
REMARK    8  A    between atoms: C_19  and  C_32
REMARK    9  A    between atoms: N_21  and  C_24
REMARK   10  A    between atoms: C_24  and  C_25
REMARK                            x       y       z     vdW  Elec       q    Type
REMARK                         _______ _______ _______ _____ _____    ______ ____
ROOT
ATOM      1  C   UNL     1       0.474   5.149   4.709  0.00  0.00    +0.344 C 
ATOM      2  O   UNL     1       0.135   6.301   4.894  0.00  0.00    -0.245 OA
ENDROOT
BRANCH   1   3
ATOM      3  C   UNL     1       1.105   4.763   3.437  0.00  0.00    +0.118 A 
ATOM      4  C   UNL     1       2.490   4.773   3.150  0.00  0.00    +0.075 A 
ATOM      5  N   UNL     1       2.650   4.364   1.921  0.00  0.00    -0.174 NA
ATOM      6  N   UNL     1       1.396   4.077   1.370  0.00  0.00    -0.248 N 
ATOM      7  C   UNL     1       0.456   4.326   2.296  0.00  0.00    +0.142 A 
ATOM      8 CL   UNL     1      -1.258   4.133   2.099  0.00  0.00    -0.061 Cl
ATOM      9  C   UNL     1       3.588   5.183   4.096  0.00  0.00    +0.068 C 
BRANCH   6  10
ATOM     10  C   UNL     1       1.150   3.592   0.010  0.00  0.00    +0.181 C 
BRANCH  10  11
ATOM     11  C   UNL     1       1.171   2.086   0.002  0.00  0.00    -0.008 A 
ATOM     12  C   UNL     1      -0.017   1.378   0.010  0.00  0.00    +0.007 A 
ATOM     13  C   UNL     1       0.002  -0.004   0.002  0.00  0.00    +0.000 A 
ATOM     14  C   UNL     1       1.208  -0.680  -0.013  0.00  0.00    +0.001 A 
ATOM     15  C   UNL     1       2.396   0.027  -0.021  0.00  0.00    +0.020 A 
ATOM     16  C   UNL     1       2.378   1.410  -0.013  0.00  0.00    +0.046 A 
ATOM     17 CL   UNL     1       3.870   2.298  -0.023  0.00  0.00    -0.083 Cl
ENDBRANCH  10  11
ENDBRANCH   6  10
ENDBRANCH   1   3
BRANCH   1  18
ATOM     18  O   UNL     1       0.271   4.224   5.669  0.00  0.00    -0.452 OA
BRANCH  18  19
ATOM     19  C   UNL     1      -0.357   4.676   6.897  0.00  0.00    +0.328 C 
BRANCH  19  28
ATOM     20  C   UNL     1      -3.717   3.976  12.021  0.00  0.00    +0.403 C 
ATOM     21  O   UNL     1      -3.834   3.038  12.785  0.00  0.00    -0.226 OA
ATOM     22  N   UNL     1      -3.157   3.792  10.809  0.00  0.00    -0.264 N 
ATOM     23  C   UNL     1      -2.683   2.463  10.398  0.00  0.00    +0.130 C 
ATOM     24  C   UNL     1      -1.208   2.573   9.992  0.00  0.00    +0.127 C 
ATOM     25  N   UNL     1      -1.061   3.697   9.057  0.00  0.00    -0.296 N 
ATOM     26  C   UNL     1      -1.530   5.028   9.470  0.00  0.00    +0.127 C 
ATOM     27  C   UNL     1      -3.010   4.917   9.874  0.00  0.00    +0.130 C 
ATOM     28  C   UNL     1      -0.501   3.514   7.845  0.00  0.00    +0.253 C 
ATOM     29  O   UNL     1      -0.113   2.412   7.517  0.00  0.00    -0.272 OA
BRANCH  20  30
ATOM     30  O   UNL     1      -4.147   5.198  12.385  0.00  0.00    -0.451 OA
BRANCH  30  32
ATOM     31  C   UNL     1      -5.166   6.773  13.938  0.00  0.00    +0.048 C 
ATOM     32  C   UNL     1      -4.740   5.322  13.705  0.00  0.00    +0.230 C 
ENDBRANCH  30  32
ENDBRANCH  20  30
ENDBRANCH  19  28
ENDBRANCH  18  19
ENDBRANCH   1  18
TORSDOF 8
