REMARK  Name = ZINC02874278
REMARK  13 active torsions:
REMARK  status: ('A' for Active; 'I' for Inactive)
REMARK    1  A    between atoms: C_1  and  C_2
REMARK    2  A    between atoms: C_2  and  O_3
REMARK    3  A    between atoms: O_3  and  C_4
REMARK    4  A    between atoms: C_6  and  C_23
REMARK    5  A    between atoms: C_9  and  O_10
REMARK    6  A    between atoms: O_10  and  C_11
REMARK    7  A    between atoms: C_11  and  C_12
REMARK    8  A    between atoms: C_12  and  C_13
REMARK    9  A    between atoms: C_13  and  O_14
REMARK   10  A    between atoms: O_14  and  C_15
REMARK   11  A    between atoms: C_17  and  C_22
REMARK   12  A    between atoms: C_20  and  C_21
REMARK   13  A    between atoms: N_27  and  C_31
REMARK                            x       y       z     vdW  Elec       q    Type
REMARK                         _______ _______ _______ _____ _____    ______ ____
ROOT
ATOM      1  C   UNL     1       5.789   9.895   0.372  0.00  0.00    +0.162 A 
ATOM      2  C   UNL     1       6.015  11.238   0.146  0.00  0.00    +0.057 A 
ATOM      3  C   UNL     1       4.959  12.151   0.261  0.00  0.00    -0.020 A 
ATOM      4  C   UNL     1       3.679  11.694   0.599  0.00  0.00    +0.012 A 
ATOM      5  C   UNL     1       3.462  10.352   0.817  0.00  0.00    +0.050 A 
ATOM      6  C   UNL     1       4.510   9.448   0.702  0.00  0.00    +0.162 A 
ENDROOT
BRANCH   3   7
ATOM      7  C   UNL     1       5.193  13.581   0.028  0.00  0.00    +0.028 C 
ATOM      8  C   UNL     1       4.268  14.322  -0.634  0.00  0.00    +0.077 C 
ATOM      9  C   UNL     1       3.046  13.888  -1.342  0.00  0.00    +0.258 C 
ATOM     10  O   UNL     1       2.726  12.715  -1.404  0.00  0.00    -0.269 OA
ATOM     11  N   UNL     1       2.317  14.838  -1.903  0.00  0.00    -0.258 N 
ATOM     12  C   UNL     1       2.680  16.135  -1.838  0.00  0.00    +0.120 C 
ATOM     13  S   UNL     1       1.881  17.497  -2.499  0.00  0.00    -0.027 S 
ATOM     14  S   UNL     1       4.196  16.088  -0.896  0.00  0.00    -0.061 S 
ATOM     15  C   UNL     1       1.091  14.472  -2.616  0.00  0.00    +0.139 C 
ENDBRANCH   3   7
BRANCH   1  16
ATOM     16  O   UNL     1       6.813   9.006   0.266  0.00  0.00    -0.489 OA
BRANCH  16  18
ATOM     17  C   UNL     1       9.113   8.393  -0.148  0.00  0.00    +0.048 C 
ATOM     18  C   UNL     1       8.096   9.533  -0.076  0.00  0.00    +0.226 C 
ENDBRANCH  16  18
ENDBRANCH   1  16
BRANCH   6  19
ATOM     19  O   UNL     1       4.290   8.125   0.919  0.00  0.00    -0.488 OA
BRANCH  19  20
ATOM     20  C   UNL     1       2.958   7.736   1.260  0.00  0.00    +0.232 C 
BRANCH  20  21
ATOM     21  C   UNL     1       2.905   6.221   1.464  0.00  0.00    +0.082 C 
BRANCH  21  22
ATOM     22  C   UNL     1       1.479   5.805   1.830  0.00  0.00    +0.232 C 
BRANCH  22  23
ATOM     23  O   UNL     1       1.430   4.389   2.020  0.00  0.00    -0.492 OA
BRANCH  23  24
ATOM     24  C   UNL     1       0.226   3.853   2.352  0.00  0.00    +0.124 A 
ATOM     25  C   UNL     1      -0.885   4.672   2.492  0.00  0.00    +0.049 A 
ATOM     26  C   UNL     1      -2.107   4.124   2.829  0.00  0.00    -0.047 A 
ATOM     27  C   UNL     1      -2.225   2.760   3.023  0.00  0.00    +0.004 A 
ATOM     28  C   UNL     1      -1.118   1.943   2.890  0.00  0.00    +0.007 A 
ATOM     29  C   UNL     1       0.106   2.486   2.552  0.00  0.00    -0.009 A 
ATOM     30  C   UNL     1       1.311   1.593   2.401  0.00  0.00    +0.047 C 
ATOM     31  C   UNL     1      -3.315   5.013   2.981  0.00  0.00    +0.044 C 
ENDBRANCH  23  24
ENDBRANCH  22  23
ENDBRANCH  21  22
ENDBRANCH  20  21
ENDBRANCH  19  20
ENDBRANCH   6  19
TORSDOF 9
