REMARK  Name = ZINC34748065
REMARK  6 active torsions:
REMARK  status: ('A' for Active; 'I' for Inactive)
REMARK    1  A    between atoms: C_1  and  N_2
REMARK    2  A    between atoms: N_2  and  C_3
REMARK    3  A    between atoms: C_4  and  C_6
REMARK    4  A    between atoms: C_6  and  N_7
REMARK    5  A    between atoms: N_20  and  C_23
REMARK    6  A    between atoms: C_23  and  C_24
REMARK                            x       y       z     vdW  Elec       q    Type
REMARK                         _______ _______ _______ _____ _____    ______ ____
ROOT
ATOM      1  N   UNL     1      -2.478  -2.806  -0.001  0.00  0.00    -0.271 N 
ATOM      2  C   UNL     1      -3.051  -3.135   1.172  0.00  0.00    +0.264 A 
ATOM      3  O   UNL     1      -2.409  -3.099   2.207  0.00  0.00    -0.267 OA
ATOM      4  C   UNL     1      -4.427  -3.526   1.184  0.00  0.00    +0.076 A 
ATOM      5  C   UNL     1      -5.246  -3.922   2.342  0.00  0.00    -0.023 A 
ATOM      6  C   UNL     1      -6.525  -4.251   2.097  0.00  0.00    -0.004 A 
ATOM      7  S   UNL     1      -6.722  -4.056   0.340  0.00  0.00    -0.073 S 
ATOM      8  C   UNL     1      -5.075  -3.534  -0.059  0.00  0.00    +0.117 A 
ATOM      9  N   UNL     1      -4.450  -3.199  -1.183  0.00  0.00    -0.208 NA
ATOM     10  C   UNL     1      -3.184  -2.836  -1.167  0.00  0.00    +0.202 A 
ATOM     11  N   UNL     1      -2.565  -2.488  -2.342  0.00  0.00    -0.304 N 
ATOM     12  C   UNL     1      -1.883  -3.499  -3.165  0.00  0.00    +0.089 C 
ATOM     13  C   UNL     1      -2.381  -3.367  -4.608  0.00  0.00    -0.059 C 
ATOM     14  N   UNL     1      -2.193  -1.984  -5.065  0.00  0.00    +0.387 N 
ATOM     15  C   UNL     1      -3.032  -1.077  -4.273  0.00  0.00    -0.059 C 
ATOM     16  C   UNL     1      -2.571  -1.096  -2.816  0.00  0.00    +0.089 C 
ATOM     17  C   UNL     1      -7.261  -4.643   3.350  0.00  0.00    +0.043 C 
ATOM     18  C   UNL     1      -6.147  -4.932   4.380  0.00  0.00    +0.010 C 
ATOM     19  C   UNL     1      -4.994  -4.060   3.846  0.00  0.00    +0.037 C 
ATOM     20  H   UNL     1      -1.224  -1.725  -4.957  0.00  0.00    -0.081 HD
ENDROOT
BRANCH   1  21
ATOM     21  C   UNL     1      -1.070  -2.402  -0.024  0.00  0.00    +0.224 C 
BRANCH  21  25
ATOM     22  C   UNL     1       0.347   1.099   0.604  0.00  0.00    +0.131 C 
ATOM     23  N   UNL     1       0.244  -0.333   0.311  0.00  0.00    -0.306 N 
ATOM     24  C   UNL     1       1.455  -1.117   0.053  0.00  0.00    +0.131 C 
ATOM     25  C   UNL     1      -0.964  -0.929   0.278  0.00  0.00    +0.235 C 
ATOM     26  O   UNL     1      -1.966  -0.281   0.491  0.00  0.00    -0.274 OA
ENDBRANCH  21  25
ENDBRANCH   1  21
BRANCH  14  27
ATOM     27  C   UNL     1      -2.568  -1.884  -6.482  0.00  0.00    +0.019 C 
BRANCH  27  28
ATOM     28  C   UNL     1      -2.260  -0.498  -6.986  0.00  0.00    +0.199 C 
ATOM     29  O   UNL     1      -1.776   0.326  -6.239  0.00  0.00    -0.278 OA
ATOM     30  N   UNL     1      -2.523  -0.173  -8.268  0.00  0.00    -0.300 N 
ATOM     31  C   UNL     1      -3.039  -0.576  -9.578  0.00  0.00    +0.126 C 
ATOM     32  C   UNL     1      -2.500   0.834  -9.331  0.00  0.00    +0.126 C 
ENDBRANCH  27  28
ENDBRANCH  14  27
TORSDOF 4
