REMARK  Name = ZINC24950764
REMARK  7 active torsions:
REMARK  status: ('A' for Active; 'I' for Inactive)
REMARK    1  A    between atoms: C_1  and  C_2
REMARK    2  A    between atoms: C_2  and  C_3
REMARK    3  A    between atoms: C_3  and  C_4
REMARK    4  A    between atoms: C_4  and  C_31
REMARK    5  A    between atoms: N_7  and  C_11
REMARK    6  A    between atoms: C_11  and  C_12
REMARK    7  A    between atoms: C_25  and  C_27
REMARK                            x       y       z     vdW  Elec       q    Type
REMARK                         _______ _______ _______ _____ _____    ______ ____
ROOT
ATOM      1  C   UNL     1       4.405   2.174   0.986  0.00  0.00    +0.238 C 
ATOM      2  O   UNL     1       5.441   2.803   0.929  0.00  0.00    -0.273 OA
ATOM      3  N   UNL     1       3.589   2.121  -0.086  0.00  0.00    -0.256 N 
ATOM      4  C   UNL     1       2.390   1.397  -0.034  0.00  0.00    +0.058 A 
ATOM      5  C   UNL     1       2.400   0.012  -0.037  0.00  0.00    +0.025 A 
ATOM      6  C   UNL     1       1.206  -0.685  -0.016  0.00  0.00    +0.002 A 
ATOM      7  C   UNL     1       0.002  -0.004   0.002  0.00  0.00    +0.002 A 
ATOM      8  C   UNL     1      -0.017   1.379   0.010  0.00  0.00    +0.025 A 
ATOM      9  C   UNL     1       1.175   2.084   0.002  0.00  0.00    +0.055 A 
ATOM     10  N   UNL     1       1.182   3.482   0.062  0.00  0.00    -0.284 N 
ATOM     11  C   UNL     1       1.938   4.200  -0.796  0.00  0.00    +0.219 C 
ATOM     12  O   UNL     1       2.002   5.406  -0.680  0.00  0.00    -0.275 OA
ATOM     13  C   UNL     1       2.702   3.513  -1.897  0.00  0.00    +0.128 C 
ATOM     14  C   UNL     1       3.939   2.819  -1.324  0.00  0.00    +0.194 C 
ATOM     15  H   UNL     1       0.568   4.003   0.812  0.00  0.00    +0.155 HD
ENDROOT
BRANCH  14  16
ATOM     16  C   UNL     1       4.473   1.810  -2.343  0.00  0.00    +0.409 C 
ATOM     17  F   UNL     1       3.490   0.852  -2.609  0.00  0.00    -0.169 F 
ATOM     18  F   UNL     1       4.808   2.476  -3.527  0.00  0.00    -0.169 F 
ATOM     19  F   UNL     1       5.610   1.181  -1.824  0.00  0.00    -0.169 F 
ENDBRANCH  14  16
BRANCH   1  20
ATOM     20  C   UNL     1       4.032   1.451   2.254  0.00  0.00    +0.214 C 
BRANCH  20  24
ATOM     21  C   UNL     1       6.332   2.494   4.977  0.00  0.00    +0.138 C 
ATOM     22  C   UNL     1       5.079   2.680   4.144  0.00  0.00    +0.251 C 
ATOM     23  O   UNL     1       4.254   3.562   4.249  0.00  0.00    -0.272 OA
ATOM     24  N   UNL     1       5.074   1.661   3.261  0.00  0.00    -0.215 N 
ATOM     25  C   UNL     1       6.135   0.863   3.423  0.00  0.00    +0.310 C 
ATOM     26  O   UNL     1       6.347  -0.125   2.747  0.00  0.00    -0.252 OA
ATOM     27  N   UNL     1       6.944   1.278   4.415  0.00  0.00    -0.281 N 
ATOM     28  H   UNL     1       7.889   0.895   4.829  0.00  0.00    +0.152 HD
BRANCH  21  29
ATOM     29  C   UNL     1       7.254   3.674   4.818  0.00  0.00    -0.015 A 
ATOM     30  C   UNL     1       7.149   4.754   5.675  0.00  0.00    +0.006 A 
ATOM     31  C   UNL     1       7.999   5.835   5.532  0.00  0.00    +0.000 A 
ATOM     32  C   UNL     1       8.947   5.841   4.526  0.00  0.00    +0.000 A 
ATOM     33  C   UNL     1       9.049   4.763   3.667  0.00  0.00    +0.000 A 
ATOM     34  C   UNL     1       8.203   3.680   3.812  0.00  0.00    +0.006 A 
ENDBRANCH  21  29
BRANCH  21  35
ATOM     35  C   UNL     1       5.972   2.284   6.450  0.00  0.00    +0.040 C 
BRANCH  35  37
ATOM     36  C   UNL     1       4.826   0.771   8.074  0.00  0.00    +0.004 C 
ATOM     37  C   UNL     1       5.185   0.981   6.602  0.00  0.00    -0.000 C 
ENDBRANCH  35  37
ENDBRANCH  21  35
ENDBRANCH  20  24
ENDBRANCH   1  20
TORSDOF 6
