REMARK  Name = ZINC66833512
REMARK  7 active torsions:
REMARK  status: ('A' for Active; 'I' for Inactive)
REMARK    1  A    between atoms: C_1  and  O_2
REMARK    2  A    between atoms: O_2  and  C_3
REMARK    3  A    between atoms: C_3  and  C_5
REMARK    4  A    between atoms: N_10  and  C_12
REMARK    5  A    between atoms: C_12  and  C_13
REMARK    6  A    between atoms: N_15  and  C_16
REMARK    7  A    between atoms: N_19  and  C_22
REMARK                            x       y       z     vdW  Elec       q    Type
REMARK                         _______ _______ _______ _____ _____    ______ ____
ROOT
ATOM      1  C   UNL     1      -4.223  -5.990   0.210  0.00  0.00    +0.197 C 
ATOM      2  O   UNL     1      -3.196  -6.636   0.225  0.00  0.00    -0.278 OA
ATOM      3  N   UNL     1      -5.413  -6.614   0.305  0.00  0.00    -0.314 N 
ATOM      4  H   UNL     1      -6.234  -6.097   0.293  0.00  0.00    +0.149 HD
ENDROOT
BRANCH   3   5
ATOM      5  C   UNL     1      -5.468  -8.073   0.424  0.00  0.00    +0.069 C 
ATOM      6  C   UNL     1      -5.424  -8.703  -0.971  0.00  0.00    +0.003 C 
ATOM      7  C   UNL     1      -5.562 -10.222  -0.843  0.00  0.00    -0.077 C 
ATOM      8  N   UNL     1      -6.839 -10.548  -0.197  0.00  0.00    +0.382 N 
ATOM      9  C   UNL     1      -6.859 -10.008   1.168  0.00  0.00    -0.077 C 
ATOM     10  C   UNL     1      -6.771  -8.481   1.117  0.00  0.00    +0.003 C 
ATOM     11  H   UNL     1      -7.596 -10.146  -0.728  0.00  0.00    -0.081 HD
BRANCH   8  12
ATOM     12  C   UNL     1      -7.001 -12.008  -0.147  0.00  0.00    -0.069 C 
ATOM     13  C   UNL     1      -8.092 -12.627  -1.022  0.00  0.00    -0.017 C 
ATOM     14  C   UNL     1      -8.278 -12.554   0.494  0.00  0.00    -0.017 C 
ENDBRANCH   8  12
ENDBRANCH   3   5
BRANCH   1  15
ATOM     15  C   UNL     1      -4.166  -4.489   0.087  0.00  0.00    +0.019 C 
BRANCH  15  20
ATOM     16  C   UNL     1      -1.244  -2.135   0.003  0.00  0.00    +0.081 C 
ATOM     17  C   UNL     1      -0.556  -2.668  -1.258  0.00  0.00    +0.011 C 
ATOM     18  C   UNL     1      -0.690  -4.193  -1.295  0.00  0.00    -0.018 C 
ATOM     19  C   UNL     1      -2.171  -4.571  -1.239  0.00  0.00    -0.078 C 
ATOM     20  N   UNL     1      -2.765  -4.057   0.001  0.00  0.00    +0.386 N 
ATOM     21  C   UNL     1      -2.705  -2.590   0.012  0.00  0.00    -0.064 C 
ATOM     22  H   UNL     1      -2.254  -4.418   0.792  0.00  0.00    -0.081 HD
BRANCH  16  23
ATOM     23  C   UNL     1      -1.185  -0.630   0.010  0.00  0.00    +0.308 C 
ATOM     24  O   UNL     1      -2.208   0.015   0.023  0.00  0.00    -0.251 OA
BRANCH  23  26
ATOM     25  C   UNL     1      -0.017   1.425   0.010  0.00  0.00    +0.280 C 
ATOM     26  O   UNL     1       0.002  -0.004   0.002  0.00  0.00    -0.468 OA
ENDBRANCH  23  26
ENDBRANCH  16  23
ENDBRANCH  15  20
ENDBRANCH   1  15
TORSDOF 6
