REMARK  Name = ZINC06355724
REMARK  13 active torsions:
REMARK  status: ('A' for Active; 'I' for Inactive)
REMARK    1  A    between atoms: C_1  and  C_2
REMARK    2  A    between atoms: C_2  and  C_3
REMARK    3  A    between atoms: C_3  and  O_4
REMARK    4  A    between atoms: O_4  and  C_5
REMARK    5  A    between atoms: C_8  and  C_14
REMARK    6  A    between atoms: C_10  and  O_11
REMARK    7  A    between atoms: O_11  and  C_12
REMARK    8  A    between atoms: C_12  and  C_13
REMARK    9  A    between atoms: C_16  and  C_28
REMARK   10  A    between atoms: N_20  and  C_21
REMARK   11  A    between atoms: C_21  and  C_22
REMARK   12  A    between atoms: C_28  and  C_30
REMARK   13  A    between atoms: C_33  and  C_35
REMARK                            x       y       z     vdW  Elec       q    Type
REMARK                         _______ _______ _______ _____ _____    ______ ____
ROOT
ATOM      1  C   UNL     1      -5.807  -4.419   0.938  0.00  0.00    +0.145 C 
ATOM      2  C   UNL     1      -6.359  -4.601   2.333  0.00  0.00    +0.079 C 
ATOM      3  C   UNL     1      -7.578  -4.015   2.350  0.00  0.00    +0.249 C 
ATOM      4  C   UNL     1      -7.863  -3.448   1.017  0.00  0.00    +0.288 C 
ATOM      5  O   UNL     1      -8.880  -2.856   0.714  0.00  0.00    -0.266 OA
ATOM      6  N   UNL     1      -6.829  -3.682   0.186  0.00  0.00    -0.276 N 
ATOM      7  O   UNL     1      -8.405  -3.958   3.420  0.00  0.00    -0.282 OA
ENDROOT
BRANCH   1  11
ATOM      8  C   UNL     1      -2.170  -2.173   1.071  0.00  0.00    +0.162 A 
ATOM      9  C   UNL     1      -2.186  -3.439   0.508  0.00  0.00    +0.050 A 
ATOM     10  C   UNL     1      -3.363  -4.162   0.467  0.00  0.00    +0.009 A 
ATOM     11  C   UNL     1      -4.527  -3.626   0.986  0.00  0.00    -0.019 A 
ATOM     12  C   UNL     1      -4.518  -2.363   1.549  0.00  0.00    +0.055 A 
ATOM     13  C   UNL     1      -3.340  -1.635   1.599  0.00  0.00    +0.162 A 
BRANCH   8  14
ATOM     14  O   UNL     1      -1.013  -1.460   1.113  0.00  0.00    -0.488 OA
BRANCH  14  15
ATOM     15  C   UNL     1       0.148  -2.075   0.552  0.00  0.00    +0.229 C 
BRANCH  15  17
ATOM     16  C   UNL     1       2.587  -1.787   0.089  0.00  0.00    +0.007 C 
ATOM     17  C   UNL     1       1.343  -1.129   0.690  0.00  0.00    +0.038 C 
ENDBRANCH  15  17
ENDBRANCH  14  15
ENDBRANCH   8  14
BRANCH  13  18
ATOM     18  O   UNL     1      -3.329  -0.395   2.158  0.00  0.00    -0.489 OA
BRANCH  18  19
ATOM     19  C   UNL     1      -4.547   0.061   2.750  0.00  0.00    +0.226 C 
ATOM     20  C   UNL     1      -4.309   1.409   3.433  0.00  0.00    +0.048 C 
ENDBRANCH  18  19
ENDBRANCH  13  18
ENDBRANCH   1  11
BRANCH   2  21
ATOM     21  C   UNL     1      -5.699  -5.282   3.453  0.00  0.00    +0.230 C 
ATOM     22  O   UNL     1      -6.208  -5.267   4.560  0.00  0.00    -0.283 OA
BRANCH  21  23
ATOM     23  C   UNL     1      -4.427  -5.980   3.240  0.00  0.00    +0.175 A 
ATOM     24  C   UNL     1      -3.641  -6.551   4.218  0.00  0.00    +0.053 A 
ATOM     25  C   UNL     1      -2.530  -7.103   3.565  0.00  0.00    +0.045 A 
ATOM     26  C   UNL     1      -2.678  -6.853   2.244  0.00  0.00    +0.103 A 
ATOM     27  O   UNL     1      -3.821  -6.182   2.052  0.00  0.00    -0.457 OA
ATOM     28  C   UNL     1      -1.714  -7.267   1.161  0.00  0.00    +0.086 C 
ENDBRANCH  21  23
ENDBRANCH   2  21
BRANCH   6  29
ATOM     29  C   UNL     1      -6.740  -3.274  -1.218  0.00  0.00    +0.183 C 
BRANCH  29  30
ATOM     30  C   UNL     1      -7.305  -4.363  -2.094  0.00  0.00    +0.122 A 
ATOM     31  C   UNL     1      -8.588  -4.471  -2.486  0.00  0.00    +0.046 A 
ATOM     32  C   UNL     1      -8.673  -5.631  -3.291  0.00  0.00    +0.041 A 
ATOM     33  C   UNL     1      -7.438  -6.161  -3.343  0.00  0.00    +0.195 A 
ATOM     34  O   UNL     1      -6.613  -5.386  -2.621  0.00  0.00    -0.466 OA
ENDBRANCH  29  30
ENDBRANCH   6  29
TORSDOF 10
