REMARK  Name = ZINC41387634
REMARK  9 active torsions:
REMARK  status: ('A' for Active; 'I' for Inactive)
REMARK    1  A    between atoms: C_1  and  C_2
REMARK    2  A    between atoms: C_4  and  C_9
REMARK    3  A    between atoms: C_9  and  S_10
REMARK    4  A    between atoms: S_10  and  C_11
REMARK    5  A    between atoms: C_14  and  C_19
REMARK    6  A    between atoms: N_15  and  C_16
REMARK    7  A    between atoms: C_16  and  C_17
REMARK    8  A    between atoms: C_16  and  C_18
REMARK    9  A    between atoms: N_23  and  C_24
REMARK                            x       y       z     vdW  Elec       q    Type
REMARK                         _______ _______ _______ _____ _____    ______ ____
ROOT
ATOM      1  C   UNL     1      -1.833  -1.801  -6.118  0.00  0.00    +0.193 A 
ATOM      2  N   UNL     1      -3.124  -2.048  -6.104  0.00  0.00    -0.122 NA
ATOM      3  N   UNL     1      -3.426  -2.874  -7.041  0.00  0.00    -0.127 NA
ATOM      4  C   UNL     1      -2.345  -3.207  -7.711  0.00  0.00    +0.183 A 
ATOM      5  N   UNL     1      -1.293  -2.525  -7.143  0.00  0.00    -0.298 N 
ENDROOT
BRANCH   4   6
ATOM      6  C   UNL     1      -2.275  -4.130  -8.857  0.00  0.00    +0.106 A 
ATOM      7  C   UNL     1      -1.763  -3.849 -10.106  0.00  0.00    +0.052 A 
ATOM      8  C   UNL     1      -1.891  -4.998 -10.885  0.00  0.00    +0.135 A 
ATOM      9  N   UNL     1      -2.449  -5.935 -10.162  0.00  0.00    -0.179 NA
ATOM     10  N   UNL     1      -2.699  -5.428  -8.881  0.00  0.00    -0.264 N 
ATOM     11  C   UNL     1      -3.308  -6.158  -7.766  0.00  0.00    +0.173 C 
ENDBRANCH   4   6
BRANCH   5  12
ATOM     12  C   UNL     1       0.114  -2.567  -7.552  0.00  0.00    +0.085 C 
ATOM     13  C   UNL     1       0.571  -1.163  -7.953  0.00  0.00    +0.030 C 
ATOM     14  C   UNL     1       0.968  -3.069  -6.387  0.00  0.00    +0.030 C 
ENDBRANCH   5  12
BRANCH   1  15
ATOM     15  S   UNL     1      -0.962  -0.731  -5.022  0.00  0.00    -0.080 S 
BRANCH  15  16
ATOM     16  C   UNL     1      -2.250  -0.095  -3.914  0.00  0.00    +0.133 C 
BRANCH  16  20
ATOM     17  C   UNL     1       0.438   0.554   0.114  0.00  0.00    +0.086 C 
ATOM     18  C   UNL     1      -0.363   1.153  -1.013  0.00  0.00    +0.107 A 
ATOM     19  N   UNL     1      -0.912   0.364  -1.897  0.00  0.00    -0.238 NA
ATOM     20  C   UNL     1      -1.631   0.847  -2.913  0.00  0.00    +0.059 A 
ATOM     21  C   UNL     1      -1.804   2.191  -3.044  0.00  0.00    +0.094 A 
ATOM     22  C   UNL     1      -1.211   3.044  -2.090  0.00  0.00    +0.252 A 
ATOM     23  N   UNL     1      -0.501   2.492  -1.083  0.00  0.00    -0.311 N 
ATOM     24  O   UNL     1      -1.342   4.254  -2.171  0.00  0.00    -0.268 OA
ATOM     25  H   UNL     1      -0.087   3.059  -0.414  0.00  0.00    +0.170 HD
ENDBRANCH  16  20
ENDBRANCH  15  16
ENDBRANCH   1  15
TORSDOF 5
