REMARK  Name = ZINC62918780
REMARK  5 active torsions:
REMARK  status: ('A' for Active; 'I' for Inactive)
REMARK    1  A    between atoms: C_1  and  C_2
REMARK    2  A    between atoms: C_2  and  C_3
REMARK    3  A    between atoms: C_3  and  C_8
REMARK    4  A    between atoms: C_10  and  C_13
REMARK    5  A    between atoms: C_13  and  C_14
REMARK                            x       y       z     vdW  Elec       q    Type
REMARK                         _______ _______ _______ _____ _____    ______ ____
ROOT
ATOM      1  C   UNL     1       0.081   0.007   2.493  0.00  0.00    +0.232 A 
ATOM      2  N   UNL     1      -0.088   1.262   2.804  0.00  0.00    -0.195 NA
ATOM      3  C   UNL     1      -0.710   1.363   3.984  0.00  0.00    +0.176 A 
ATOM      4  N   UNL     1      -0.946   0.166   4.440  0.00  0.00    -0.061 NA
ATOM      5  O   UNL     1      -0.439  -0.742   3.473  0.00  0.00    -0.338 OA
ENDROOT
BRANCH   1   6
ATOM      6  C   UNL     1       0.742  -0.511   1.242  0.00  0.00    +0.033 C 
ATOM      7  C   UNL     1       2.225  -0.076   1.196  0.00  0.00    -0.005 C 
ATOM      8  C   UNL     1       2.967  -1.319   1.750  0.00  0.00    -0.082 C 
ATOM      9  N   UNL     1       2.195  -2.455   1.185  0.00  0.00    +0.380 N 
ATOM     10  C   UNL     1       0.774  -2.050   1.252  0.00  0.00    -0.066 C 
ATOM     11  H   UNL     1       2.466  -2.617   0.227  0.00  0.00    -0.086 HD
ATOM     12  H   UNL     1       2.347  -3.287   1.736  0.00  0.00    -0.086 HD
BRANCH   6  14
ATOM     13  C   UNL     1      -0.019   1.526   0.010  0.00  0.00    +0.005 C 
ATOM     14  C   UNL     1       0.002  -0.004   0.002  0.00  0.00    +0.011 C 
ENDBRANCH   6  14
ENDBRANCH   1   6
BRANCH   3  15
ATOM     15  C   UNL     1      -1.079   2.651   4.673  0.00  0.00    +0.117 C 
BRANCH  15  16
ATOM     16  C   UNL     1      -2.458   3.076   4.241  0.00  0.00    -0.003 A 
ATOM     17  C   UNL     1      -2.617   3.888   3.132  0.00  0.00    +0.046 A 
ATOM     18  C   UNL     1      -3.884   4.277   2.736  0.00  0.00    +0.020 A 
ATOM     19  C   UNL     1      -4.991   3.856   3.448  0.00  0.00    +0.003 A 
ATOM     20  C   UNL     1      -4.833   3.045   4.556  0.00  0.00    +0.020 A 
ATOM     21  C   UNL     1      -3.567   2.650   4.950  0.00  0.00    +0.046 A 
ATOM     22 CL   UNL     1      -3.370   1.625   6.337  0.00  0.00    -0.083 Cl
ATOM     23 CL   UNL     1      -1.226   4.418   2.238  0.00  0.00    -0.083 Cl
ENDBRANCH  15  16
ENDBRANCH   3  15
TORSDOF 4
