REMARK  Name = ZINC24144127
REMARK  15 active torsions:
REMARK  status: ('A' for Active; 'I' for Inactive)
REMARK    1  A    between atoms: C_1  and  C_2
REMARK    2  A    between atoms: C_2  and  C_3
REMARK    3  A    between atoms: C_3  and  C_5
REMARK    4  A    between atoms: C_3  and  N_31
REMARK    5  A    between atoms: C_8  and  S_17
REMARK    6  A    between atoms: N_9  and  C_10
REMARK    7  A    between atoms: C_10  and  C_11
REMARK    8  A    between atoms: S_17  and  C_18
REMARK    9  A    between atoms: C_18  and  C_19
REMARK   10  A    between atoms: C_19  and  O_20
REMARK   11  A    between atoms: O_20  and  C_21
REMARK   12  A    between atoms: C_24  and  S_27
REMARK   13  A    between atoms: S_27  and  N_30
REMARK   14  A    between atoms: N_31  and  C_32
REMARK   15  A    between atoms: N_31  and  C_33
REMARK                            x       y       z     vdW  Elec       q    Type
REMARK                         _______ _______ _______ _____ _____    ______ ____
ROOT
ATOM      1  C   UNL     1       0.805   0.428  -4.731  0.00  0.00    +0.121 A 
ATOM      2  N   UNL     1       1.514   0.155  -3.673  0.00  0.00    -0.135 NA
ATOM      3  N   UNL     1       0.840   0.414  -2.610  0.00  0.00    -0.123 NA
ATOM      4  C   UNL     1      -0.350   0.863  -2.936  0.00  0.00    +0.192 A 
ATOM      5  N   UNL     1      -0.408   0.889  -4.300  0.00  0.00    -0.303 N 
ENDROOT
BRANCH   1   6
ATOM      6  C   UNL     1       1.241   0.266  -6.164  0.00  0.00    +0.000 C 
BRANCH   6   7
ATOM      7  N   UNL     1       1.632  -1.129  -6.402  0.00  0.00    +0.383 N 
ATOM      8  C   UNL     1       2.648  -1.564  -5.434  0.00  0.00    -0.096 C 
ATOM      9  C   UNL     1       0.462  -2.017  -6.371  0.00  0.00    -0.096 C 
ATOM     10  H   UNL     1       2.076  -1.189  -7.407  0.00  0.00    -0.082 HD
ENDBRANCH   6   7
BRANCH   6  12
ATOM     11  C   UNL     1       2.796   1.114  -7.926  0.00  0.00    +0.002 C 
ATOM     12  C   UNL     1       2.432   1.185  -6.442  0.00  0.00    -0.011 C 
ENDBRANCH   6  12
ENDBRANCH   1   6
BRANCH   5  13
ATOM     13  C   UNL     1      -1.536   1.321  -5.129  0.00  0.00    +0.160 C 
BRANCH  13  14
ATOM     14  C   UNL     1      -1.416   2.797  -5.410  0.00  0.00    -0.028 A 
ATOM     15  C   UNL     1      -2.000   3.713  -4.555  0.00  0.00    +0.005 A 
ATOM     16  C   UNL     1      -1.886   5.067  -4.811  0.00  0.00    +0.000 A 
ATOM     17  C   UNL     1      -1.197   5.505  -5.926  0.00  0.00    +0.000 A 
ATOM     18  C   UNL     1      -0.618   4.588  -6.784  0.00  0.00    +0.000 A 
ATOM     19  C   UNL     1      -0.727   3.235  -6.526  0.00  0.00    +0.005 A 
ENDBRANCH  13  14
ENDBRANCH   5  13
BRANCH   4  20
ATOM     20  S   UNL     1      -1.628   1.348  -1.823  0.00  0.00    -0.083 S 
BRANCH  20  21
ATOM     21  C   UNL     1      -0.806   1.030  -0.243  0.00  0.00    +0.118 C 
BRANCH  21  22
ATOM     22  C   UNL     1      -1.752   1.388   0.905  0.00  0.00    +0.240 C 
BRANCH  22  23
ATOM     23  O   UNL     1      -1.103   1.136   2.153  0.00  0.00    -0.491 OA
BRANCH  23  24
ATOM     24  C   UNL     1      -1.811   1.404   3.282  0.00  0.00    +0.121 A 
ATOM     25  C   UNL     1      -3.102   1.903   3.190  0.00  0.00    +0.047 A 
ATOM     26  C   UNL     1      -3.822   2.168   4.339  0.00  0.00    +0.032 A 
ATOM     27  C   UNL     1      -3.253   1.948   5.579  0.00  0.00    +0.105 A 
ATOM     28  C   UNL     1      -1.964   1.456   5.674  0.00  0.00    +0.032 A 
ATOM     29  C   UNL     1      -1.242   1.183   4.528  0.00  0.00    +0.047 A 
BRANCH  27  30
ATOM     30  S   UNL     1      -4.171   2.294   7.043  0.00  0.00    +0.056 S 
ATOM     31  O   UNL     1      -5.545   2.230   6.685  0.00  0.00    -0.153 OA
ATOM     32  O   UNL     1      -3.614   1.489   8.072  0.00  0.00    -0.153 OA
BRANCH  30  33
ATOM     33  N   UNL     1      -3.862   3.869   7.454  0.00  0.00    -0.204 NA
ATOM     34  H   UNL     1      -4.420   4.125   8.366  0.00  0.00    +0.144 HD
ATOM     35  H   UNL     1      -4.177   4.530   6.633  0.00  0.00    +0.144 HD
ENDBRANCH  30  33
ENDBRANCH  27  30
ENDBRANCH  23  24
ENDBRANCH  22  23
ENDBRANCH  21  22
ENDBRANCH  20  21
ENDBRANCH   4  20
TORSDOF 12
