REMARK  Name = ZINC15226944
REMARK  11 active torsions:
REMARK  status: ('A' for Active; 'I' for Inactive)
REMARK    1  A    between atoms: C_1  and  C_2
REMARK    2  A    between atoms: C_4  and  C_28
REMARK    3  A    between atoms: C_5  and  C_9
REMARK    4  A    between atoms: C_7  and  C_8
REMARK    5  A    between atoms: C_9  and  C_11
REMARK    6  A    between atoms: C_11  and  C_13
REMARK    7  A    between atoms: C_11  and  S_14
REMARK    8  A    between atoms: S_14  and  C_15
REMARK    9  A    between atoms: N_19  and  C_20
REMARK   10  A    between atoms: C_25  and  O_26
REMARK   11  A    between atoms: O_26  and  C_27
REMARK                            x       y       z     vdW  Elec       q    Type
REMARK                         _______ _______ _______ _____ _____    ______ ____
ROOT
ATOM      1  S   UNL     1       2.776  -0.192   0.545  0.00  0.00    -0.073 S 
ENDROOT
BRANCH   1   2
ATOM      2  C   UNL     1       1.099  -0.719   0.655  0.00  0.00    +0.215 A 
ATOM      3  N   UNL     1       0.649  -1.941   0.467  0.00  0.00    -0.101 NA
ATOM      4  N   UNL     1      -0.625  -1.981   0.624  0.00  0.00    -0.022 NA
ATOM      5  N   UNL     1      -1.077  -0.812   0.922  0.00  0.00    -0.038 NA
ATOM      6  N   UNL     1       0.027   0.058   0.949  0.00  0.00    -0.184 N 
BRANCH   6   7
ATOM      7  C   UNL     1       0.022   1.434   1.227  0.00  0.00    +0.111 A 
ATOM      8  C   UNL     1       0.967   1.973   2.087  0.00  0.00    +0.031 A 
ATOM      9  C   UNL     1       0.961   3.328   2.359  0.00  0.00    +0.002 A 
ATOM     10  C   UNL     1       0.013   4.149   1.776  0.00  0.00    +0.004 A 
ATOM     11  C   UNL     1      -0.932   3.619   0.918  0.00  0.00    +0.048 A 
ATOM     12  C   UNL     1      -0.929   2.262   0.636  0.00  0.00    +0.146 A 
BRANCH  12  13
ATOM     13  O   UNL     1      -1.855   1.740  -0.212  0.00  0.00    -0.493 OA
ATOM     14  C   UNL     1      -2.799   2.649  -0.781  0.00  0.00    +0.277 C 
ENDBRANCH  12  13
ENDBRANCH   6   7
ENDBRANCH   1   2
BRANCH   1  15
ATOM     15  C   UNL     1       3.573  -1.762   0.126  0.00  0.00    +0.122 C 
ATOM     16  C   UNL     1       3.091  -2.227  -1.250  0.00  0.00    +0.028 C 
BRANCH  15  17
ATOM     17  C   UNL     1       5.068  -1.575   0.098  0.00  0.00    +0.176 C 
ATOM     18  O   UNL     1       5.538  -0.478  -0.116  0.00  0.00    -0.291 OA
BRANCH  17  23
ATOM     19  C   UNL     1       8.542  -6.064   1.008  0.00  0.00    +0.044 C 
ATOM     20  C   UNL     1       7.631  -4.888   0.770  0.00  0.00    -0.047 A 
ATOM     21  C   UNL     1       8.168  -3.665   0.404  0.00  0.00    +0.007 A 
ATOM     22  C   UNL     1       7.341  -2.585   0.178  0.00  0.00    -0.040 A 
ATOM     23  C   UNL     1       5.957  -2.724   0.332  0.00  0.00    +0.022 A 
ATOM     24  C   UNL     1       5.423  -3.962   0.702  0.00  0.00    +0.015 A 
ATOM     25  C   UNL     1       6.263  -5.035   0.919  0.00  0.00    -0.047 A 
ATOM     26  C   UNL     1       5.690  -6.370   1.319  0.00  0.00    +0.044 C 
ATOM     27  C   UNL     1       7.926  -1.257  -0.227  0.00  0.00    +0.044 C 
ENDBRANCH  17  23
ENDBRANCH  15  17
ENDBRANCH   1  15
TORSDOF 6
