REMARK  Name = ZINC43961913
REMARK  7 active torsions:
REMARK  status: ('A' for Active; 'I' for Inactive)
REMARK    1  A    between atoms: C_1  and  C_2
REMARK    2  A    between atoms: C_5  and  N_27
REMARK    3  A    between atoms: C_7  and  S_8
REMARK    4  A    between atoms: S_8  and  N_11
REMARK    5  A    between atoms: N_11  and  C_12
REMARK    6  A    between atoms: C_12  and  C_13
REMARK    7  A    between atoms: N_21  and  C_22
REMARK                            x       y       z     vdW  Elec       q    Type
REMARK                         _______ _______ _______ _____ _____    ______ ____
ROOT
ATOM      1  C   UNL     1       1.220   2.244   2.095  0.00  0.00    +0.109 C 
ENDROOT
BRANCH   1   2
ATOM      2  C   UNL     1       2.209   3.238   2.708  0.00  0.00    +0.007 C 
ATOM      3  C   UNL     1       1.697   3.688   4.078  0.00  0.00    +0.024 C 
ATOM      4  C   UNL     1       2.707   4.655   4.704  0.00  0.00    +0.109 C 
ATOM      5  N   UNL     1       2.954   5.755   3.761  0.00  0.00    -0.285 N 
ATOM      6  C   UNL     1       3.364   5.430   2.388  0.00  0.00    +0.109 C 
ATOM      7  C   UNL     1       2.346   4.453   1.788  0.00  0.00    +0.024 C 
ATOM      8  C   UNL     1       2.808   7.037   4.148  0.00  0.00    +0.307 C 
ATOM      9  O   UNL     1       2.559   7.297   5.310  0.00  0.00    -0.252 OA
ATOM     10  N   UNL     1       2.939   8.032   3.248  0.00  0.00    -0.264 N 
ATOM     11  H   UNL     1       3.065   7.824   2.309  0.00  0.00    +0.157 HD
BRANCH  10  12
ATOM     12  C   UNL     1       2.892   9.365   3.668  0.00  0.00    +0.073 A 
ATOM     13  C   UNL     1       2.996  10.502   2.926  0.00  0.00    +0.031 A 
ATOM     14  C   UNL     1       2.920  11.726   3.567  0.00  0.00    +0.009 A 
ATOM     15  C   UNL     1       2.744  11.756   4.909  0.00  0.00    +0.047 A 
ATOM     16  S   UNL     1       2.672  10.019   5.315  0.00  0.00    -0.082 S 
ENDBRANCH  10  12
ENDBRANCH   1   2
BRANCH   1  17
ATOM     17  N   UNL     1       1.177   1.030   2.913  0.00  0.00    -0.190 NA
ATOM     18  H   UNL     1       1.895   0.841   3.538  0.00  0.00    +0.148 HD
BRANCH  17  19
ATOM     19  S   UNL     1      -0.095  -0.020   2.771  0.00  0.00    +0.059 S 
ATOM     20  O   UNL     1      -1.279   0.762   2.857  0.00  0.00    -0.153 OA
ATOM     21  O   UNL     1       0.169  -1.101   3.655  0.00  0.00    -0.153 OA
BRANCH  19  28
ATOM     22  C   UNL     1       2.146  -1.748   1.704  0.00  0.00    +0.046 C 
ATOM     23  C   UNL     1       1.023  -1.462   0.741  0.00  0.00    -0.024 A 
ATOM     24  C   UNL     1       1.059  -1.985  -0.538  0.00  0.00    +0.007 A 
ATOM     25  C   UNL     1       0.029  -1.723  -1.421  0.00  0.00    +0.033 A 
ATOM     26  C   UNL     1      -1.038  -0.937  -1.026  0.00  0.00    +0.128 A 
ATOM     27  C   UNL     1      -1.074  -0.415   0.254  0.00  0.00    +0.061 A 
ATOM     28  C   UNL     1      -0.046  -0.681   1.138  0.00  0.00    +0.110 A 
BRANCH  26  29
ATOM     29  N   UNL     1      -2.141  -0.655  -1.972  0.00  0.00    +0.056 N 
ATOM     30  O   UNL     1      -2.108  -1.111  -3.091  0.00  0.00    -0.126 OA
ATOM     31  O   UNL     1      -3.073   0.032  -1.626  0.00  0.00    -0.126 OA
ENDBRANCH  26  29
ENDBRANCH  19  28
ENDBRANCH  17  19
ENDBRANCH   1  17
TORSDOF 6
