REMARK  Name = ZINC11481177
REMARK  15 active torsions:
REMARK  status: ('A' for Active; 'I' for Inactive)
REMARK    1  A    between atoms: C_1  and  C_2
REMARK    2  A    between atoms: C_2  and  C_3
REMARK    3  A    between atoms: C_3  and  C_4
REMARK    4  A    between atoms: C_4  and  N_5
REMARK    5  A    between atoms: N_5  and  C_6
REMARK    6  A    between atoms: C_7  and  N_18
REMARK    7  A    between atoms: N_8  and  C_15
REMARK    8  A    between atoms: C_15  and  C_16
REMARK    9  A    between atoms: C_16  and  C_17
REMARK   10  A    between atoms: C_19  and  C_21
REMARK   11  A    between atoms: C_21  and  O_22
REMARK   12  A    between atoms: O_22  and  C_23
REMARK   13  A    between atoms: C_23  and  C_25
REMARK   14  A    between atoms: C_30  and  O_31
REMARK   15  A    between atoms: O_31  and  C_32
REMARK                            x       y       z     vdW  Elec       q    Type
REMARK                         _______ _______ _______ _____ _____    ______ ____
ROOT
ATOM      1  N   UNL     1       1.038  -2.946  -2.205  0.00  0.00    -0.261 N 
ATOM      2  C   UNL     1       0.764  -2.343  -3.380  0.00  0.00    +0.258 C 
ATOM      3  O   UNL     1       0.661  -1.135  -3.433  0.00  0.00    -0.272 OA
ENDROOT
BRANCH   1   4
ATOM      4  C   UNL     1       1.101  -2.184  -1.019  0.00  0.00    +0.140 A 
ATOM      5  C   UNL     1       2.296  -2.030  -0.346  0.00  0.00    +0.127 A 
ATOM      6  N   UNL     1       2.325  -1.286   0.810  0.00  0.00    -0.280 N 
ATOM      7  C   UNL     1       1.203  -0.706   1.275  0.00  0.00    +0.331 A 
ATOM      8  O   UNL     1       1.250  -0.049   2.297  0.00  0.00    -0.246 OA
ATOM      9  N   UNL     1       0.030  -0.841   0.630  0.00  0.00    -0.273 N 
ATOM     10  H   UNL     1      -0.789  -0.400   0.996  0.00  0.00    +0.173 HD
ATOM     11  C   UNL     1      -0.053  -1.564  -0.504  0.00  0.00    +0.277 A 
ATOM     12  O   UNL     1      -1.121  -1.680  -1.081  0.00  0.00    -0.266 OA
BRANCH   5  13
ATOM     13  N   UNL     1       3.443  -2.617  -0.824  0.00  0.00    -0.343 N 
ATOM     14  H   UNL     1       4.256  -2.596  -0.294  0.00  0.00    +0.144 HD
ATOM     15  H   UNL     1       3.441  -3.052  -1.690  0.00  0.00    +0.144 HD
ENDBRANCH   5  13
BRANCH   6  16
ATOM     16  C   UNL     1       3.585  -1.119   1.538  0.00  0.00    +0.128 C 
BRANCH  16  17
ATOM     17  C   UNL     1       3.734  -2.242   2.566  0.00  0.00    +0.018 C 
ATOM     18  C   UNL     1       5.051  -2.068   3.325  0.00  0.00    +0.005 C 
ENDBRANCH  16  17
ENDBRANCH   6  16
ENDBRANCH   1   4
BRANCH   1  19
ATOM     19  C   UNL     1       1.271  -4.391  -2.160  0.00  0.00    +0.114 C 
BRANCH  19  20
ATOM     20  C   UNL     1      -0.069  -5.120  -2.035  0.00  0.00    +0.019 C 
BRANCH  20  22
ATOM     21  C   UNL     1      -1.165  -7.359  -1.864  0.00  0.00    +0.004 C 
ATOM     22  C   UNL     1       0.174  -6.630  -1.989  0.00  0.00    -0.002 C 
ENDBRANCH  20  22
ENDBRANCH  19  20
ENDBRANCH   1  19
BRANCH   2  23
ATOM     23  C   UNL     1       0.585  -3.169  -4.627  0.00  0.00    +0.328 C 
BRANCH  23  24
ATOM     24  O   UNL     1       0.300  -2.295  -5.751  0.00  0.00    -0.452 OA
BRANCH  24  25
ATOM     25  C   UNL     1       0.112  -2.880  -6.950  0.00  0.00    +0.343 C 
ATOM     26  O   UNL     1       0.184  -4.089  -7.054  0.00  0.00    -0.245 OA
BRANCH  25  27
ATOM     27  C   UNL     1      -0.182  -2.055  -8.135  0.00  0.00    +0.101 A 
ATOM     28  C   UNL     1      -0.266  -0.665  -8.021  0.00  0.00    +0.018 A 
ATOM     29  C   UNL     1      -0.541   0.101  -9.133  0.00  0.00    +0.001 A 
ATOM     30  C   UNL     1      -0.734  -0.501 -10.366  0.00  0.00    +0.004 A 
ATOM     31  C   UNL     1      -0.654  -1.873 -10.494  0.00  0.00    +0.047 A 
ATOM     32  C   UNL     1      -0.372  -2.660  -9.386  0.00  0.00    +0.142 A 
BRANCH  32  33
ATOM     33  O   UNL     1      -0.287  -4.008  -9.511  0.00  0.00    -0.455 OA
BRANCH  33  34
ATOM     34  C   UNL     1      -1.405  -4.742  -9.269  0.00  0.00    +0.128 A 
ATOM     35  C   UNL     1      -2.612  -4.108  -9.015  0.00  0.00    +0.046 A 
ATOM     36  C   UNL     1      -3.747  -4.857  -8.773  0.00  0.00    +0.004 A 
ATOM     37  C   UNL     1      -3.678  -6.238  -8.774  0.00  0.00    +0.000 A 
ATOM     38  C   UNL     1      -2.475  -6.873  -9.022  0.00  0.00    +0.004 A 
ATOM     39  C   UNL     1      -1.338  -6.128  -9.269  0.00  0.00    +0.046 A 
ENDBRANCH  33  34
ENDBRANCH  32  33
ENDBRANCH  25  27
ENDBRANCH  24  25
ENDBRANCH  23  24
ENDBRANCH   2  23
TORSDOF 13
