REMARK  Name = ZINC39673656
REMARK  10 active torsions:
REMARK  status: ('A' for Active; 'I' for Inactive)
REMARK    1  A    between atoms: C_1  and  C_2
REMARK    2  A    between atoms: C_2  and  C_3
REMARK    3  A    between atoms: C_3  and  C_4
REMARK    4  A    between atoms: C_4  and  C_6
REMARK    5  A    between atoms: C_4  and  N_7
REMARK    6  A    between atoms: C_8  and  C_10
REMARK    7  A    between atoms: C_21  and  C_23
REMARK    8  A    between atoms: C_28  and  O_29
REMARK    9  A    between atoms: O_29  and  C_30
REMARK   10  A    between atoms: C_30  and  C_31
REMARK                            x       y       z     vdW  Elec       q    Type
REMARK                         _______ _______ _______ _____ _____    ______ ____
ROOT
ATOM      1  C   UNL     1      -2.329  -4.289   1.031  0.00  0.00    +0.100 C 
ATOM      2  C   UNL     1      -3.329  -3.337   0.338  0.00  0.00    +0.121 C 
ATOM      3  N   UNL     1      -3.507  -3.905  -1.019  0.00  0.00    -0.296 N 
ATOM      4  C   UNL     1      -3.534  -5.372  -0.804  0.00  0.00    +0.115 C 
ATOM      5  C   UNL     1      -2.469  -5.624   0.281  0.00  0.00    -0.004 C 
ATOM      6  C   UNL     1      -1.141  -6.010  -0.364  0.00  0.00    -0.010 C 
ATOM      7  C   UNL     1      -1.290  -7.367  -1.056  0.00  0.00    -0.082 C 
ATOM      8  N   UNL     1      -1.691  -8.379  -0.070  0.00  0.00    +0.379 N 
ATOM      9  C   UNL     1      -3.012  -8.049   0.478  0.00  0.00    -0.082 C 
ATOM     10  C   UNL     1      -2.936  -6.720   1.234  0.00  0.00    -0.010 C 
ATOM     11  C   UNL     1      -3.619  -3.239  -2.185  0.00  0.00    +0.250 C 
ATOM     12  O   UNL     1      -3.480  -2.031  -2.211  0.00  0.00    -0.270 OA
ATOM     13  H   UNL     1      -1.729  -9.284  -0.516  0.00  0.00    -0.086 HD
ATOM     14  H   UNL     1      -1.014  -8.404   0.678  0.00  0.00    -0.086 HD
ENDROOT
BRANCH  11  15
ATOM     15  C   UNL     1      -3.911  -3.975  -3.430  0.00  0.00    +0.078 A 
ATOM     16  C   UNL     1      -4.746  -5.095  -3.406  0.00  0.00    +0.017 A 
ATOM     17  C   UNL     1      -5.014  -5.777  -4.572  0.00  0.00    +0.001 A 
ATOM     18  C   UNL     1      -4.459  -5.359  -5.771  0.00  0.00    +0.004 A 
ATOM     19  C   UNL     1      -3.632  -4.254  -5.809  0.00  0.00    +0.046 A 
ATOM     20  C   UNL     1      -3.355  -3.552  -4.646  0.00  0.00    +0.133 A 
BRANCH  20  21
ATOM     21  O   UNL     1      -2.547  -2.463  -4.683  0.00  0.00    -0.491 OA
BRANCH  21  22
ATOM     22  C   UNL     1      -2.018  -2.091  -5.957  0.00  0.00    +0.226 C 
ATOM     23  C   UNL     1      -1.136  -0.851  -5.801  0.00  0.00    +0.048 C 
ENDBRANCH  21  22
ENDBRANCH  20  21
ENDBRANCH  11  15
BRANCH   1  25
ATOM     24  N   UNL     1      -0.015  -4.016   1.863  0.00  0.00    -0.312 N 
ATOM     25  C   UNL     1      -0.924  -3.759   0.902  0.00  0.00    +0.218 C 
ATOM     26  O   UNL     1      -0.612  -3.101  -0.068  0.00  0.00    -0.275 OA
ATOM     27  H   UNL     1      -0.266  -4.542   2.639  0.00  0.00    +0.149 HD
BRANCH  24  28
ATOM     28  C   UNL     1       1.350  -3.501   1.737  0.00  0.00    +0.070 C 
ATOM     29  C   UNL     1       2.184  -4.468   0.895  0.00  0.00    +0.028 C 
BRANCH  28  30
ATOM     30  C   UNL     1       1.975  -3.366   3.127  0.00  0.00    +0.022 C 
BRANCH  30  32
ATOM     31  C   UNL     1       1.839  -2.171   5.317  0.00  0.00    +0.004 C 
ATOM     32  C   UNL     1       1.214  -2.306   3.927  0.00  0.00    -0.002 C 
ENDBRANCH  30  32
ENDBRANCH  28  30
ENDBRANCH  24  28
ENDBRANCH   1  25
TORSDOF 7
