REMARK  Name = ZINC20494510
REMARK  7 active torsions:
REMARK  status: ('A' for Active; 'I' for Inactive)
REMARK    1  A    between atoms: C_5  and  C_7
REMARK    2  A    between atoms: N_8  and  N_9
REMARK    3  A    between atoms: C_12  and  S_15
REMARK    4  A    between atoms: S_15  and  C_16
REMARK    5  A    between atoms: C_16  and  C_17
REMARK    6  A    between atoms: N_19  and  C_20
REMARK    7  A    between atoms: C_20  and  C_21
REMARK                            x       y       z     vdW  Elec       q    Type
REMARK                         _______ _______ _______ _____ _____    ______ ____
ROOT
ATOM      1  N   UNL     1      -1.150   2.163   0.019  0.00  0.00    -0.205 N 
ATOM      2  C   UNL     1      -0.017   1.363   0.009  0.00  0.00    +0.232 A 
ATOM      3  N   UNL     1       0.002  -0.004   0.002  0.00  0.00    -0.186 NA
ATOM      4  C   UNL     1       1.307  -0.409  -0.013  0.00  0.00    +0.211 A 
ATOM      5  N   UNL     1       2.063   0.663  -0.014  0.00  0.00    -0.144 NA
ATOM      6  N   UNL     1       1.225   1.785   0.000  0.00  0.00    -0.245 N 
ATOM      7  H   UNL     1      -2.149   1.702   0.022  0.00  0.00    +0.177 HD
ATOM      8  H   UNL     1       1.439   2.864   0.004  0.00  0.00    +0.192 HD
ENDROOT
BRANCH   1  10
ATOM      9  C   UNL     1      -2.083   4.307   0.036  0.00  0.00    +0.139 C 
ATOM     10  N   UNL     1      -1.022   3.558   0.026  0.00  0.00    -0.188 NA
BRANCH   9  15
ATOM     11  C   UNL     1      -2.955   7.957   0.059  0.00  0.00    +0.001 A 
ATOM     12  C   UNL     1      -1.697   8.534   0.057  0.00  0.00    +0.001 A 
ATOM     13  C   UNL     1      -0.564   7.741   0.047  0.00  0.00    +0.020 A 
ATOM     14  C   UNL     1      -0.681   6.365   0.040  0.00  0.00    +0.050 A 
ATOM     15  C   UNL     1      -1.949   5.775   0.043  0.00  0.00    +0.013 A 
ATOM     16  C   UNL     1      -3.088   6.585   0.047  0.00  0.00    +0.011 A 
ATOM     17 CL   UNL     1       0.741   5.370   0.027  0.00  0.00    -0.083 Cl
ENDBRANCH   9  15
ENDBRANCH   1  10
BRANCH   4  18
ATOM     18  S   UNL     1       1.874  -2.077  -0.028  0.00  0.00    -0.075 S 
BRANCH  18  19
ATOM     19  C   UNL     1       3.681  -1.926  -0.044  0.00  0.00    +0.173 C 
BRANCH  19  20
ATOM     20  C   UNL     1       4.300  -3.300  -0.057  0.00  0.00    +0.224 C 
ATOM     21  O   UNL     1       3.591  -4.284  -0.056  0.00  0.00    -0.275 OA
ATOM     22  N   UNL     1       5.641  -3.435  -0.071  0.00  0.00    -0.311 N 
ATOM     23  H   UNL     1       6.284  -2.542  -0.072  0.00  0.00    +0.149 HD
BRANCH  22  24
ATOM     24  C   UNL     1       6.242  -4.771  -0.084  0.00  0.00    +0.139 C 
BRANCH  24  25
ATOM     25  C   UNL     1       7.744  -4.646  -0.098  0.00  0.00    -0.029 A 
ATOM     26  C   UNL     1       8.422  -4.587  -1.301  0.00  0.00    +0.007 A 
ATOM     27  C   UNL     1       9.798  -4.466  -1.315  0.00  0.00    +0.022 A 
ATOM     28  C   UNL     1      10.500  -4.415  -0.124  0.00  0.00    +0.059 A 
ATOM     29  C   UNL     1       9.822  -4.480   1.081  0.00  0.00    +0.060 A 
ATOM     30  C   UNL     1       8.444  -4.595   1.093  0.00  0.00    +0.026 A 
ATOM     31 CL   UNL     1      10.701  -4.416   2.577  0.00  0.00    -0.082 Cl
ATOM     32 CL   UNL     1      12.230  -4.270  -0.141  0.00  0.00    -0.082 Cl
ENDBRANCH  24  25
ENDBRANCH  22  24
ENDBRANCH  19  20
ENDBRANCH  18  19
ENDBRANCH   4  18
TORSDOF 7
