REMARK  Name = ZINC39442912
REMARK  13 active torsions:
REMARK  status: ('A' for Active; 'I' for Inactive)
REMARK    1  A    between atoms: C_1  and  C_2
REMARK    2  A    between atoms: C_4  and  C_21
REMARK    3  A    between atoms: C_7  and  C_10
REMARK    4  A    between atoms: C_15  and  N_16
REMARK    5  A    between atoms: N_16  and  S_17
REMARK    6  A    between atoms: S_17  and  C_20
REMARK    7  A    between atoms: C_21  and  N_22
REMARK    8  A    between atoms: N_22  and  C_23
REMARK    9  A    between atoms: N_22  and  C_24
REMARK   10  A    between atoms: C_24  and  C_26
REMARK   11  A    between atoms: C_24  and  C_27
REMARK   12  A    between atoms: C_27  and  C_28
REMARK   13  A    between atoms: C_28  and  C_29
REMARK                            x       y       z     vdW  Elec       q    Type
REMARK                         _______ _______ _______ _____ _____    ______ ____
ROOT
ATOM      1  C   UNL     1       0.403   1.143   0.405  0.00  0.00    +0.039 C 
ATOM      2  C   UNL     1       0.273  -0.362   0.161  0.00  0.00    +0.133 C 
ATOM      3  C   UNL     1       0.500  -0.681  -1.329  0.00  0.00    +0.068 C 
ATOM      4  N   UNL     1       1.695  -1.562  -1.348  0.00  0.00    -0.284 NA
ATOM      5  C   UNL     1       2.380  -1.247  -0.068  0.00  0.00    +0.220 C 
ATOM      6  O   UNL     1       1.302  -1.072   0.878  0.00  0.00    -0.353 OA
ATOM      7  H   UNL     1       1.427  -2.534  -1.385  0.00  0.00    +0.125 HD
ENDROOT
BRANCH   5   8
ATOM      8  C   UNL     1       3.270  -2.390   0.348  0.00  0.00    +0.018 A 
ATOM      9  C   UNL     1       3.137  -3.625  -0.255  0.00  0.00    +0.009 A 
ATOM     10  C   UNL     1       3.953  -4.674   0.127  0.00  0.00    +0.001 A 
ATOM     11  C   UNL     1       4.904  -4.491   1.114  0.00  0.00    +0.002 A 
ATOM     12  C   UNL     1       5.043  -3.258   1.720  0.00  0.00    +0.025 A 
ATOM     13  C   UNL     1       4.229  -2.200   1.335  0.00  0.00    +0.055 A 
BRANCH  13  14
ATOM     14  N   UNL     1       4.370  -0.951   1.944  0.00  0.00    -0.220 N 
ATOM     15  H   UNL     1       3.597  -0.375   2.052  0.00  0.00    +0.173 HD
BRANCH  14  16
ATOM     16  S   UNL     1       5.856  -0.454   2.479  0.00  0.00    +0.040 S 
ATOM     17  O   UNL     1       5.647   0.871   2.949  0.00  0.00    -0.155 OA
ATOM     18  O   UNL     1       6.284  -1.478   3.366  0.00  0.00    -0.155 OA
ATOM     19  C   UNL     1       6.902  -0.433   0.997  0.00  0.00    +0.218 C 
ENDBRANCH  14  16
ENDBRANCH  13  14
ENDBRANCH   5   8
BRANCH   3  20
ATOM     20  C   UNL     1      -0.713  -1.411  -1.909  0.00  0.00    -0.057 C 
BRANCH  20  21
ATOM     21  N   UNL     1      -0.426  -1.818  -3.291  0.00  0.00    +0.381 N 
ATOM     22  C   UNL     1      -1.545  -2.616  -3.809  0.00  0.00    -0.096 C 
ATOM     23  H   UNL     1       0.418  -2.370  -3.311  0.00  0.00    -0.082 HD
BRANCH  21  24
ATOM     24  C   UNL     1      -0.249  -0.622  -4.126  0.00  0.00    -0.072 C 
ATOM     25  C   UNL     1       0.189  -1.042  -5.531  0.00  0.00    -0.013 C 
BRANCH  24  26
ATOM     26  C   UNL     1      -1.572   0.141  -4.211  0.00  0.00    -0.011 C 
BRANCH  26  27
ATOM     27  C   UNL     1      -1.355   1.456  -4.964  0.00  0.00    +0.036 C 
BRANCH  27  28
ATOM     28  C   UNL     1      -2.626   2.265  -4.939  0.00  0.00    -0.022 A 
ATOM     29  C   UNL     1      -3.061   3.171  -3.874  0.00  0.00    +0.003 A 
ATOM     30  C   UNL     1      -2.517   3.562  -2.649  0.00  0.00    +0.010 A 
ATOM     31  C   UNL     1      -3.189   4.453  -1.861  0.00  0.00    +0.001 A 
ATOM     32  C   UNL     1      -4.410   4.972  -2.268  0.00  0.00    +0.002 A 
ATOM     33  C   UNL     1      -4.966   4.600  -3.472  0.00  0.00    +0.026 A 
ATOM     34  C   UNL     1      -4.299   3.695  -4.291  0.00  0.00    +0.047 A 
ATOM     35  N   UNL     1      -4.582   3.140  -5.519  0.00  0.00    -0.360 N 
ATOM     36  C   UNL     1      -3.572   2.295  -5.891  0.00  0.00    +0.087 A 
ATOM     37  H   UNL     1      -5.377   3.324  -6.043  0.00  0.00    +0.165 HD
ENDBRANCH  27  28
ENDBRANCH  26  27
ENDBRANCH  24  26
ENDBRANCH  21  24
ENDBRANCH  20  21
ENDBRANCH   3  20
TORSDOF 9
