REMARK  Name = ZINC39969103
REMARK  4 active torsions:
REMARK  status: ('A' for Active; 'I' for Inactive)
REMARK    1  A    between atoms: C_7  and  C_13
REMARK    2  A    between atoms: C_13  and  S_14
REMARK    3  A    between atoms: S_14  and  C_15
REMARK    4  A    between atoms: N_26  and  C_27
REMARK                            x       y       z     vdW  Elec       q    Type
REMARK                         _______ _______ _______ _____ _____    ______ ____
ROOT
ATOM      1  C   UNL     1      -2.720  -4.180   1.377  0.00  0.00    +0.227 C 
ATOM      2  N   UNL     1      -3.418  -3.761   0.157  0.00  0.00    -0.317 N 
ATOM      3  C   UNL     1      -2.697  -3.669  -1.029  0.00  0.00    +0.041 A 
ATOM      4  C   UNL     1      -3.052  -2.780  -2.030  0.00  0.00    +0.024 A 
ATOM      5  C   UNL     1      -2.312  -2.732  -3.195  0.00  0.00    +0.002 A 
ATOM      6  C   UNL     1      -1.218  -3.565  -3.370  0.00  0.00    +0.001 A 
ATOM      7  C   UNL     1      -0.849  -4.453  -2.381  0.00  0.00    +0.015 A 
ATOM      8  C   UNL     1      -1.583  -4.509  -1.199  0.00  0.00    +0.058 A 
ATOM      9  C   UNL     1      -1.215  -5.422  -0.103  0.00  0.00    +0.255 C 
ATOM     10  O   UNL     1      -0.364  -6.275  -0.275  0.00  0.00    -0.269 OA
ATOM     11  N   UNL     1      -1.827  -5.303   1.088  0.00  0.00    -0.239 N 
ATOM     12  H   UNL     1      -4.365  -3.553   0.176  0.00  0.00    +0.149 HD
ENDROOT
BRANCH  11  13
ATOM     13  C   UNL     1      -1.604  -6.275   2.070  0.00  0.00    +0.039 A 
ATOM     14  C   UNL     1      -0.550  -6.131   2.962  0.00  0.00    +0.026 A 
ATOM     15  C   UNL     1      -0.331  -7.091   3.932  0.00  0.00    +0.040 A 
ATOM     16  C   UNL     1      -1.162  -8.195   4.013  0.00  0.00    +0.124 A 
ATOM     17  C   UNL     1      -2.213  -8.341   3.124  0.00  0.00    +0.040 A 
ATOM     18  C   UNL     1      -2.439  -7.380   2.157  0.00  0.00    +0.026 A 
ATOM     19  F   UNL     1      -0.946  -9.133   4.961  0.00  0.00    -0.205 F 
ENDBRANCH  11  13
BRANCH   1  20
ATOM     20  S   UNL     1      -1.747  -2.791   2.020  0.00  0.00    -0.114 S 
BRANCH  20  21
ATOM     21  C   UNL     1      -0.590  -2.406   0.676  0.00  0.00    +0.108 C 
BRANCH  21  28
ATOM     22  C   UNL     1      -2.011   1.678   0.776  0.00  0.00    +0.001 A 
ATOM     23  C   UNL     1      -1.172   2.716   1.159  0.00  0.00    +0.002 A 
ATOM     24  C   UNL     1       0.135   2.468   1.516  0.00  0.00    +0.026 A 
ATOM     25  C   UNL     1       0.622   1.165   1.494  0.00  0.00    +0.049 A 
ATOM     26  C   UNL     1      -0.232   0.115   1.106  0.00  0.00    +0.002 A 
ATOM     27  C   UNL     1      -1.556   0.390   0.747  0.00  0.00    +0.010 A 
ATOM     28  C   UNL     1       0.289  -1.253   1.085  0.00  0.00    -0.023 A 
ATOM     29  C   UNL     1       1.581  -1.460   1.443  0.00  0.00    +0.075 A 
ATOM     30  C   UNL     1       2.395  -0.372   1.825  0.00  0.00    +0.249 A 
ATOM     31  O   UNL     1       3.553  -0.580   2.143  0.00  0.00    -0.268 OA
ATOM     32  N   UNL     1       1.925   0.888   1.847  0.00  0.00    -0.322 N 
ATOM     33  H   UNL     1       2.513   1.612   2.114  0.00  0.00    +0.169 HD
ENDBRANCH  21  28
ENDBRANCH  20  21
ENDBRANCH   1  20
TORSDOF 4
