REMARK  Name = ZINC05462163
REMARK  8 active torsions:
REMARK  status: ('A' for Active; 'I' for Inactive)
REMARK    1  A    between atoms: C_1  and  C_2
REMARK    2  A    between atoms: C_2  and  C_3
REMARK    3  A    between atoms: C_2  and  C_4
REMARK    4  A    between atoms: C_4  and  C_5
REMARK    5  A    between atoms: C_8  and  C_11
REMARK    6  A    between atoms: C_17  and  C_25
REMARK    7  A    between atoms: C_19  and  C_23
REMARK    8  A    between atoms: C_20  and  N_22
REMARK                            x       y       z     vdW  Elec       q    Type
REMARK                         _______ _______ _______ _____ _____    ______ ____
ROOT
ATOM      1  C   UNL     1      -2.203   0.944   5.960  0.00  0.00    +0.084 C 
ATOM      2  N   UNL     1      -2.084   2.046   6.651  0.00  0.00    -0.150 NA
ATOM      3  N   UNL     1      -2.976   2.096   7.722  0.00  0.00    -0.115 NA
ATOM      4  C   UNL     1      -3.752   1.072   7.752  0.00  0.00    +0.227 C 
ATOM      5  C   UNL     1      -3.275   0.132   6.648  0.00  0.00    +0.141 C 
ATOM      6  C   UNL     1      -4.481  -0.076   5.724  0.00  0.00    +0.089 C 
ATOM      7  C   UNL     1      -5.718  -0.253   6.564  0.00  0.00    +0.095 C 
ATOM      8  C   UNL     1      -5.834   0.158   7.843  0.00  0.00    +0.200 C 
ATOM      9  O   UNL     1      -4.819   0.763   8.519  0.00  0.00    -0.425 OA
ENDROOT
BRANCH   1  13
ATOM     10  C   UNL     1      -0.030  -0.130   2.478  0.00  0.00    -0.047 A 
ATOM     11  C   UNL     1       0.221   1.081   3.100  0.00  0.00    +0.004 A 
ATOM     12  C   UNL     1      -0.481   1.437   4.232  0.00  0.00    +0.010 A 
ATOM     13  C   UNL     1      -1.449   0.572   4.752  0.00  0.00    -0.001 A 
ATOM     14  C   UNL     1      -1.697  -0.649   4.117  0.00  0.00    +0.010 A 
ATOM     15  C   UNL     1      -0.990  -0.989   2.983  0.00  0.00    +0.004 A 
BRANCH  10  16
ATOM     16  C   UNL     1       0.742  -0.511   1.242  0.00  0.00    +0.038 C 
BRANCH  16  18
ATOM     17  C   UNL     1      -0.019   1.526   0.010  0.00  0.00    +0.007 C 
ATOM     18  C   UNL     1       0.002  -0.004   0.002  0.00  0.00    -0.013 C 
ATOM     19  C   UNL     1       0.718  -0.497  -1.257  0.00  0.00    +0.007 C 
ENDBRANCH  16  18
ENDBRANCH  10  16
ENDBRANCH   1  13
BRANCH   6  20
ATOM     20  C   UNL     1      -4.644   1.125   4.829  0.00  0.00    -0.001 A 
ATOM     21  C   UNL     1      -4.618   1.190   3.476  0.00  0.00    +0.012 A 
ATOM     22  C   UNL     1      -4.793   2.416   2.861  0.00  0.00    +0.008 A 
ATOM     23  C   UNL     1      -4.985   3.516   3.629  0.00  0.00    +0.045 A 
ATOM     24  S   UNL     1      -4.929   2.830   5.276  0.00  0.00    -0.101 S 
ENDBRANCH   6  20
BRANCH   8  25
ATOM     25  N   UNL     1      -7.026  -0.047   8.494  0.00  0.00    -0.328 N 
ATOM     26  H   UNL     1      -7.761  -0.479   8.033  0.00  0.00    +0.145 HD
ATOM     27  H   UNL     1      -7.131   0.241   9.414  0.00  0.00    +0.145 HD
ENDBRANCH   8  25
BRANCH   7  28
ATOM     28  C   UNL     1      -6.846  -0.899   5.964  0.00  0.00    +0.100 C 
ATOM     29  N   UNL     1      -7.742  -1.412   5.489  0.00  0.00    -0.191 NA
ENDBRANCH   7  28
TORSDOF 6
