REMARK  Name = ZINC64410880
REMARK  8 active torsions:
REMARK  status: ('A' for Active; 'I' for Inactive)
REMARK    1  A    between atoms: C_1  and  C_2
REMARK    2  A    between atoms: C_2  and  C_3
REMARK    3  A    between atoms: C_3  and  S_4
REMARK    4  A    between atoms: S_4  and  N_7
REMARK    5  A    between atoms: N_10  and  C_13
REMARK    6  A    between atoms: C_13  and  C_14
REMARK    7  A    between atoms: C_20  and  O_24
REMARK    8  A    between atoms: O_24  and  C_25
REMARK                            x       y       z     vdW  Elec       q    Type
REMARK                         _______ _______ _______ _____ _____    ______ ____
ROOT
ATOM      1  C   UNL     1       3.083  -5.526  -5.371  0.00  0.00    +0.131 C 
ENDROOT
BRANCH   1   2
ATOM      2  C   UNL     1       2.579  -5.452  -6.813  0.00  0.00    +0.188 C 
ATOM      3  N   UNL     1       1.134  -5.191  -6.829  0.00  0.00    -0.362 N 
ATOM      4  C   UNL     1       0.946  -4.064  -7.451  0.00  0.00    +0.060 A 
ATOM      5  C   UNL     1      -0.271  -3.302  -7.771  0.00  0.00    +0.031 A 
ATOM      6  C   UNL     1      -0.174  -2.138  -8.441  0.00  0.00    +0.048 A 
ATOM      7  C   UNL     1       1.111  -1.598  -8.865  0.00  0.00    +0.122 A 
ATOM      8  C   UNL     1       2.276  -2.241  -8.608  0.00  0.00    +0.073 A 
ATOM      9  C   UNL     1       2.259  -3.514  -7.884  0.00  0.00    +0.064 A 
ATOM     10  N   UNL     1       3.212  -4.326  -7.511  0.00  0.00    -0.362 N 
ATOM     11  H   UNL     1       0.446  -5.756  -6.445  0.00  0.00    +0.162 HD
ATOM     12  H   UNL     1       4.162  -4.208  -7.666  0.00  0.00    +0.162 HD
BRANCH   7  13
ATOM     13  O   UNL     1       1.142  -0.421  -9.537  0.00  0.00    -0.495 OA
ATOM     14  C   UNL     1      -0.112   0.218  -9.785  0.00  0.00    +0.277 C 
ENDBRANCH   7  13
ENDBRANCH   1   2
BRANCH   1  18
ATOM     15  N   UNL     1       2.264  -2.359  -2.742  0.00  0.00    -0.179 NA
ATOM     16  C   UNL     1       1.276  -2.621  -3.801  0.00  0.00    +0.124 C 
ATOM     17  C   UNL     1       1.481  -4.051  -4.314  0.00  0.00    +0.101 C 
ATOM     18  N   UNL     1       2.883  -4.228  -4.714  0.00  0.00    -0.296 NA
ATOM     19  C   UNL     1       3.789  -4.072  -3.568  0.00  0.00    +0.101 C 
ATOM     20  C   UNL     1       3.679  -2.638  -3.027  0.00  0.00    +0.124 C 
BRANCH  15  21
ATOM     21  S   UNL     1       1.794  -1.758  -1.272  0.00  0.00    +0.032 S 
ATOM     22  O   UNL     1       2.798  -2.194  -0.365  0.00  0.00    -0.158 OA
ATOM     23  O   UNL     1       0.447  -2.184  -1.120  0.00  0.00    -0.158 OA
BRANCH  21  24
ATOM     24  C   UNL     1       1.863   0.044  -1.461  0.00  0.00    +0.185 C 
BRANCH  24  26
ATOM     25  C   UNL     1       1.502   2.232  -0.308  0.00  0.00    +0.005 C 
ATOM     26  C   UNL     1       1.444   0.711  -0.149  0.00  0.00    +0.021 C 
ENDBRANCH  24  26
ENDBRANCH  21  24
ENDBRANCH  15  21
ENDBRANCH   1  18
TORSDOF 6
