REMARK  Name = ZINC58101791
REMARK  5 active torsions:
REMARK  status: ('A' for Active; 'I' for Inactive)
REMARK    1  A    between atoms: C_1  and  C_2
REMARK    2  A    between atoms: C_5  and  C_8
REMARK    3  A    between atoms: C_8  and  C_10
REMARK    4  A    between atoms: C_8  and  N_23
REMARK    5  A    between atoms: C_19  and  C_21
REMARK                            x       y       z     vdW  Elec       q    Type
REMARK                         _______ _______ _______ _____ _____    ______ ____
ROOT
ATOM      1  C   UNL     1       1.466  -4.761   0.215  0.00  0.00    -0.033 A 
ATOM      2  C   UNL     1       1.843  -5.193   1.470  0.00  0.00    +0.042 A 
ATOM      3  C   UNL     1       3.134  -5.641   1.697  0.00  0.00    +0.124 A 
ATOM      4  C   UNL     1       4.051  -5.654   0.657  0.00  0.00    +0.044 A 
ATOM      5  C   UNL     1       3.675  -5.223  -0.595  0.00  0.00    -0.012 A 
ATOM      6  C   UNL     1       2.381  -4.777  -0.836  0.00  0.00    +0.039 A 
ATOM      7  N   UNL     1       2.242  -4.402  -2.173  0.00  0.00    -0.285 N 
ATOM      8  C   UNL     1       3.377  -4.573  -2.871  0.00  0.00    +0.224 C 
ATOM      9  O   UNL     1       3.544  -4.330  -4.047  0.00  0.00    -0.275 OA
ATOM     10  C   UNL     1       4.414  -5.113  -1.909  0.00  0.00    +0.104 C 
ATOM     11  C   UNL     1       5.597  -4.152  -1.779  0.00  0.00    +0.022 C 
ATOM     12  F   UNL     1       3.498  -6.062   2.927  0.00  0.00    -0.205 F 
ATOM     13  H   UNL     1       1.419  -4.058  -2.555  0.00  0.00    +0.155 HD
ENDROOT
BRANCH   1  14
ATOM     14  C   UNL     1       0.059  -4.275  -0.021  0.00  0.00    -0.011 C 
BRANCH  14  19
ATOM     15  C   UNL     1      -0.018   1.503   0.010  0.00  0.00    +0.044 C 
ATOM     16  C   UNL     1       0.002  -0.004   0.002  0.00  0.00    -0.050 A 
ATOM     17  C   UNL     1       0.006  -0.689  -1.199  0.00  0.00    +0.003 A 
ATOM     18  C   UNL     1       0.025  -2.071  -1.206  0.00  0.00    +0.002 A 
ATOM     19  C   UNL     1       0.040  -2.768  -0.013  0.00  0.00    -0.058 A 
ATOM     20  C   UNL     1       0.037  -2.084   1.188  0.00  0.00    +0.002 A 
ATOM     21  C   UNL     1       0.023  -0.702   1.195  0.00  0.00    +0.003 A 
ENDBRANCH  14  19
BRANCH  14  22
ATOM     22  N   UNL     1      -0.819  -4.782   1.042  0.00  0.00    +0.385 N 
ATOM     23  H   UNL     1      -0.805  -5.791   1.036  0.00  0.00    -0.089 HD
ATOM     24  H   UNL     1      -0.493  -4.447   1.936  0.00  0.00    -0.089 HD
ATOM     25  H   UNL     1      -1.760  -4.457   0.883  0.00  0.00    -0.089 HD
ENDBRANCH  14  22
ENDBRANCH   1  14
TORSDOF 3
