REMARK  Name = ZINC35991386
REMARK  11 active torsions:
REMARK  status: ('A' for Active; 'I' for Inactive)
REMARK    1  A    between atoms: C_1  and  C_2
REMARK    2  A    between atoms: C_2  and  N_3
REMARK    3  A    between atoms: C_4  and  C_24
REMARK    4  A    between atoms: C_5  and  C_19
REMARK    5  A    between atoms: C_6  and  C_11
REMARK    6  A    between atoms: C_19  and  O_21
REMARK    7  A    between atoms: O_21  and  C_22
REMARK    8  A    between atoms: C_22  and  C_23
REMARK    9  A    between atoms: C_24  and  N_25
REMARK   10  A    between atoms: N_25  and  C_26
REMARK   11  A    between atoms: N_25  and  C_27
REMARK                            x       y       z     vdW  Elec       q    Type
REMARK                         _______ _______ _______ _____ _____    ______ ____
ROOT
ATOM      1  N   UNL     1       0.562  -0.285   0.828  0.00  0.00    -0.261 N 
ATOM      2  C   UNL     1       1.831  -0.774   0.706  0.00  0.00    +0.010 C 
ATOM      3  C   UNL     1       2.360  -1.585   1.648  0.00  0.00    +0.077 C 
ATOM      4  C   UNL     1       1.496  -1.932   2.844  0.00  0.00    +0.145 C 
ATOM      5  N   UNL     1       0.143  -1.353   2.881  0.00  0.00    -0.288 N 
ATOM      6  C   UNL     1      -0.241  -0.556   1.865  0.00  0.00    +0.307 C 
ATOM      7  O   UNL     1      -1.355  -0.069   1.887  0.00  0.00    -0.252 OA
ATOM      8  H   UNL     1      -0.457  -1.538   3.620  0.00  0.00    +0.151 HD
ENDROOT
BRANCH   4   9
ATOM      9  C   UNL     1       1.361  -3.432   2.900  0.00  0.00    -0.003 A 
ATOM     10  C   UNL     1       1.654  -4.194   1.784  0.00  0.00    +0.007 A 
ATOM     11  C   UNL     1       1.530  -5.570   1.834  0.00  0.00    +0.002 A 
ATOM     12  C   UNL     1       1.112  -6.185   2.999  0.00  0.00    +0.021 A 
ATOM     13  C   UNL     1       0.818  -5.424   4.116  0.00  0.00    +0.060 A 
ATOM     14  C   UNL     1       0.948  -4.046   4.068  0.00  0.00    +0.064 A 
ATOM     15 CL   UNL     1       0.587  -3.091   5.471  0.00  0.00    -0.082 Cl
ATOM     16 CL   UNL     1       0.292  -6.197   5.579  0.00  0.00    -0.082 Cl
ENDBRANCH   4   9
BRANCH   1  18
ATOM     17  C   UNL     1       0.342   2.047   0.127  0.00  0.00    +0.025 C 
ATOM     18  C   UNL     1       0.053   0.588  -0.232  0.00  0.00    +0.111 C 
ENDBRANCH   1  18
BRANCH   3  19
ATOM     19  C   UNL     1       3.674  -2.093   1.523  0.00  0.00    +0.339 C 
ATOM     20  O   UNL     1       4.352  -1.794   0.558  0.00  0.00    -0.245 OA
BRANCH  19  21
ATOM     21  O   UNL     1       4.175  -2.909   2.473  0.00  0.00    -0.462 OA
BRANCH  21  22
ATOM     22  C   UNL     1       5.509  -3.385   2.282  0.00  0.00    +0.229 C 
ATOM     23  C   UNL     1       5.901  -4.289   3.452  0.00  0.00    +0.048 C 
ENDBRANCH  21  22
ENDBRANCH  19  21
ENDBRANCH   3  19
BRANCH   2  24
ATOM     24  C   UNL     1       2.656  -0.404  -0.500  0.00  0.00    -0.026 C 
BRANCH  24  25
ATOM     25  N   UNL     1       2.615  -1.501  -1.476  0.00  0.00    +0.383 N 
ATOM     26  C   UNL     1       1.238  -1.680  -1.955  0.00  0.00    -0.095 C 
ATOM     27  H   UNL     1       2.933  -2.353  -1.039  0.00  0.00    -0.081 HD
BRANCH  25  28
ATOM     28  C   UNL     1       3.490  -1.178  -2.612  0.00  0.00    -0.068 C 
ATOM     29  C   UNL     1       3.448  -2.320  -3.629  0.00  0.00    -0.015 C 
ATOM     30  C   UNL     1       4.359  -1.984  -4.811  0.00  0.00    -0.002 C 
ATOM     31  C   UNL     1       5.793  -1.798  -4.313  0.00  0.00    -0.000 C 
ATOM     32  C   UNL     1       5.835  -0.655  -3.296  0.00  0.00    -0.002 C 
ATOM     33  C   UNL     1       4.925  -0.992  -2.114  0.00  0.00    -0.015 C 
ENDBRANCH  25  28
ENDBRANCH  24  25
ENDBRANCH   2  24
TORSDOF 8
