REMARK  Name = ZINC01069633
REMARK  10 active torsions:
REMARK  status: ('A' for Active; 'I' for Inactive)
REMARK    1  A    between atoms: C_1  and  C_2
REMARK    2  A    between atoms: C_2  and  O_3
REMARK    3  A    between atoms: O_3  and  C_4
REMARK    4  A    between atoms: C_7  and  C_13
REMARK    5  A    between atoms: C_8  and  O_10
REMARK    6  A    between atoms: O_10  and  C_11
REMARK    7  A    between atoms: C_11  and  C_12
REMARK    8  A    between atoms: C_20  and  N_33
REMARK    9  A    between atoms: C_21  and  C_31
REMARK   10  A    between atoms: C_22  and  C_24
REMARK                            x       y       z     vdW  Elec       q    Type
REMARK                         _______ _______ _______ _____ _____    ______ ____
ROOT
ATOM      1  C   UNL     1       1.151  -5.967   1.712  0.00  0.00    +0.104 A 
ATOM      2  C   UNL     1       0.573  -6.962   0.917  0.00  0.00    +0.054 A 
ATOM      3  C   UNL     1       0.932  -8.174   1.431  0.00  0.00    +0.223 A 
ATOM      4  N   UNL     1       1.707  -7.949   2.512  0.00  0.00    -0.246 N 
ATOM      5  H   UNL     1       2.106  -8.628   3.078  0.00  0.00    +0.192 HD
ATOM      6  N   UNL     1       1.838  -6.561   2.670  0.00  0.00    -0.170 NA
ATOM      7  O   UNL     1       0.533  -9.349   0.882  0.00  0.00    -0.423 OA
ATOM      8  C   UNL     1      -0.008  -9.310  -0.353  0.00  0.00    +0.200 C 
ATOM      9  C   UNL     1      -0.413  -8.172  -0.961  0.00  0.00    +0.098 C 
ATOM     10  C   UNL     1      -0.301  -6.820  -0.302  0.00  0.00    +0.102 C 
ENDROOT
BRANCH  10  11
ATOM     11  C   UNL     1      -1.669  -6.338   0.106  0.00  0.00    -0.034 A 
ATOM     12  C   UNL     1      -2.408  -7.056   1.028  0.00  0.00    +0.006 A 
ATOM     13  C   UNL     1      -3.663  -6.614   1.403  0.00  0.00    +0.020 A 
ATOM     14  C   UNL     1      -4.180  -5.454   0.855  0.00  0.00    +0.041 A 
ATOM     15  C   UNL     1      -3.440  -4.736  -0.068  0.00  0.00    +0.020 A 
ATOM     16  C   UNL     1      -2.183  -5.176  -0.438  0.00  0.00    +0.006 A 
ATOM     17 CL   UNL     1      -5.756  -4.899   1.325  0.00  0.00    -0.084 Cl
ENDBRANCH  10  11
BRANCH   1  21
ATOM     18  C   UNL     1       0.772  -1.766   1.135  0.00  0.00    +0.124 A 
ATOM     19  C   UNL     1       1.084  -2.591   0.061  0.00  0.00    +0.046 A 
ATOM     20  C   UNL     1       1.207  -3.952   0.246  0.00  0.00    +0.017 A 
ATOM     21  C   UNL     1       1.019  -4.503   1.511  0.00  0.00    +0.044 A 
ATOM     22  C   UNL     1       0.706  -3.672   2.592  0.00  0.00    +0.133 A 
ATOM     23  C   UNL     1       0.589  -2.306   2.399  0.00  0.00    +0.092 A 
BRANCH  18  24
ATOM     24  O   UNL     1       0.652  -0.426   0.947  0.00  0.00    -0.492 OA
BRANCH  24  26
ATOM     25  C   UNL     1       0.678   1.584  -0.395  0.00  0.00    +0.048 C 
ATOM     26  C   UNL     1       0.853   0.064  -0.380  0.00  0.00    +0.225 C 
ENDBRANCH  24  26
ENDBRANCH  18  24
BRANCH  22  27
ATOM     27  O   UNL     1       0.521  -4.204   3.828  0.00  0.00    -0.491 OA
BRANCH  27  28
ATOM     28  C   UNL     1       0.204  -3.295   4.884  0.00  0.00    +0.226 C 
ATOM     29  C   UNL     1       0.034  -4.072   6.192  0.00  0.00    +0.048 C 
ENDBRANCH  27  28
ENDBRANCH  22  27
ENDBRANCH   1  21
BRANCH   8  30
ATOM     30  N   UNL     1      -0.155 -10.493  -1.032  0.00  0.00    -0.328 N 
ATOM     31  H   UNL     1       0.127 -11.326  -0.623  0.00  0.00    +0.145 HD
ATOM     32  H   UNL     1      -0.540 -10.497  -1.923  0.00  0.00    +0.145 HD
ENDBRANCH   8  30
BRANCH   9  33
ATOM     33  C   UNL     1      -0.968  -8.254  -2.278  0.00  0.00    +0.101 C 
ATOM     34  N   UNL     1      -1.409  -8.319  -3.323  0.00  0.00    -0.191 NA
ENDBRANCH   9  33
TORSDOF 8
