REMARK  Name = ZINC39836363
REMARK  9 active torsions:
REMARK  status: ('A' for Active; 'I' for Inactive)
REMARK    1  A    between atoms: C_1  and  C_2
REMARK    2  A    between atoms: C_2  and  C_3
REMARK    3  A    between atoms: C_3  and  O_4
REMARK    4  A    between atoms: O_4  and  C_5
REMARK    5  A    between atoms: C_9  and  C_11
REMARK    6  A    between atoms: N_13  and  C_14
REMARK    7  A    between atoms: C_15  and  C_25
REMARK    8  A    between atoms: C_20  and  C_24
REMARK    9  A    between atoms: N_27  and  C_28
REMARK                            x       y       z     vdW  Elec       q    Type
REMARK                         _______ _______ _______ _____ _____    ______ ____
ROOT
ATOM      1  C   UNL     1       2.719  -7.974  -4.702  0.00  0.00    +0.085 A 
ATOM      2  C   UNL     1       3.294  -8.749  -5.698  0.00  0.00    +0.069 A 
ATOM      3  C   UNL     1       3.214 -10.191  -5.547  0.00  0.00    -0.023 A 
ATOM      4  C   UNL     1       2.574 -10.595  -4.428  0.00  0.00    -0.004 A 
ATOM      5  S   UNL     1       2.107  -9.096  -3.613  0.00  0.00    -0.077 S 
ATOM      6  C   UNL     1       2.328 -12.006  -3.992  0.00  0.00    +0.046 C 
ATOM      7  C   UNL     1       2.580 -12.932  -5.191  0.00  0.00    -0.009 C 
ATOM      8  C   UNL     1       3.914 -12.552  -5.839  0.00  0.00    +0.008 C 
ATOM      9  C   UNL     1       3.787 -11.195  -6.536  0.00  0.00    +0.037 C 
ATOM     10  C   UNL     1       2.634 -14.385  -4.713  0.00  0.00    +0.008 C 
ENDROOT
BRANCH   1  13
ATOM     11  C   UNL     1       2.067  -6.001  -3.570  0.00  0.00    +0.249 C 
ATOM     12  O   UNL     1       1.572  -6.680  -2.691  0.00  0.00    -0.270 OA
ATOM     13  N   UNL     1       2.667  -6.592  -4.622  0.00  0.00    -0.275 N 
ATOM     14  H   UNL     1       3.061  -6.050  -5.323  0.00  0.00    +0.156 HD
BRANCH  11  19
ATOM     15  C   UNL     1       1.341  -2.529  -2.322  0.00  0.00    +0.121 A 
ATOM     16  C   UNL     1       1.909  -1.760  -3.329  0.00  0.00    +0.046 A 
ATOM     17  C   UNL     1       2.524  -2.367  -4.408  0.00  0.00    +0.004 A 
ATOM     18  C   UNL     1       2.579  -3.744  -4.491  0.00  0.00    +0.013 A 
ATOM     19  C   UNL     1       2.011  -4.526  -3.484  0.00  0.00    +0.040 A 
ATOM     20  C   UNL     1       1.395  -3.911  -2.393  0.00  0.00    +0.058 A 
BRANCH  15  21
ATOM     21  O   UNL     1       0.738  -1.926  -1.265  0.00  0.00    -0.492 OA
BRANCH  21  22
ATOM     22  C   UNL     1       0.718  -0.497  -1.257  0.00  0.00    +0.229 C 
BRANCH  22  24
ATOM     23  C   UNL     1      -0.019   1.526   0.010  0.00  0.00    +0.007 C 
ATOM     24  C   UNL     1       0.002  -0.004   0.002  0.00  0.00    +0.038 C 
ENDBRANCH  22  24
ENDBRANCH  21  22
ENDBRANCH  15  21
ENDBRANCH  11  19
ENDBRANCH   1  13
BRANCH   2  25
ATOM     25  C   UNL     1       3.954  -8.138  -6.856  0.00  0.00    +0.247 C 
ATOM     26  O   UNL     1       5.143  -7.880  -6.812  0.00  0.00    -0.270 OA
ATOM     27  N   UNL     1       3.245  -7.861  -7.968  0.00  0.00    -0.307 N 
ATOM     28  H   UNL     1       2.298  -8.067  -8.003  0.00  0.00    +0.149 HD
BRANCH  27  29
ATOM     29  C   UNL     1       3.906  -7.251  -9.125  0.00  0.00    +0.096 C 
ATOM     30  C   UNL     1       3.915  -5.721  -8.969  0.00  0.00    +0.046 C 
ATOM     31  C   UNL     1       4.312  -5.057 -10.310  0.00  0.00    +0.168 C 
ATOM     32  S   UNL     1       3.739  -6.284 -11.554  0.00  0.00    -0.029 S 
ATOM     33  O   UNL     1       4.864  -6.778 -12.268  0.00  0.00    -0.174 OA
ATOM     34  O   UNL     1       2.640  -5.737 -12.270  0.00  0.00    -0.174 OA
ATOM     35  C   UNL     1       3.122  -7.600 -10.422  0.00  0.00    +0.188 C 
ENDBRANCH  27  29
ENDBRANCH   2  25
TORSDOF 7
