REMARK  Name = ZINC37129756
REMARK  3 active torsions:
REMARK  status: ('A' for Active; 'I' for Inactive)
REMARK    1  A    between atoms: C_1  and  C_2
REMARK    2  A    between atoms: C_7  and  N_10
REMARK    3  A    between atoms: N_10  and  C_11
REMARK                            x       y       z     vdW  Elec       q    Type
REMARK                         _______ _______ _______ _____ _____    ______ ____
ROOT
ATOM      1  C   UNL     1       1.197  -3.802   2.926  0.00  0.00    +0.044 A 
ATOM      2  C   UNL     1       0.258  -4.607   2.300  0.00  0.00    +0.051 A 
ATOM      3  C   UNL     1      -0.012  -5.870   2.803  0.00  0.00    +0.069 A 
ATOM      4  C   UNL     1       0.662  -6.327   3.938  0.00  0.00    +0.068 A 
ATOM      5  C   UNL     1       1.599  -5.517   4.560  0.00  0.00    +0.045 A 
ATOM      6  C   UNL     1       1.870  -4.261   4.053  0.00  0.00    +0.041 A 
ATOM      7 BR   UNL     1       3.155  -3.160   4.898  0.00  0.00    -0.048 Br
ATOM      8  N   UNL     1       0.185  -7.612   4.199  0.00  0.00    -0.306 N 
ATOM      9  H   UNL     1       0.468  -8.185   4.929  0.00  0.00    +0.170 HD
ATOM     10  C   UNL     1      -0.736  -7.920   3.266  0.00  0.00    +0.325 A 
ATOM     11  O   UNL     1      -1.348  -8.970   3.205  0.00  0.00    -0.247 OA
ATOM     12  N   UNL     1      -0.877  -6.890   2.410  0.00  0.00    -0.306 N 
ATOM     13  H   UNL     1      -1.478  -6.862   1.650  0.00  0.00    +0.170 HD
ENDROOT
BRANCH   1  14
ATOM     14  N   UNL     1       1.471  -2.526   2.420  0.00  0.00    -0.340 N 
ATOM     15  H   UNL     1       2.131  -1.963   2.855  0.00  0.00    +0.146 HD
BRANCH  14  21
ATOM     16  C   UNL     1      -0.019   1.526   0.010  0.00  0.00    +0.007 C 
ATOM     17  C   UNL     1       0.002  -0.004   0.002  0.00  0.00    -0.012 C 
ATOM     18  C   UNL     1       0.718  -0.497  -1.257  0.00  0.00    +0.003 C 
ATOM     19  C   UNL     1       0.739  -2.027  -1.265  0.00  0.00    +0.002 C 
ATOM     20  C   UNL     1       1.479  -2.534  -0.026  0.00  0.00    +0.022 C 
ATOM     21  C   UNL     1       0.763  -2.041   1.233  0.00  0.00    +0.071 C 
ATOM     22  C   UNL     1       0.742  -0.511   1.242  0.00  0.00    +0.025 C 
ENDBRANCH  14  21
ENDBRANCH   1  14
TORSDOF 2
