REMARK  Name = ZINC02253605
REMARK  11 active torsions:
REMARK  status: ('A' for Active; 'I' for Inactive)
REMARK    1  A    between atoms: C_1  and  C_2
REMARK    2  A    between atoms: N_8  and  C_9
REMARK    3  A    between atoms: C_9  and  C_10
REMARK    4  A    between atoms: C_10  and  C_11
REMARK    5  A    between atoms: C_14  and  O_19
REMARK    6  A    between atoms: C_15  and  O_17
REMARK    7  A    between atoms: O_17  and  C_18
REMARK    8  A    between atoms: O_19  and  C_20
REMARK    9  A    between atoms: C_21  and  C_29
REMARK   10  A    between atoms: C_23  and  C_27
REMARK   11  A    between atoms: C_24  and  N_26
REMARK                            x       y       z     vdW  Elec       q    Type
REMARK                         _______ _______ _______ _____ _____    ______ ____
ROOT
ATOM      1  C   UNL     1       3.803   5.299  -4.858  0.00  0.00    +0.064 C 
ATOM      2  C   UNL     1       3.793   4.531  -3.561  0.00  0.00    +0.022 A 
ATOM      3  C   UNL     1       3.687   5.193  -2.399  0.00  0.00    +0.068 A 
ATOM      4  C   UNL     1       3.674   4.482  -1.181  0.00  0.00    +0.141 A 
ATOM      5  C   UNL     1       3.775   3.109  -1.208  0.00  0.00    +0.072 A 
ATOM      6  C   UNL     1       3.887   2.460  -2.444  0.00  0.00    +0.259 A 
ATOM      7  O   UNL     1       3.978   1.243  -2.488  0.00  0.00    -0.267 OA
ATOM      8  N   UNL     1       3.893   3.176  -3.584  0.00  0.00    -0.312 N 
ATOM      9  C   UNL     1       3.767   2.308   0.065  0.00  0.00    +0.103 C 
ATOM     10  C   UNL     1       4.037   3.206   1.240  0.00  0.00    +0.098 C 
ATOM     11  C   UNL     1       3.922   4.551   1.137  0.00  0.00    +0.199 C 
ATOM     12  O   UNL     1       3.563   5.149  -0.013  0.00  0.00    -0.441 OA
ENDROOT
BRANCH   9  13
ATOM     13  C   UNL     1       2.420   1.654   0.234  0.00  0.00    -0.033 A 
ATOM     14  C   UNL     1       2.324   0.277   0.299  0.00  0.00    +0.006 A 
ATOM     15  C   UNL     1       1.089  -0.325   0.455  0.00  0.00    +0.022 A 
ATOM     16  C   UNL     1      -0.052   0.453   0.546  0.00  0.00    +0.059 A 
ATOM     17  C   UNL     1       0.044   1.832   0.481  0.00  0.00    +0.060 A 
ATOM     18  C   UNL     1       1.281   2.432   0.325  0.00  0.00    +0.026 A 
ATOM     19 CL   UNL     1      -1.387   2.808   0.587  0.00  0.00    -0.082 Cl
ATOM     20 CL   UNL     1      -1.603  -0.302   0.741  0.00  0.00    -0.082 Cl
ENDBRANCH   9  13
BRANCH  11  21
ATOM     21  N   UNL     1       4.178   5.328   2.240  0.00  0.00    -0.328 N 
ATOM     22  H   UNL     1       4.437   4.912   3.077  0.00  0.00    +0.145 HD
ATOM     23  H   UNL     1       4.099   6.293   2.182  0.00  0.00    +0.145 HD
ENDBRANCH  11  21
BRANCH  10  24
ATOM     24  C   UNL     1       4.423   2.628   2.492  0.00  0.00    +0.101 C 
ATOM     25  N   UNL     1       4.729   2.169   3.485  0.00  0.00    -0.191 NA
ENDBRANCH  10  24
BRANCH   8  26
ATOM     26  C   UNL     1       4.009   2.483  -4.870  0.00  0.00    +0.130 C 
BRANCH  26  27
ATOM     27  C   UNL     1       2.616   2.089  -5.365  0.00  0.00    +0.057 C 
BRANCH  27  28
ATOM     28  C   UNL     1       2.736   1.377  -6.688  0.00  0.00    -0.042 A 
ATOM     29  C   UNL     1       2.693   2.098  -7.866  0.00  0.00    +0.007 A 
ATOM     30  C   UNL     1       2.808   1.450  -9.082  0.00  0.00    +0.049 A 
ATOM     31  C   UNL     1       2.956   0.073  -9.121  0.00  0.00    +0.161 A 
ATOM     32  C   UNL     1       2.994  -0.654  -7.935  0.00  0.00    +0.162 A 
ATOM     33  C   UNL     1       2.884   0.003  -6.720  0.00  0.00    +0.053 A 
BRANCH  32  34
ATOM     34  O   UNL     1       3.140  -2.006  -7.969  0.00  0.00    -0.491 OA
ATOM     35  C   UNL     1       3.171  -2.686  -6.712  0.00  0.00    +0.277 C 
ENDBRANCH  32  34
BRANCH  31  36
ATOM     36  O   UNL     1       3.064  -0.567 -10.316  0.00  0.00    -0.491 OA
ATOM     37  C   UNL     1       3.017   0.243 -11.492  0.00  0.00    +0.277 C 
ENDBRANCH  31  36
ENDBRANCH  27  28
ENDBRANCH  26  27
ENDBRANCH   8  26
TORSDOF 8
