REMARK  Name = ZINC39674606
REMARK  8 active torsions:
REMARK  status: ('A' for Active; 'I' for Inactive)
REMARK    1  A    between atoms: C_1  and  C_2
REMARK    2  A    between atoms: C_7  and  C_8
REMARK    3  A    between atoms: C_12  and  C_21
REMARK    4  A    between atoms: N_23  and  C_24
REMARK    5  A    between atoms: C_24  and  C_25
REMARK    6  A    between atoms: C_25  and  C_26
REMARK    7  A    between atoms: C_29  and  C_37
REMARK    8  A    between atoms: C_34  and  C_36
REMARK                            x       y       z     vdW  Elec       q    Type
REMARK                         _______ _______ _______ _____ _____    ______ ____
ROOT
ATOM      1  C   UNL     1       0.117   0.199   2.410  0.00  0.00    +0.247 C 
ATOM      2  O   UNL     1      -0.024   1.405   2.357  0.00  0.00    -0.270 OA
ATOM      3  N   UNL     1       0.321  -0.403   3.599  0.00  0.00    -0.296 N 
ATOM      4  C   UNL     1       0.601  -1.836   3.854  0.00  0.00    +0.121 C 
ATOM      5  C   UNL     1       1.656  -1.831   4.984  0.00  0.00    +0.100 C 
ATOM      6  C   UNL     1       1.462  -0.483   5.696  0.00  0.00    -0.004 C 
ATOM      7  C   UNL     1       0.322   0.219   4.944  0.00  0.00    +0.115 C 
ATOM      8  C   UNL     1       1.076  -0.706   7.155  0.00  0.00    -0.010 C 
ATOM      9  C   UNL     1       0.946   0.648   7.857  0.00  0.00    -0.082 C 
ATOM     10  N   UNL     1       2.221   1.369   7.774  0.00  0.00    +0.379 N 
ATOM     11  C   UNL     1       2.540   1.662   6.371  0.00  0.00    -0.082 C 
ATOM     12  C   UNL     1       2.737   0.350   5.606  0.00  0.00    -0.010 C 
ATOM     13  H   UNL     1       2.152   2.234   8.289  0.00  0.00    -0.086 HD
ATOM     14  H   UNL     1       2.954   0.801   8.172  0.00  0.00    -0.086 HD
ENDROOT
BRANCH   1  21
ATOM     15  C   UNL     1      -2.145   0.461   0.626  0.00  0.00    +0.044 C 
ATOM     16  C   UNL     1      -1.021  -0.489   0.304  0.00  0.00    -0.038 A 
ATOM     17  C   UNL     1      -1.060  -1.240  -0.853  0.00  0.00    +0.004 A 
ATOM     18  C   UNL     1      -0.029  -2.113  -1.150  0.00  0.00    +0.000 A 
ATOM     19  C   UNL     1       1.049  -2.239  -0.291  0.00  0.00    +0.001 A 
ATOM     20  C   UNL     1       1.101  -1.494   0.869  0.00  0.00    +0.013 A 
ATOM     21  C   UNL     1       0.066  -0.607   1.172  0.00  0.00    +0.040 A 
ENDBRANCH   1  21
BRANCH   5  22
ATOM     22  C   UNL     1       1.409  -2.972   5.937  0.00  0.00    +0.218 C 
ATOM     23  O   UNL     1       0.274  -3.329   6.174  0.00  0.00    -0.275 OA
ATOM     24  N   UNL     1       2.448  -3.595   6.527  0.00  0.00    -0.315 N 
ATOM     25  H   UNL     1       3.356  -3.309   6.338  0.00  0.00    +0.149 HD
BRANCH  24  26
ATOM     26  C   UNL     1       2.208  -4.703   7.454  0.00  0.00    +0.108 C 
BRANCH  26  27
ATOM     27  C   UNL     1       3.546  -5.229   7.979  0.00  0.00    +0.052 C 
BRANCH  27  28
ATOM     28  C   UNL     1       3.298  -6.369   8.932  0.00  0.00    -0.037 C 
ATOM     29  C   UNL     1       2.095  -6.886   9.292  0.00  0.00    +0.000 A 
ATOM     30  C   UNL     1       0.769  -6.547   8.918  0.00  0.00    +0.028 A 
ATOM     31  C   UNL     1      -0.295  -7.244   9.442  0.00  0.00    +0.052 A 
ATOM     32  C   UNL     1      -0.094  -8.338  10.386  0.00  0.00    +0.021 A 
ATOM     33  C   UNL     1       1.144  -8.704  10.778  0.00  0.00    +0.027 A 
ATOM     34  C   UNL     1       2.314  -7.993  10.249  0.00  0.00    +0.043 A 
ATOM     35  N   UNL     1       3.595  -8.156  10.472  0.00  0.00    -0.378 N 
ATOM     36  C   UNL     1       4.339  -7.174   9.676  0.00  0.00    +0.103 C 
ATOM     37  C   UNL     1       5.264  -7.884   8.686  0.00  0.00    +0.035 C 
ATOM     38  H   UNL     1       3.987  -8.820  11.062  0.00  0.00    +0.160 HD
BRANCH  31  39
ATOM     39  C   UNL     1      -1.627  -6.888   9.053  0.00  0.00    +0.099 C 
ATOM     40  N   UNL     1      -2.683  -6.606   8.745  0.00  0.00    -0.191 NA
ENDBRANCH  31  39
ENDBRANCH  27  28
ENDBRANCH  26  27
ENDBRANCH  24  26
ENDBRANCH   5  22
TORSDOF 6
