REMARK  Name = ZINC45412133
REMARK  9 active torsions:
REMARK  status: ('A' for Active; 'I' for Inactive)
REMARK    1  A    between atoms: C_1  and  C_2
REMARK    2  A    between atoms: C_7  and  C_11
REMARK    3  A    between atoms: C_11  and  O_13
REMARK    4  A    between atoms: O_13  and  C_14
REMARK    5  A    between atoms: C_14  and  C_15
REMARK    6  A    between atoms: C_15  and  C_17
REMARK    7  A    between atoms: C_19  and  C_31
REMARK    8  A    between atoms: N_20  and  C_23
REMARK    9  A    between atoms: C_21  and  C_22
REMARK                            x       y       z     vdW  Elec       q    Type
REMARK                         _______ _______ _______ _____ _____    ______ ____
ROOT
ATOM      1  C   UNL     1      -0.151  -6.595   5.811  0.00  0.00    +0.202 C 
ATOM      2  O   UNL     1      -0.372  -5.501   6.288  0.00  0.00    -0.288 OA
ENDROOT
BRANCH   1   3
ATOM      3  C   UNL     1       0.013  -7.756   6.689  0.00  0.00    +0.042 A 
ATOM      4  C   UNL     1       0.290  -9.140   6.283  0.00  0.00    +0.034 A 
ATOM      5  C   UNL     1       0.358  -9.860   7.415  0.00  0.00    +0.017 A 
ATOM      6  N   UNL     1       0.146  -9.037   8.483  0.00  0.00    -0.343 N 
ATOM      7  C   UNL     1      -0.056  -7.773   8.069  0.00  0.00    +0.027 A 
ATOM      8  C   UNL     1      -0.316  -6.583   8.956  0.00  0.00    +0.064 C 
ATOM      9  C   UNL     1       0.625 -11.341   7.494  0.00  0.00    +0.063 C 
BRANCH   6  10
ATOM     10  C   UNL     1       0.146  -9.468   9.883  0.00  0.00    +0.110 C 
ATOM     11  C   UNL     1       1.456 -10.208  10.199  0.00  0.00    +0.049 C 
ATOM     12  C   UNL     1       1.335 -10.939  11.558  0.00  0.00    +0.168 C 
ATOM     13  S   UNL     1      -0.469 -11.276  11.676  0.00  0.00    -0.029 S 
ATOM     14  O   UNL     1      -0.997 -10.579  12.796  0.00  0.00    -0.174 OA
ATOM     15  O   UNL     1      -0.686 -12.675  11.558  0.00  0.00    -0.174 OA
ATOM     16  C   UNL     1      -1.036 -10.448  10.131  0.00  0.00    +0.191 C 
ENDBRANCH   6  10
ENDBRANCH   1   3
BRANCH   1  17
ATOM     17  C   UNL     1      -0.043  -6.759   4.317  0.00  0.00    +0.312 C 
BRANCH  17  18
ATOM     18  O   UNL     1      -0.239  -5.492   3.684  0.00  0.00    -0.452 OA
BRANCH  18  19
ATOM     19  C   UNL     1      -0.173  -5.465   2.338  0.00  0.00    +0.360 C 
ATOM     20  O   UNL     1       0.043  -6.488   1.720  0.00  0.00    -0.243 OA
BRANCH  19  27
ATOM     21  C   UNL     1      -1.314   1.485   0.130  0.00  0.00    +0.044 C 
ATOM     22  C   UNL     1      -1.044   0.003   0.106  0.00  0.00    -0.046 A 
ATOM     23  C   UNL     1      -0.860  -0.661  -1.120  0.00  0.00    +0.021 A 
ATOM     24  C   UNL     1      -0.619  -1.987  -1.147  0.00  0.00    +0.093 A 
ATOM     25  N   UNL     1      -0.549  -2.706   0.014  0.00  0.00    -0.306 N 
ATOM     26  C   UNL     1      -0.325  -4.026   0.261  0.00  0.00    +0.127 A 
ATOM     27  C   UNL     1      -0.365  -4.193   1.617  0.00  0.00    +0.166 A 
ATOM     28  N   UNL     1      -0.610  -2.995   2.180  0.00  0.00    -0.221 NA
ATOM     29  C   UNL     1      -0.724  -2.086   1.226  0.00  0.00    +0.139 A 
ATOM     30  C   UNL     1      -0.972  -0.697   1.269  0.00  0.00    +0.050 A 
ENDBRANCH  19  27
ENDBRANCH  18  19
ENDBRANCH  17  18
ENDBRANCH   1  17
TORSDOF 6
