REMARK  Name = ZINC55404430
REMARK  7 active torsions:
REMARK  status: ('A' for Active; 'I' for Inactive)
REMARK    1  A    between atoms: C_1  and  C_2
REMARK    2  A    between atoms: C_5  and  C_8
REMARK    3  A    between atoms: C_8  and  N_9
REMARK    4  A    between atoms: N_9  and  C_10
REMARK    5  A    between atoms: C_10  and  C_11
REMARK    6  A    between atoms: C_14  and  S_16
REMARK    7  A    between atoms: S_16  and  C_17
REMARK                            x       y       z     vdW  Elec       q    Type
REMARK                         _______ _______ _______ _____ _____    ______ ____
ROOT
ATOM      1  C   UNL     1      -2.713  -6.652  -0.317  0.00  0.00    +0.090 A 
ATOM      2  C   UNL     1      -3.352  -6.929  -1.468  0.00  0.00    +0.044 A 
ATOM      3  C   UNL     1      -4.637  -7.404  -1.121  0.00  0.00    +0.057 A 
ATOM      4  C   UNL     1      -4.708  -7.389   0.231  0.00  0.00    +0.166 A 
ATOM      5  O   UNL     1      -3.536  -6.937   0.709  0.00  0.00    -0.455 OA
ENDROOT
BRANCH   1   6
ATOM      6  C   UNL     1      -1.309  -6.117  -0.197  0.00  0.00    -0.006 C 
BRANCH   6   7
ATOM      7  N   UNL     1      -1.343  -4.649  -0.192  0.00  0.00    +0.387 N 
ATOM      8  H   UNL     1      -1.893  -4.328   0.591  0.00  0.00    -0.085 HD
ATOM      9  H   UNL     1      -1.757  -4.319  -1.051  0.00  0.00    -0.085 HD
BRANCH   7  10
ATOM     10  C   UNL     1       0.025  -4.128  -0.075  0.00  0.00    -0.024 C 
BRANCH  10  15
ATOM     11  C   UNL     1      -0.107   1.558   0.000  0.00  0.00    +0.067 C 
ATOM     12  C   UNL     1      -0.072   0.052  -0.005  0.00  0.00    +0.056 A 
ATOM     13  C   UNL     1      -0.061  -0.636  -1.206  0.00  0.00    +0.134 A 
ATOM     14  N   UNL     1      -0.030  -1.957  -1.211  0.00  0.00    -0.259 NA
ATOM     15  C   UNL     1      -0.010  -2.621  -0.069  0.00  0.00    +0.042 A 
ATOM     16  C   UNL     1      -0.021  -1.934   1.131  0.00  0.00    +0.132 A 
ATOM     17  N   UNL     1      -0.047  -0.613   1.136  0.00  0.00    -0.257 NA
ENDBRANCH  10  15
ENDBRANCH   7  10
ENDBRANCH   6   7
ENDBRANCH   1   6
BRANCH   4  18
ATOM     18  S   UNL     1      -6.096  -7.883   1.198  0.00  0.00    -0.052 S 
BRANCH  18  19
ATOM     19  C   UNL     1      -5.517  -7.781   2.859  0.00  0.00    +0.016 A 
ATOM     20  C   UNL     1      -5.744  -6.632   3.607  0.00  0.00    +0.016 A 
ATOM     21  C   UNL     1      -5.288  -6.555   4.908  0.00  0.00    +0.021 A 
ATOM     22  C   UNL     1      -4.606  -7.621   5.468  0.00  0.00    +0.041 A 
ATOM     23  C   UNL     1      -4.378  -8.767   4.725  0.00  0.00    +0.021 A 
ATOM     24  C   UNL     1      -4.836  -8.852   3.426  0.00  0.00    +0.016 A 
ATOM     25 CL   UNL     1      -4.034  -7.521   7.103  0.00  0.00    -0.084 Cl
ENDBRANCH  18  19
ENDBRANCH   4  18
TORSDOF 6
