REMARK  Name = ZINC43090653
REMARK  5 active torsions:
REMARK  status: ('A' for Active; 'I' for Inactive)
REMARK    1  A    between atoms: C_5  and  C_7
REMARK    2  A    between atoms: C_7  and  C_9
REMARK    3  A    between atoms: C_7  and  N_11
REMARK    4  A    between atoms: C_9  and  N_10
REMARK    5  A    between atoms: C_15  and  C_18
REMARK                            x       y       z     vdW  Elec       q    Type
REMARK                         _______ _______ _______ _____ _____    ______ ____
ROOT
ATOM      1  C   UNL     1       1.229  -2.186  -0.022  0.00  0.00    +0.070 C 
ENDROOT
BRANCH   1   6
ATOM      2  C   UNL     1       0.494   1.141  -1.649  0.00  0.00    +0.000 A 
ATOM      3  C   UNL     1       0.881   2.024  -0.659  0.00  0.00    +0.001 A 
ATOM      4  C   UNL     1       1.380   1.546   0.538  0.00  0.00    +0.015 A 
ATOM      5  C   UNL     1       1.492   0.183   0.745  0.00  0.00    +0.022 A 
ATOM      6  C   UNL     1       1.106  -0.701  -0.246  0.00  0.00    -0.018 A 
ATOM      7  C   UNL     1       0.607  -0.221  -1.443  0.00  0.00    +0.006 A 
ATOM      8 BR   UNL     1       2.176  -0.472   2.382  0.00  0.00    -0.050 Br
ENDBRANCH   1   6
BRANCH   1   9
ATOM      9  N   UNL     1      -0.014  -2.696   0.573  0.00  0.00    -0.296 NA
ATOM     10  C   UNL     1      -1.179  -2.320  -0.239  0.00  0.00    +0.085 C 
ATOM     11  C   UNL     1      -2.434  -2.987   0.328  0.00  0.00    +0.016 C 
ATOM     12  C   UNL     1      -2.633  -2.540   1.778  0.00  0.00    +0.015 C 
ATOM     13  C   UNL     1      -1.387  -2.900   2.591  0.00  0.00    +0.089 C 
ATOM     14  C   UNL     1      -0.162  -2.235   1.959  0.00  0.00    +0.097 C 
BRANCH  13  15
ATOM     15  C   UNL     1      -1.551  -2.411   4.007  0.00  0.00    +0.215 C 
ATOM     16  O   UNL     1      -0.764  -1.612   4.468  0.00  0.00    -0.276 OA
ATOM     17  N   UNL     1      -2.572  -2.863   4.762  0.00  0.00    -0.329 N 
ATOM     18  H   UNL     1      -3.202  -3.502   4.393  0.00  0.00    +0.145 HD
ATOM     19  H   UNL     1      -2.678  -2.548   5.673  0.00  0.00    +0.145 HD
ENDBRANCH  13  15
ENDBRANCH   1   9
BRANCH   1  20
ATOM     20  C   UNL     1       1.478  -2.885  -1.360  0.00  0.00    -0.063 C 
BRANCH  20  21
ATOM     21  N   UNL     1       1.479  -4.340  -1.159  0.00  0.00    +0.379 N 
ATOM     22  H   UNL     1       2.208  -4.590  -0.508  0.00  0.00    -0.090 HD
ATOM     23  H   UNL     1       0.585  -4.629  -0.790  0.00  0.00    -0.090 HD
ATOM     24  H   UNL     1       1.643  -4.801  -2.042  0.00  0.00    -0.090 HD
ENDBRANCH  20  21
ENDBRANCH   1  20
TORSDOF 5
