REMARK  Name = ZINC66859909
REMARK  5 active torsions:
REMARK  status: ('A' for Active; 'I' for Inactive)
REMARK    1  A    between atoms: C_10  and  C_11
REMARK    2  A    between atoms: C_10  and  O_21
REMARK    3  A    between atoms: C_11  and  N_12
REMARK    4  A    between atoms: N_12  and  C_13
REMARK    5  A    between atoms: C_14  and  C_19
REMARK                            x       y       z     vdW  Elec       q    Type
REMARK                         _______ _______ _______ _____ _____    ______ ____
ROOT
ATOM      1  C   UNL     1       0.010   1.425  -0.051  0.00  0.00    +0.000 A 
ATOM      2  C   UNL     1       1.211   2.109  -0.070  0.00  0.00    +0.000 A 
ATOM      3  C   UNL     1       2.399   1.407  -0.064  0.00  0.00    +0.007 A 
ATOM      4  C   UNL     1       2.398   0.018  -0.037  0.00  0.00    -0.011 A 
ATOM      5  C   UNL     1       1.202  -0.663  -0.014  0.00  0.00    -0.041 A 
ATOM      6  C   UNL     1       0.007   0.046  -0.024  0.00  0.00    +0.004 A 
ATOM      7  C   UNL     1       1.125  -2.166   0.031  0.00  0.00    +0.035 C 
ATOM      8  C   UNL     1       2.456  -2.785  -0.392  0.00  0.00    +0.008 C 
ATOM      9  C   UNL     1       3.576  -2.131   0.425  0.00  0.00    +0.041 C 
ATOM     10  C   UNL     1       3.731  -0.684  -0.040  0.00  0.00    +0.106 C 
ENDROOT
BRANCH  10  11
ATOM     11  O   UNL     1       4.268  -0.670  -1.364  0.00  0.00    -0.382 OA
ATOM     12  H   UNL     1       4.410   0.217  -1.721  0.00  0.00    +0.211 HD
ENDBRANCH  10  11
BRANCH  10  13
ATOM     13  C   UNL     1       4.689   0.049   0.901  0.00  0.00    +0.141 C 
BRANCH  13  14
ATOM     14  N   UNL     1       5.959  -0.679   0.968  0.00  0.00    -0.333 N 
ATOM     15  H   UNL     1       6.109  -1.447   0.395  0.00  0.00    +0.147 HD
BRANCH  14  16
ATOM     16  C   UNL     1       6.943  -0.271   1.849  0.00  0.00    +0.105 A 
ATOM     17  C   UNL     1       8.209  -0.823   2.056  0.00  0.00    +0.118 A 
ATOM     18  C   UNL     1       8.969  -0.169   3.027  0.00  0.00    +0.157 A 
ATOM     19  N   UNL     1       8.428   0.859   3.620  0.00  0.00    -0.196 NA
ATOM     20  S   UNL     1       6.914   1.014   2.927  0.00  0.00    +0.029 S 
ATOM     21 CL   UNL     1      10.570  -0.703   3.431  0.00  0.00    -0.060 Cl
BRANCH  17  22
ATOM     22  C   UNL     1       8.687  -1.963   1.334  0.00  0.00    +0.105 C 
ATOM     23  N   UNL     1       9.066  -2.868   0.761  0.00  0.00    -0.191 NA
ENDBRANCH  17  22
ENDBRANCH  14  16
ENDBRANCH  13  14
ENDBRANCH  10  13
TORSDOF 5
