REMARK  Name = ZINC16021067
REMARK  5 active torsions:
REMARK  status: ('A' for Active; 'I' for Inactive)
REMARK    1  A    between atoms: C_1  and  C_2
REMARK    2  A    between atoms: C_2  and  C_3
REMARK    3  A    between atoms: C_2  and  C_4
REMARK    4  A    between atoms: N_12  and  C_15
REMARK    5  A    between atoms: C_15  and  C_16
REMARK                            x       y       z     vdW  Elec       q    Type
REMARK                         _______ _______ _______ _____ _____    ______ ____
ROOT
ATOM      1  C   UNL     1      -1.462  -0.506   0.025  0.00  0.00    +0.070 C 
ATOM      2  C   UNL     1      -1.423  -2.049  -0.001  0.00  0.00    +0.107 C 
ATOM      3  C   UNL     1      -2.603  -2.461  -0.925  0.00  0.00    +0.122 C 
ATOM      4  C   UNL     1      -3.551  -3.170   0.015  0.00  0.00    +0.229 C 
ATOM      5  O   UNL     1      -4.617  -3.655  -0.299  0.00  0.00    -0.275 OA
ATOM      6  N   UNL     1      -3.032  -3.177   1.248  0.00  0.00    -0.237 N 
ATOM      7  C   UNL     1      -1.824  -2.577   1.358  0.00  0.00    +0.227 C 
ATOM      8  O   UNL     1      -1.167  -2.473   2.372  0.00  0.00    -0.275 OA
ATOM      9  C   UNL     1      -3.210  -1.133  -1.393  0.00  0.00    +0.136 C 
ATOM     10  N   UNL     1      -2.158  -0.119  -1.231  0.00  0.00    -0.295 NA
ATOM     11  C   UNL     1      -4.424  -0.767  -0.588  0.00  0.00    +0.006 A 
ATOM     12  C   UNL     1      -4.639  -0.542   0.753  0.00  0.00    +0.046 A 
ATOM     13  C   UNL     1      -5.906  -0.211   1.206  0.00  0.00    +0.124 A 
ATOM     14  C   UNL     1      -6.953  -0.106   0.306  0.00  0.00    +0.040 A 
ATOM     15  C   UNL     1      -6.740  -0.331  -1.038  0.00  0.00    +0.026 A 
ATOM     16  C   UNL     1      -5.469  -0.665  -1.501  0.00  0.00    +0.039 A 
ATOM     17  N   UNL     1      -5.011  -0.937  -2.793  0.00  0.00    -0.283 N 
ATOM     18  C   UNL     1      -3.694  -1.221  -2.815  0.00  0.00    +0.243 C 
ATOM     19  O   UNL     1      -3.028  -1.494  -3.791  0.00  0.00    -0.273 OA
ATOM     20  F   UNL     1      -6.119   0.009   2.522  0.00  0.00    -0.205 F 
ATOM     21  H   UNL     1      -2.550   0.808  -1.156  0.00  0.00    +0.124 HD
ATOM     22  H   UNL     1      -5.574  -0.922  -3.582  0.00  0.00    +0.155 HD
ENDROOT
BRANCH   1  24
ATOM     23  C   UNL     1      -0.102   1.591   0.028  0.00  0.00    +0.009 C 
ATOM     24  C   UNL     1      -0.041   0.062   0.042  0.00  0.00    +0.001 C 
ATOM     25  C   UNL     1       0.681  -0.408   1.306  0.00  0.00    +0.009 C 
ENDBRANCH   1  24
BRANCH   6  26
ATOM     26  C   UNL     1      -3.712  -3.792   2.390  0.00  0.00    +0.153 C 
BRANCH  26  27
ATOM     27  C   UNL     1      -3.435  -5.274   2.402  0.00  0.00    -0.011 A 
ATOM     28  C   UNL     1      -4.335  -6.150   1.825  0.00  0.00    +0.006 A 
ATOM     29  C   UNL     1      -4.080  -7.509   1.835  0.00  0.00    +0.000 A 
ATOM     30  C   UNL     1      -2.926  -7.992   2.423  0.00  0.00    +0.001 A 
ATOM     31  C   UNL     1      -2.026  -7.117   3.001  0.00  0.00    +0.020 A 
ATOM     32  C   UNL     1      -2.277  -5.756   2.986  0.00  0.00    +0.046 A 
ATOM     33 CL   UNL     1      -1.144  -4.656   3.705  0.00  0.00    -0.083 Cl
ENDBRANCH  26  27
ENDBRANCH   6  26
TORSDOF 3
