REMARK  Name = ZINC04453701
REMARK  10 active torsions:
REMARK  status: ('A' for Active; 'I' for Inactive)
REMARK    1  A    between atoms: C_1  and  N_2
REMARK    2  A    between atoms: N_2  and  C_3
REMARK    3  A    between atoms: N_2  and  C_4
REMARK    4  A    between atoms: C_7  and  C_10
REMARK    5  A    between atoms: C_11  and  C_12
REMARK    6  A    between atoms: C_11  and  C_14
REMARK    7  A    between atoms: C_15  and  N_25
REMARK    8  A    between atoms: C_16  and  C_23
REMARK    9  A    between atoms: C_17  and  N_22
REMARK   10  A    between atoms: C_18  and  C_20
REMARK                            x       y       z     vdW  Elec       q    Type
REMARK                         _______ _______ _______ _____ _____    ______ ____
ROOT
ATOM      1  C   UNL     1      -4.983   1.080  -0.067  0.00  0.00    +0.105 A 
ATOM      2  C   UNL     1      -5.974   1.315   0.903  0.00  0.00    +0.071 A 
ATOM      3  C   UNL     1      -7.204   0.644   0.798  0.00  0.00    +0.098 A 
ATOM      4  C   UNL     1      -7.384  -0.247  -0.277  0.00  0.00    +0.080 A 
ATOM      5  C   UNL     1      -6.339  -0.424  -1.196  0.00  0.00    +0.163 A 
ATOM      6  N   UNL     1      -5.193   0.234  -1.062  0.00  0.00    -0.232 NA
ENDROOT
BRANCH   4   7
ATOM      7  N   UNL     1      -8.574  -0.937  -0.424  0.00  0.00    -0.355 N 
ATOM      8  H   UNL     1      -8.691  -1.550  -1.167  0.00  0.00    +0.142 HD
ATOM      9  H   UNL     1      -9.292  -0.809   0.216  0.00  0.00    +0.142 HD
ENDBRANCH   4   7
BRANCH   2  10
ATOM     10  N   UNL     1      -5.743   2.198   1.943  0.00  0.00    -0.355 N 
ATOM     11  H   UNL     1      -4.917   2.706   1.974  0.00  0.00    +0.142 HD
ATOM     12  H   UNL     1      -6.407   2.309   2.642  0.00  0.00    +0.142 HD
ENDBRANCH   2  10
BRANCH   1  14
ATOM     13  C   UNL     1      -2.530   1.069   0.141  0.00  0.00    +0.029 C 
ATOM     14  C   UNL     1      -3.686   1.783   0.030  0.00  0.00    +0.079 C 
BRANCH  13  18
ATOM     15  C   UNL     1       1.125   3.069   0.899  0.00  0.00    +0.029 A 
ATOM     16  C   UNL     1       1.110   1.931   0.097  0.00  0.00    +0.023 A 
ATOM     17  C   UNL     1      -0.070   1.278  -0.148  0.00  0.00    +0.010 A 
ATOM     18  C   UNL     1      -1.264   1.761   0.405  0.00  0.00    -0.024 A 
ATOM     19  C   UNL     1      -1.242   2.903   1.217  0.00  0.00    +0.010 A 
ATOM     20  C   UNL     1      -0.057   3.549   1.456  0.00  0.00    +0.023 A 
BRANCH  15  22
ATOM     21  C   UNL     1       3.590   3.141   0.694  0.00  0.00    +0.129 C 
ATOM     22  N   UNL     1       2.326   3.729   1.144  0.00  0.00    -0.336 N 
ATOM     23  C   UNL     1       2.326   5.011   1.853  0.00  0.00    +0.129 C 
ENDBRANCH  15  22
ENDBRANCH  13  18
BRANCH  14  24
ATOM     24  C   UNL     1      -3.644   3.215   0.007  0.00  0.00    +0.101 C 
ATOM     25  N   UNL     1      -3.611   4.350  -0.011  0.00  0.00    -0.191 NA
ENDBRANCH  14  24
ENDBRANCH   1  14
BRANCH   5  26
ATOM     26  C   UNL     1      -6.510  -1.328  -2.294  0.00  0.00    +0.121 C 
ATOM     27  N   UNL     1      -6.645  -2.045  -3.165  0.00  0.00    -0.189 NA
ENDBRANCH   5  26
BRANCH   3  28
ATOM     28  C   UNL     1      -8.242   0.857   1.760  0.00  0.00    +0.103 C 
ATOM     29  N   UNL     1      -9.066   1.025   2.524  0.00  0.00    -0.191 NA
ENDBRANCH   3  28
TORSDOF 8
