REMARK  Name = ZINC39442655
REMARK  9 active torsions:
REMARK  status: ('A' for Active; 'I' for Inactive)
REMARK    1  A    between atoms: C_1  and  C_2
REMARK    2  A    between atoms: N_5  and  C_11
REMARK    3  A    between atoms: C_7  and  C_10
REMARK    4  A    between atoms: C_11  and  C_12
REMARK    5  A    between atoms: N_17  and  C_18
REMARK    6  A    between atoms: C_18  and  C_19
REMARK    7  A    between atoms: N_21  and  C_22
REMARK    8  A    between atoms: N_21  and  C_23
REMARK    9  A    between atoms: C_23  and  C_24
REMARK                            x       y       z     vdW  Elec       q    Type
REMARK                         _______ _______ _______ _____ _____    ______ ____
ROOT
ATOM      1  C   UNL     1      -2.576  -4.046  -0.125  0.00  0.00    +0.139 C 
ATOM      2  N   UNL     1      -1.683  -4.473  -1.227  0.00  0.00    -0.331 NA
ATOM      3  N   UNL     1      -0.988  -5.654  -0.689  0.00  0.00    +0.408 N 
ATOM      4  N   UNL     1      -0.767  -5.298   0.722  0.00  0.00    -0.280 NA
ATOM      5  N   UNL     1      -1.984  -4.582   1.118  0.00  0.00    -0.230 NA
ATOM      6  H   UNL     1      -2.213  -4.711  -2.051  0.00  0.00    +0.105 HD
ATOM      7  H   UNL     1      -1.570  -6.474  -0.762  0.00  0.00    -0.032 HD
ATOM      8  H   UNL     1       0.048  -4.712   0.823  0.00  0.00    +0.121 HD
ATOM      9  H   UNL     1      -0.108  -5.795  -1.162  0.00  0.00    -0.032 HD
ENDROOT
BRANCH   1  10
ATOM     10  C   UNL     1      -2.638  -2.518  -0.061  0.00  0.00    +0.119 C 
BRANCH  10  14
ATOM     11  C   UNL     1      -4.290   1.162   2.759  0.00  0.00    +0.039 C 
ATOM     12  C   UNL     1      -4.412  -0.329   2.438  0.00  0.00    +0.130 C 
ATOM     13  C   UNL     1      -3.428  -0.695   1.324  0.00  0.00    +0.115 C 
ATOM     14  N   UNL     1      -3.605  -2.110   0.968  0.00  0.00    -0.295 NA
ATOM     15  C   UNL     1      -4.983  -2.369   0.528  0.00  0.00    +0.115 C 
ATOM     16  C   UNL     1      -5.952  -1.986   1.650  0.00  0.00    +0.130 C 
ATOM     17  O   UNL     1      -5.745  -0.616   2.006  0.00  0.00    -0.371 OA
ATOM     18  C   UNL     1      -7.392  -2.178   1.170  0.00  0.00    +0.039 C 
ENDBRANCH  10  14
ENDBRANCH   1  10
BRANCH   5  19
ATOM     19  C   UNL     1      -1.675  -3.502   2.064  0.00  0.00    +0.198 C 
BRANCH  19  20
ATOM     20  C   UNL     1      -1.136  -4.091   3.342  0.00  0.00    +0.231 C 
ATOM     21  O   UNL     1      -0.950  -5.286   3.427  0.00  0.00    -0.274 OA
ATOM     22  N   UNL     1      -0.860  -3.289   4.390  0.00  0.00    -0.298 N 
ATOM     23  C   UNL     1      -1.183  -1.862   4.325  0.00  0.00    +0.132 C 
BRANCH  22  24
ATOM     24  C   UNL     1      -0.238  -3.846   5.594  0.00  0.00    +0.160 C 
BRANCH  24  25
ATOM     25  C   UNL     1       1.261  -3.771   5.465  0.00  0.00    +0.035 A 
ATOM     26  H   UNL     1       1.716  -5.513   4.418  0.00  0.00    +0.166 HD
ATOM     27  C   UNL     1       2.028  -2.781   5.949  0.00  0.00    +0.032 A 
ATOM     28  C   UNL     1       3.414  -3.104   5.604  0.00  0.00    +0.003 A 
ATOM     29  C   UNL     1       4.641  -2.475   5.828  0.00  0.00    +0.048 A 
ATOM     30  C   UNL     1       5.800  -3.057   5.361  0.00  0.00    +0.124 A 
ATOM     31  C   UNL     1       5.751  -4.262   4.670  0.00  0.00    +0.040 A 
ATOM     32  C   UNL     1       4.548  -4.893   4.443  0.00  0.00    +0.029 A 
ATOM     33  C   UNL     1       3.367  -4.324   4.906  0.00  0.00    +0.047 A 
ATOM     34  N   UNL     1       2.044  -4.705   4.843  0.00  0.00    -0.357 N 
ATOM     35  F   UNL     1       6.989  -2.452   5.574  0.00  0.00    -0.205 F 
ENDBRANCH  24  25
ENDBRANCH  22  24
ENDBRANCH  19  20
ENDBRANCH   5  19
TORSDOF 6
