REMARK  Name = ZINC11289861
REMARK  4 active torsions:
REMARK  status: ('A' for Active; 'I' for Inactive)
REMARK    1  A    between atoms: C_1  and  C_2
REMARK    2  A    between atoms: N_11  and  C_15
REMARK    3  A    between atoms: C_15  and  C_16
REMARK    4  A    between atoms: N_18  and  C_19
REMARK                            x       y       z     vdW  Elec       q    Type
REMARK                         _______ _______ _______ _____ _____    ______ ____
ROOT
ATOM      1  C   UNL     1       2.448   1.609  -0.013  0.00  0.00    +0.214 C 
ENDROOT
BRANCH   1  11
ATOM      2  C   UNL     1      -1.171   2.117   2.514  0.00  0.00    +0.010 C 
ATOM      3  C   UNL     1      -2.051   1.904   1.281  0.00  0.00    +0.018 C 
ATOM      4  C   UNL     1      -2.594   0.473   1.282  0.00  0.00    +0.006 C 
ATOM      5  C   UNL     1      -3.457   0.255   0.037  0.00  0.00    +0.000 C 
ATOM      6  C   UNL     1      -2.609   0.469  -1.218  0.00  0.00    +0.003 C 
ATOM      7  C   UNL     1      -2.066   1.900  -1.228  0.00  0.00    +0.035 C 
ATOM      8  C   UNL     1      -1.223   2.134   0.021  0.00  0.00    +0.115 C 
ATOM      9  C   UNL     1      -0.011   1.232   0.015  0.00  0.00    +0.247 C 
ATOM     10  O   UNL     1       0.002   0.020   0.017  0.00  0.00    -0.273 OA
ATOM     11  N   UNL     1       1.054   2.060   0.002  0.00  0.00    -0.215 N 
ATOM     12  C   UNL     1       0.679   3.345   0.004  0.00  0.00    +0.310 C 
ATOM     13  O   UNL     1       1.460   4.277  -0.007  0.00  0.00    -0.252 OA
ATOM     14  N   UNL     1      -0.659   3.490   0.018  0.00  0.00    -0.285 N 
ATOM     15  H   UNL     1      -1.154   4.325   0.023  0.00  0.00    +0.151 HD
ENDBRANCH   1  11
BRANCH   1  16
ATOM     16  C   UNL     1       2.910   1.452  -1.439  0.00  0.00    +0.235 C 
ATOM     17  O   UNL     1       2.149   1.694  -2.353  0.00  0.00    -0.274 OA
ATOM     18  N   UNL     1       4.168   1.044  -1.699  0.00  0.00    -0.283 N 
ATOM     19  H   UNL     1       4.795   0.913  -0.971  0.00  0.00    +0.155 HD
BRANCH  18  20
ATOM     20  C   UNL     1       4.568   0.807  -3.021  0.00  0.00    +0.051 A 
ATOM     21  C   UNL     1       4.066   1.592  -4.050  0.00  0.00    +0.073 A 
ATOM     22  C   UNL     1       4.463   1.358  -5.357  0.00  0.00    +0.164 A 
ATOM     23  C   UNL     1       5.366   0.339  -5.636  0.00  0.00    +0.163 A 
ATOM     24  C   UNL     1       5.865  -0.444  -4.606  0.00  0.00    +0.066 A 
ATOM     25  C   UNL     1       5.473  -0.208  -3.302  0.00  0.00    +0.043 A 
ATOM     26 BR   UNL     1       6.163  -1.274  -1.900  0.00  0.00    -0.048 Br
ATOM     27  O   UNL     1       5.771   0.097  -6.914  0.00  0.00    -0.485 OA
ATOM     28  C   UNL     1       4.966   0.653  -7.960  0.00  0.00    +0.270 C 
ATOM     29  C   UNL     1       4.659   2.114  -7.604  0.00  0.00    +0.270 C 
ATOM     30  O   UNL     1       3.957   2.133  -6.356  0.00  0.00    -0.485 OA
ENDBRANCH  18  20
ENDBRANCH   1  16
TORSDOF 3
