REMARK  Name = ZINC57820337
REMARK  13 active torsions:
REMARK  status: ('A' for Active; 'I' for Inactive)
REMARK    1  A    between atoms: C_1  and  C_2
REMARK    2  A    between atoms: C_2  and  C_3
REMARK    3  A    between atoms: C_2  and  C_4
REMARK    4  A    between atoms: C_4  and  C_6
REMARK    5  A    between atoms: C_4  and  N_18
REMARK    6  A    between atoms: N_8  and  C_9
REMARK    7  A    between atoms: N_8  and  C_10
REMARK    8  A    between atoms: C_10  and  C_11
REMARK    9  A    between atoms: N_13  and  C_14
REMARK   10  A    between atoms: C_14  and  C_15
REMARK   11  A    between atoms: C_14  and  C_16
REMARK   12  A    between atoms: C_14  and  C_17
REMARK   13  A    between atoms: C_19  and  C_21
REMARK                            x       y       z     vdW  Elec       q    Type
REMARK                         _______ _______ _______ _____ _____    ______ ____
ROOT
ATOM      1  C   UNL     1       0.919  -0.550   1.647  0.00  0.00    +0.162 C 
ENDROOT
BRANCH   1   2
ATOM      2  C   UNL     1       2.287  -0.031   1.286  0.00  0.00    +0.236 C 
ATOM      3  O   UNL     1       3.187  -0.809   1.045  0.00  0.00    -0.274 OA
ATOM      4  N   UNL     1       2.511   1.296   1.229  0.00  0.00    -0.294 N 
ATOM      5  C   UNL     1       1.395   2.234   1.381  0.00  0.00    +0.132 C 
BRANCH   4   6
ATOM      6  C   UNL     1       3.869   1.802   1.016  0.00  0.00    +0.203 C 
BRANCH   6   7
ATOM      7  C   UNL     1       4.123   1.951  -0.462  0.00  0.00    +0.231 C 
ATOM      8  O   UNL     1       3.255   1.663  -1.259  0.00  0.00    -0.274 OA
ATOM      9  N   UNL     1       5.315   2.404  -0.899  0.00  0.00    -0.309 N 
ATOM     10  H   UNL     1       6.009   2.635  -0.262  0.00  0.00    +0.149 HD
BRANCH   9  11
ATOM     11  C   UNL     1       5.562   2.549  -2.336  0.00  0.00    +0.026 C 
ATOM     12  C   UNL     1       4.553   3.533  -2.930  0.00  0.00    +0.031 C 
ATOM     13  C   UNL     1       6.981   3.077  -2.558  0.00  0.00    +0.031 C 
ATOM     14  C   UNL     1       5.412   1.188  -3.019  0.00  0.00    +0.031 C 
ENDBRANCH   9  11
ENDBRANCH   6   7
ENDBRANCH   4   6
ENDBRANCH   1   2
BRANCH   1  15
ATOM     15  N   UNL     1       1.055  -1.687   2.562  0.00  0.00    -0.300 N 
ATOM     16  C   UNL     1       0.049  -1.998   3.404  0.00  0.00    +0.245 C 
ATOM     17  O   UNL     1      -0.971  -1.335   3.404  0.00  0.00    -0.270 OA
ATOM     18  H   UNL     1       1.868  -2.215   2.562  0.00  0.00    +0.150 HD
BRANCH  16  19
ATOM     19  C   UNL     1       0.185  -3.144   4.327  0.00  0.00    +0.037 A 
ATOM     20  C   UNL     1       1.357  -3.903   4.333  0.00  0.00    +0.014 A 
ATOM     21  C   UNL     1       1.478  -4.971   5.197  0.00  0.00    +0.021 A 
ATOM     22  C   UNL     1       0.441  -5.291   6.057  0.00  0.00    +0.041 A 
ATOM     23  C   UNL     1      -0.724  -4.542   6.055  0.00  0.00    +0.021 A 
ATOM     24  C   UNL     1      -0.855  -3.468   5.200  0.00  0.00    +0.014 A 
ATOM     25 CL   UNL     1       0.601  -6.638   7.140  0.00  0.00    -0.084 Cl
ENDBRANCH  16  19
ENDBRANCH   1  15
BRANCH   1  27
ATOM     26  C   UNL     1      -0.074   0.212  -0.514  0.00  0.00    +0.009 C 
ATOM     27  C   UNL     1       0.193  -1.001   0.379  0.00  0.00    +0.012 C 
ATOM     28  C   UNL     1       1.062  -2.009  -0.377  0.00  0.00    +0.009 C 
ENDBRANCH   1  27
TORSDOF 7
