REMARK  Name = ZINC39747850
REMARK  5 active torsions:
REMARK  status: ('A' for Active; 'I' for Inactive)
REMARK    1  A    between atoms: C_7  and  C_10
REMARK    2  A    between atoms: C_13  and  S_16
REMARK    3  A    between atoms: S_16  and  C_17
REMARK    4  A    between atoms: C_17  and  C_19
REMARK    5  A    between atoms: C_17  and  C_26
REMARK                            x       y       z     vdW  Elec       q    Type
REMARK                         _______ _______ _______ _____ _____    ______ ____
ROOT
ATOM      1  C   UNL     1       0.507  -3.551  -0.303  0.00  0.00    +0.238 C 
ATOM      2  N   UNL     1      -0.787  -3.715  -0.383  0.00  0.00    -0.145 NA
ATOM      3  N   UNL     1      -1.116  -5.062  -0.175  0.00  0.00    -0.219 N 
ATOM      4  C   UNL     1       0.166  -5.751   0.053  0.00  0.00    +0.340 C 
ATOM      5  O   UNL     1       1.153  -4.715  -0.050  0.00  0.00    -0.443 OA
ATOM      6  H   UNL     1      -2.002  -5.458  -0.181  0.00  0.00    +0.173 HD
ENDROOT
BRANCH   1  13
ATOM      7  C   UNL     1      -1.083   0.613  -1.149  0.00  0.00    +0.001 A 
ATOM      8  C   UNL     1      -0.084   1.585  -1.238  0.00  0.00    +0.002 A 
ATOM      9  C   UNL     1       1.228   1.279  -1.081  0.00  0.00    +0.026 A 
ATOM     10  C   UNL     1       1.613  -0.061  -0.819  0.00  0.00    +0.043 A 
ATOM     11  N   UNL     1       2.799  -0.607  -0.631  0.00  0.00    -0.380 N 
ATOM     12  C   UNL     1       2.638  -2.045  -0.395  0.00  0.00    +0.154 C 
ATOM     13  C   UNL     1       1.152  -2.317  -0.466  0.00  0.00    +0.043 C 
ATOM     14  C   UNL     1       0.556  -1.081  -0.726  0.00  0.00    +0.008 A 
ATOM     15  C   UNL     1      -0.788  -0.689  -0.901  0.00  0.00    +0.010 A 
ATOM     16  H   UNL     1       3.644  -0.132  -0.647  0.00  0.00    +0.160 HD
ENDBRANCH   1  13
BRANCH   4  17
ATOM     17  S   UNL     1       0.195  -6.503   1.703  0.00  0.00    -0.079 S 
BRANCH  17  18
ATOM     18  C   UNL     1      -0.022  -5.098   2.830  0.00  0.00    +0.167 C 
BRANCH  18  19
ATOM     19  C   UNL     1       0.107  -5.572   4.255  0.00  0.00    -0.025 A 
ATOM     20  C   UNL     1      -0.621  -6.665   4.688  0.00  0.00    +0.008 A 
ATOM     21  C   UNL     1      -0.504  -7.101   5.994  0.00  0.00    +0.038 A 
ATOM     22  C   UNL     1       0.344  -6.442   6.869  0.00  0.00    +0.123 A 
ATOM     23  C   UNL     1       1.072  -5.348   6.434  0.00  0.00    +0.038 A 
ATOM     24  C   UNL     1       0.957  -4.918   5.126  0.00  0.00    +0.008 A 
ATOM     25  F   UNL     1       0.459  -6.867   8.146  0.00  0.00    -0.205 F 
ENDBRANCH  18  19
BRANCH  18  26
ATOM     26  C   UNL     1      -1.387  -4.495   2.623  0.00  0.00    +0.228 C 
ATOM     27  O   UNL     1      -1.492  -3.351   2.231  0.00  0.00    -0.274 OA
ATOM     28  N   UNL     1      -2.492  -5.225   2.872  0.00  0.00    -0.328 N 
ATOM     29  H   UNL     1      -2.410  -6.113   3.255  0.00  0.00    +0.145 HD
ATOM     30  H   UNL     1      -3.369  -4.864   2.669  0.00  0.00    +0.145 HD
ENDBRANCH  18  26
ENDBRANCH  17  18
ENDBRANCH   4  17
TORSDOF 5
