REMARK  Name = ZINC32910911
REMARK  12 active torsions:
REMARK  status: ('A' for Active; 'I' for Inactive)
REMARK    1  A    between atoms: C_1  and  C_2
REMARK    2  A    between atoms: C_5  and  O_31
REMARK    3  A    between atoms: C_6  and  C_8
REMARK    4  A    between atoms: C_8  and  C_10
REMARK    5  A    between atoms: C_10  and  C_11
REMARK    6  A    between atoms: C_11  and  C_12
REMARK    7  A    between atoms: C_12  and  O_14
REMARK    8  A    between atoms: O_14  and  C_15
REMARK    9  A    between atoms: C_15  and  C_16
REMARK   10  A    between atoms: C_18  and  O_19
REMARK   11  A    between atoms: C_28  and  C_30
REMARK   12  A    between atoms: O_31  and  C_32
REMARK                            x       y       z     vdW  Elec       q    Type
REMARK                         _______ _______ _______ _____ _____    ______ ____
ROOT
ATOM      1  C   UNL     1      -0.369  -7.024   0.344  0.00  0.00    +0.268 C 
ENDROOT
BRANCH   1   2
ATOM      2  C   UNL     1      -0.286  -6.287  -0.968  0.00  0.00    +0.007 A 
ATOM      3  C   UNL     1      -0.279  -6.960  -2.147  0.00  0.00    +0.095 A 
ATOM      4  C   UNL     1      -0.200  -6.248  -3.361  0.00  0.00    +0.285 A 
ATOM      5  O   UNL     1      -0.132  -4.908  -3.389  0.00  0.00    -0.425 OA
ATOM      6  C   UNL     1      -0.136  -4.178  -2.253  0.00  0.00    +0.141 A 
ATOM      7  C   UNL     1      -0.211  -4.825  -1.005  0.00  0.00    +0.024 A 
ATOM      8  C   UNL     1      -0.215  -4.073   0.175  0.00  0.00    +0.014 A 
ATOM      9  C   UNL     1      -0.140  -2.712   0.112  0.00  0.00    +0.024 A 
ATOM     10  C   UNL     1      -0.071  -2.064  -1.121  0.00  0.00    +0.037 A 
ATOM     11  C   UNL     1      -0.065  -2.794  -2.300  0.00  0.00    +0.070 A 
ATOM     12  N   UNL     1       0.000  -0.672  -1.169  0.00  0.00    -0.286 N 
ATOM     13  C   UNL     1      -0.605  -0.000  -2.168  0.00  0.00    +0.214 C 
ATOM     14  O   UNL     1      -1.141  -0.609  -3.070  0.00  0.00    -0.276 OA
ATOM     15  C   UNL     1      -0.617   1.507  -2.165  0.00  0.00    +0.109 C 
ATOM     16  H   UNL     1       0.550  -0.122  -0.391  0.00  0.00    +0.155 HD
BRANCH   4  17
ATOM     17  O   UNL     1      -0.194  -6.865  -4.412  0.00  0.00    -0.480 OA
ATOM     18  H   UNL     1      -0.133  -6.323  -5.367  0.00  0.00    +0.295 HD
ENDBRANCH   4  17
ENDBRANCH   1   2
BRANCH   1  19
ATOM     19  O   UNL     1      -0.431  -8.453   0.094  0.00  0.00    -0.460 OA
BRANCH  19  20
ATOM     20  C   UNL     1      -0.509  -9.256   1.166  0.00  0.00    +0.308 C 
ATOM     21  O   UNL     1      -0.524  -8.782   2.277  0.00  0.00    -0.251 OA
BRANCH  20  22
ATOM     22  C   UNL     1      -0.577 -10.751   0.984  0.00  0.00    +0.128 C 
BRANCH  22  23
ATOM     23  C   UNL     1      -0.658 -11.428   2.353  0.00  0.00    +0.091 C 
BRANCH  23  24
ATOM     24  C   UNL     1      -0.727 -12.923   2.171  0.00  0.00    +0.167 C 
ATOM     25  O   UNL     1      -0.712 -13.399   1.056  0.00  0.00    -0.292 OA
BRANCH  24  31
ATOM     26  C   UNL     1      -0.926 -13.501   7.115  0.00  0.00    +0.044 C 
ATOM     27  C   UNL     1      -0.908 -14.088   5.728  0.00  0.00    -0.050 A 
ATOM     28  C   UNL     1      -0.971 -15.463   5.560  0.00  0.00    +0.007 A 
ATOM     29  C   UNL     1      -0.955 -16.015   4.295  0.00  0.00    +0.046 A 
ATOM     30  C   UNL     1      -0.875 -15.195   3.179  0.00  0.00    +0.131 A 
ATOM     31  C   UNL     1      -0.811 -13.802   3.343  0.00  0.00    +0.059 A 
ATOM     32  C   UNL     1      -0.824 -13.257   4.633  0.00  0.00    +0.018 A 
BRANCH  30  33
ATOM     33  O   UNL     1      -0.859 -15.736   1.936  0.00  0.00    -0.494 OA
ATOM     34  C   UNL     1      -0.927 -17.161   1.847  0.00  0.00    +0.277 C 
ENDBRANCH  30  33
ENDBRANCH  24  31
ENDBRANCH  23  24
ENDBRANCH  22  23
ENDBRANCH  20  22
ENDBRANCH  19  20
ENDBRANCH   1  19
TORSDOF 9
