REMARK  Name = ZINC05029975
REMARK  7 active torsions:
REMARK  status: ('A' for Active; 'I' for Inactive)
REMARK    1  A    between atoms: C_1  and  C_2
REMARK    2  A    between atoms: C_2  and  C_23
REMARK    3  A    between atoms: N_3  and  N_4
REMARK    4  A    between atoms: C_5  and  S_7
REMARK    5  A    between atoms: S_7  and  C_8
REMARK    6  A    between atoms: N_13  and  C_16
REMARK    7  A    between atoms: C_26  and  O_29
REMARK                            x       y       z     vdW  Elec       q    Type
REMARK                         _______ _______ _______ _____ _____    ______ ____
ROOT
ATOM      1  N   UNL     1      -0.360  -0.858   2.283  0.00  0.00    -0.217 N 
ATOM      2  C   UNL     1      -0.260  -1.318   3.577  0.00  0.00    +0.146 C 
ATOM      3  N   UNL     1      -0.290  -2.600   3.819  0.00  0.00    -0.380 N 
ATOM      4  H   UNL     1      -0.337   0.095   2.104  0.00  0.00    +0.176 HD
ATOM      5  H   UNL     1      -0.220  -2.923   4.730  0.00  0.00    +0.158 HD
ATOM      6  H   UNL     1      -0.384  -3.229   3.087  0.00  0.00    +0.158 HD
ENDROOT
BRANCH   1   9
ATOM      7  C   UNL     1      -0.554   0.146  -0.273  0.00  0.00    +0.068 C 
ATOM      8  C   UNL     1      -0.590  -1.334   0.006  0.00  0.00    +0.063 C 
ATOM      9  N   UNL     1      -0.495  -1.767   1.226  0.00  0.00    -0.185 NA
BRANCH   8  10
ATOM     10  C   UNL     1      -0.732  -2.291  -1.107  0.00  0.00    -0.002 A 
ATOM     11  C   UNL     1      -0.828  -1.827  -2.421  0.00  0.00    +0.013 A 
ATOM     12  C   UNL     1      -0.961  -2.725  -3.458  0.00  0.00    +0.046 A 
ATOM     13  C   UNL     1      -0.999  -4.089  -3.199  0.00  0.00    +0.117 A 
ATOM     14  C   UNL     1      -0.904  -4.554  -1.894  0.00  0.00    +0.046 A 
ATOM     15  C   UNL     1      -0.765  -3.664  -0.851  0.00  0.00    +0.013 A 
BRANCH  13  16
ATOM     16  O   UNL     1      -1.131  -4.970  -4.224  0.00  0.00    -0.507 OA
ATOM     17  H   UNL     1      -0.290  -5.265  -4.600  0.00  0.00    +0.292 HD
ENDBRANCH  13  16
ENDBRANCH   8  10
ENDBRANCH   1   9
BRANCH   2  18
ATOM     18  S   UNL     1      -0.090  -0.175   4.907  0.00  0.00    -0.078 S 
BRANCH  18  19
ATOM     19  C   UNL     1       0.003  -1.228   6.382  0.00  0.00    +0.149 C 
ATOM     20  C   UNL     1       0.084  -0.367   7.659  0.00  0.00    +0.120 C 
ATOM     21  C   UNL     1       1.417  -0.753   8.262  0.00  0.00    +0.228 C 
ATOM     22  O   UNL     1       1.879  -0.304   9.290  0.00  0.00    -0.275 OA
ATOM     23  N   UNL     1       2.005  -1.668   7.483  0.00  0.00    -0.209 N 
ATOM     24  C   UNL     1       1.297  -2.012   6.396  0.00  0.00    +0.240 C 
ATOM     25  O   UNL     1       1.637  -2.820   5.558  0.00  0.00    -0.274 OA
BRANCH  23  26
ATOM     26  C   UNL     1       3.258  -2.225   7.778  0.00  0.00    +0.044 A 
ATOM     27  C   UNL     1       3.408  -3.054   8.882  0.00  0.00    +0.027 A 
ATOM     28  C   UNL     1       4.643  -3.601   9.171  0.00  0.00    +0.040 A 
ATOM     29  C   UNL     1       5.731  -3.323   8.361  0.00  0.00    +0.124 A 
ATOM     30  C   UNL     1       5.584  -2.496   7.259  0.00  0.00    +0.040 A 
ATOM     31  C   UNL     1       4.349  -1.952   6.964  0.00  0.00    +0.027 A 
ATOM     32  F   UNL     1       6.938  -3.858   8.645  0.00  0.00    -0.205 F 
ENDBRANCH  23  26
ENDBRANCH  18  19
ENDBRANCH   2  18
TORSDOF 6
