REMARK  Name = ZINC65255035
REMARK  5 active torsions:
REMARK  status: ('A' for Active; 'I' for Inactive)
REMARK    1  A    between atoms: C_6  and  C_7
REMARK    2  A    between atoms: C_9  and  C_12
REMARK    3  A    between atoms: N_24  and  C_25
REMARK    4  A    between atoms: C_25  and  C_26
REMARK    5  A    between atoms: C_26  and  N_27
REMARK                            x       y       z     vdW  Elec       q    Type
REMARK                         _______ _______ _______ _____ _____    ______ ____
ROOT
ATOM      1  C   UNL     1      -0.017   1.389   0.010  0.00  0.00    +0.013 A 
ATOM      2  C   UNL     1       1.168   2.098   0.002  0.00  0.00    +0.027 A 
ATOM      3  C   UNL     1       2.380   1.425  -0.013  0.00  0.00    +0.068 A 
ATOM      4  C   UNL     1       2.404   0.027  -0.021  0.00  0.00    +0.066 A 
ATOM      5  C   UNL     1       1.220  -0.684  -0.014  0.00  0.00    +0.037 A 
ATOM      6  C   UNL     1       0.002  -0.004   0.002  0.00  0.00    +0.024 A 
ATOM      7  N   UNL     1       3.748  -0.362  -0.036  0.00  0.00    -0.263 N 
ATOM      8  N   UNL     1       4.519   0.764  -0.038  0.00  0.00    -0.160 NA
ATOM      9  N   UNL     1       3.707   1.861  -0.024  0.00  0.00    -0.248 N 
ATOM     10  H   UNL     1       4.075  -1.275  -0.044  0.00  0.00    +0.168 HD
ATOM     11  H   UNL     1       5.134   0.780  -0.838  0.00  0.00    +0.168 HD
ENDROOT
BRANCH   6  12
ATOM     12  C   UNL     1      -1.272  -0.763   0.011  0.00  0.00    +0.202 A 
ATOM     13  N   UNL     1      -2.501  -0.226   0.020  0.00  0.00    -0.187 NA
ATOM     14  C   UNL     1      -3.407  -1.178   0.026  0.00  0.00    +0.259 A 
ATOM     15  O   UNL     1      -2.770  -2.363   0.020  0.00  0.00    -0.332 OA
ATOM     16  N   UNL     1      -1.381  -2.071   0.004  0.00  0.00    -0.056 NA
BRANCH  14  17
ATOM     17  C   UNL     1      -4.868  -0.982   0.038  0.00  0.00    +0.045 C 
ATOM     18  C   UNL     1      -5.473   0.279   0.038  0.00  0.00    +0.013 C 
ATOM     19  C   UNL     1      -6.878   0.386   0.047  0.00  0.00    -0.001 C 
ATOM     20  C   UNL     1      -7.721  -0.610  -0.248  0.00  0.00    +0.004 C 
ATOM     21  C   UNL     1      -7.173  -1.950  -0.657  0.00  0.00    +0.159 C 
ATOM     22  C   UNL     1      -5.828  -2.088   0.043  0.00  0.00    -0.006 C 
ATOM     23  C   UNL     1      -5.836  -3.304   0.589  0.00  0.00    +0.026 C 
ATOM     24  C   UNL     1      -7.139  -3.850   0.497  0.00  0.00    +0.106 C 
ATOM     25  N   UNL     1      -7.955  -3.088  -0.190  0.00  0.00    -0.279 NA
ENDBRANCH  14  17
ENDBRANCH   6  12
BRANCH   9  26
ATOM     26  C   UNL     1       4.151   3.257  -0.022  0.00  0.00    +0.141 C 
BRANCH  26  27
ATOM     27  C   UNL     1       4.319   3.736   1.421  0.00  0.00    +0.105 C 
BRANCH  27  28
ATOM     28  N   UNL     1       4.764   5.136   1.424  0.00  0.00    -0.296 NA
ATOM     29  C   UNL     1       6.117   5.260   0.861  0.00  0.00    +0.112 C 
ATOM     30  C   UNL     1       6.517   6.737   0.827  0.00  0.00    +0.175 C 
ATOM     31  O   UNL     1       6.428   7.280   2.147  0.00  0.00    -0.377 OA
ATOM     32  C   UNL     1       5.124   7.177   2.726  0.00  0.00    +0.175 C 
ATOM     33  C   UNL     1       4.710   5.704   2.779  0.00  0.00    +0.112 C 
ENDBRANCH  27  28
ENDBRANCH  26  27
ENDBRANCH   9  26
TORSDOF 5
