REMARK  Name = ZINC52012321
REMARK  3 active torsions:
REMARK  status: ('A' for Active; 'I' for Inactive)
REMARK    1  A    between atoms: C_4  and  O_22
REMARK    2  A    between atoms: C_6  and  N_9
REMARK    3  A    between atoms: C_16  and  C_19
REMARK                            x       y       z     vdW  Elec       q    Type
REMARK                         _______ _______ _______ _____ _____    ______ ____
ROOT
ATOM      1  N   UNL     1       0.760  -1.975   1.230  0.00  0.00    -0.294 N 
ATOM      2  C   UNL     1      -0.282  -2.667   1.733  0.00  0.00    +0.303 C 
ATOM      3  O   UNL     1      -1.197  -2.078   2.276  0.00  0.00    -0.253 OA
ATOM      4  N   UNL     1      -0.310  -4.011   1.635  0.00  0.00    -0.280 N 
ATOM      5  C   UNL     1       0.838  -4.754   1.091  0.00  0.00    +0.137 C 
ATOM      6  C   UNL     1       1.195  -5.877   2.072  0.00  0.00    +0.180 C 
ATOM      7  O   UNL     1       0.021  -6.642   2.359  0.00  0.00    -0.362 OA
ATOM      8  C   UNL     1      -1.018  -5.900   3.001  0.00  0.00    +0.248 C 
ATOM      9  C   UNL     1      -1.486  -4.778   2.074  0.00  0.00    +0.152 C 
ATOM     10  H   UNL     1       1.523  -2.448   0.861  0.00  0.00    +0.151 HD
ENDROOT
BRANCH   1  15
ATOM     11  C   UNL     1      -0.026   1.526   0.011  0.00  0.00    +0.002 C 
ATOM     12  C   UNL     1       1.409   2.056  -0.006  0.00  0.00    +0.003 C 
ATOM     13  C   UNL     1       2.154   1.549   1.231  0.00  0.00    +0.033 C 
ATOM     14  C   UNL     1       2.175   0.019   1.222  0.00  0.00    +0.135 C 
ATOM     15  C   UNL     1       0.740  -0.511   1.238  0.00  0.00    +0.103 C 
ATOM     16  C   UNL     1      -0.005  -0.003   0.002  0.00  0.00    +0.025 C 
BRANCH  14  17
ATOM     17  O   UNL     1       2.871  -0.455   2.377  0.00  0.00    -0.390 OA
ATOM     18  H   UNL     1       3.789  -0.157   2.432  0.00  0.00    +0.210 HD
ENDBRANCH  14  17
ENDBRANCH   1  15
BRANCH   8  19
ATOM     19  C   UNL     1      -2.174  -6.816   3.310  0.00  0.00    +0.386 C 
ATOM     20  O   UNL     1      -2.114  -7.996   3.008  0.00  0.00    -0.243 OA
ATOM     21  O   UNL     1      -3.169  -6.378   3.862  0.00  0.00    -0.243 OA
ENDBRANCH   8  19
TORSDOF 3
