REMARK  Name = ZINC36530808
REMARK  10 active torsions:
REMARK  status: ('A' for Active; 'I' for Inactive)
REMARK    1  A    between atoms: C_1  and  C_2
REMARK    2  A    between atoms: C_5  and  S_8
REMARK    3  A    between atoms: S_8  and  C_11
REMARK    4  A    between atoms: C_11  and  N_12
REMARK    5  A    between atoms: C_13  and  C_15
REMARK    6  A    between atoms: C_15  and  C_17
REMARK    7  A    between atoms: C_15  and  N_25
REMARK    8  A    between atoms: N_25  and  C_26
REMARK    9  A    between atoms: C_27  and  C_29
REMARK   10  A    between atoms: C_32  and  O_35
REMARK                            x       y       z     vdW  Elec       q    Type
REMARK                         _______ _______ _______ _____ _____    ______ ____
ROOT
ATOM      1  C   UNL     1       3.553  -5.340   2.988  0.00  0.00    +0.195 C 
ENDROOT
BRANCH   1   2
ATOM      2  C   UNL     1       2.604  -4.227   3.349  0.00  0.00    +0.018 A 
ATOM      3  C   UNL     1       2.912  -3.364   4.386  0.00  0.00    +0.048 A 
ATOM      4  C   UNL     1       2.040  -2.342   4.717  0.00  0.00    +0.020 A 
ATOM      5  C   UNL     1       0.861  -2.183   4.013  0.00  0.00    +0.003 A 
ATOM      6  C   UNL     1       0.553  -3.045   2.977  0.00  0.00    +0.020 A 
ATOM      7  C   UNL     1       1.427  -4.064   2.641  0.00  0.00    +0.048 A 
ATOM      8 CL   UNL     1       1.043  -5.141   1.335  0.00  0.00    -0.083 Cl
ATOM      9 CL   UNL     1       4.392  -3.564   5.271  0.00  0.00    -0.083 Cl
ENDBRANCH   1   2
BRANCH   1  11
ATOM     10  N   UNL     1       4.196  -4.494   0.754  0.00  0.00    -0.294 N 
ATOM     11  C   UNL     1       3.627  -5.471   1.489  0.00  0.00    +0.239 C 
ATOM     12  O   UNL     1       3.174  -6.455   0.943  0.00  0.00    -0.273 OA
ATOM     13  H   UNL     1       4.415  -3.644   1.166  0.00  0.00    +0.150 HD
BRANCH  10  14
ATOM     14  C   UNL     1       4.482  -4.718  -0.665  0.00  0.00    +0.278 C 
BRANCH  14  15
ATOM     15  S   UNL     1       3.151  -4.005  -1.670  0.00  0.00    +0.013 S 
ATOM     16  O   UNL     1       1.961  -4.766  -1.516  0.00  0.00    -0.168 OA
ATOM     17  O   UNL     1       3.638  -3.675  -2.964  0.00  0.00    -0.168 OA
BRANCH  15  22
ATOM     18  C   UNL     1       1.927   1.308   0.914  0.00  0.00    +0.044 C 
ATOM     19  C   UNL     1       2.233  -0.019   0.269  0.00  0.00    -0.050 A 
ATOM     20  C   UNL     1       3.324  -0.144  -0.571  0.00  0.00    +0.005 A 
ATOM     21  C   UNL     1       3.605  -1.361  -1.163  0.00  0.00    +0.027 A 
ATOM     22  C   UNL     1       2.795  -2.454  -0.915  0.00  0.00    +0.090 A 
ATOM     23  C   UNL     1       1.704  -2.329  -0.074  0.00  0.00    +0.027 A 
ATOM     24  C   UNL     1       1.426  -1.112   0.521  0.00  0.00    +0.005 A 
ENDBRANCH  15  22
ENDBRANCH  14  15
ENDBRANCH  10  14
ENDBRANCH   1  11
BRANCH   1  25
ATOM     25  N   UNL     1       3.072  -6.598   3.565  0.00  0.00    -0.285 N 
ATOM     26  C   UNL     1       1.698  -7.041   3.314  0.00  0.00    +0.133 C 
ATOM     27  C   UNL     1       3.893  -7.348   4.326  0.00  0.00    +0.247 C 
ATOM     28  O   UNL     1       5.006  -6.943   4.601  0.00  0.00    -0.270 OA
BRANCH  27  29
ATOM     29  C   UNL     1       3.442  -8.661   4.826  0.00  0.00    +0.037 A 
ATOM     30  C   UNL     1       2.602  -9.458   4.043  0.00  0.00    +0.016 A 
ATOM     31  C   UNL     1       2.184 -10.683   4.513  0.00  0.00    +0.046 A 
ATOM     32  C   UNL     1       2.595 -11.127   5.765  0.00  0.00    +0.117 A 
ATOM     33  C   UNL     1       3.429 -10.337   6.546  0.00  0.00    +0.046 A 
ATOM     34  C   UNL     1       3.857  -9.114   6.081  0.00  0.00    +0.016 A 
BRANCH  32  35
ATOM     35  O   UNL     1       2.179 -12.334   6.225  0.00  0.00    -0.507 OA
ATOM     36  H   UNL     1       2.765 -13.067   5.990  0.00  0.00    +0.292 HD
ENDBRANCH  32  35
ENDBRANCH  27  29
ENDBRANCH   1  25
TORSDOF 8
