REMARK  Name = ZINC12603822
REMARK  10 active torsions:
REMARK  status: ('A' for Active; 'I' for Inactive)
REMARK    1  A    between atoms: C_1  and  C_2
REMARK    2  A    between atoms: C_5  and  S_8
REMARK    3  A    between atoms: S_8  and  N_11
REMARK    4  A    between atoms: N_11  and  C_12
REMARK    5  A    between atoms: C_12  and  C_13
REMARK    6  A    between atoms: C_15  and  O_37
REMARK    7  A    between atoms: C_17  and  O_36
REMARK    8  A    between atoms: C_19  and  C_22
REMARK    9  A    between atoms: C_22  and  C_23
REMARK   10  A    between atoms: N_28  and  C_31
REMARK                            x       y       z     vdW  Elec       q    Type
REMARK                         _______ _______ _______ _____ _____    ______ ____
ROOT
ATOM      1  C   UNL     1      -0.657  -7.651  -3.336  0.00  0.00    +0.165 C 
ATOM      2  C   UNL     1       0.519  -7.325  -4.292  0.00  0.00    +0.175 C 
ATOM      3  C   UNL     1       0.283  -5.825  -4.596  0.00  0.00    +0.175 C 
ATOM      4  C   UNL     1      -0.600  -5.338  -3.431  0.00  0.00    +0.158 C 
ATOM      5  O   UNL     1      -0.788  -6.452  -2.543  0.00  0.00    -0.366 OA
ENDROOT
BRANCH   3   6
ATOM      6  O   UNL     1      -0.400  -5.669  -5.841  0.00  0.00    -0.387 OA
ATOM      7  H   UNL     1       0.110  -5.960  -6.609  0.00  0.00    +0.210 HD
ENDBRANCH   3   6
BRANCH   2   8
ATOM      8  O   UNL     1       0.437  -8.106  -5.485  0.00  0.00    -0.387 OA
ATOM      9  H   UNL     1       1.098  -7.876  -6.152  0.00  0.00    +0.210 HD
ENDBRANCH   2   8
BRANCH   1  10
ATOM     10  C   UNL     1      -0.314  -8.849  -2.449  0.00  0.00    +0.140 C 
BRANCH  10  11
ATOM     11  N   UNL     1      -1.483  -9.209  -1.642  0.00  0.00    -0.187 NA
ATOM     12  H   UNL     1      -2.225  -8.590  -1.559  0.00  0.00    +0.148 HD
BRANCH  11  13
ATOM     13  S   UNL     1      -1.537 -10.674  -0.871  0.00  0.00    +0.058 S 
ATOM     14  O   UNL     1      -2.766 -10.714  -0.160  0.00  0.00    -0.153 OA
ATOM     15  O   UNL     1      -1.183 -11.654  -1.837  0.00  0.00    -0.153 OA
BRANCH  13  20
ATOM     16  C   UNL     1       2.851 -10.672   3.271  0.00  0.00    +0.044 C 
ATOM     17  C   UNL     1       1.755 -10.674   2.237  0.00  0.00    -0.050 A 
ATOM     18  C   UNL     1       0.491 -10.221   2.568  0.00  0.00    +0.005 A 
ATOM     19  C   UNL     1      -0.514 -10.221   1.619  0.00  0.00    +0.029 A 
ATOM     20  C   UNL     1      -0.255 -10.674   0.339  0.00  0.00    +0.105 A 
ATOM     21  C   UNL     1       1.007 -11.131   0.009  0.00  0.00    +0.029 A 
ATOM     22  C   UNL     1       2.013 -11.127   0.956  0.00  0.00    +0.005 A 
ENDBRANCH  13  20
ENDBRANCH  11  13
ENDBRANCH  10  11
ENDBRANCH   1  10
BRANCH   4  23
ATOM     23  C   UNL     1       0.099  -4.195  -2.692  0.00  0.00    +0.130 C 
BRANCH  23  24
ATOM     24  C   UNL     1      -0.822  -3.643  -1.634  0.00  0.00    +0.218 C 
ATOM     25  O   UNL     1      -1.929  -4.118  -1.486  0.00  0.00    -0.276 OA
ATOM     26  N   UNL     1      -0.416  -2.623  -0.852  0.00  0.00    -0.298 N 
ATOM     27  C   UNL     1      -1.299  -2.070   0.186  0.00  0.00    +0.126 C 
ATOM     28  C   UNL     1      -1.362  -0.549   0.012  0.00  0.00    +0.125 C 
ATOM     29  N   UNL     1       0.002  -0.004   0.002  0.00  0.00    -0.314 N 
ATOM     30  C   UNL     1       0.771  -0.514  -1.141  0.00  0.00    +0.125 C 
ATOM     31  C   UNL     1       0.921  -2.034  -1.014  0.00  0.00    +0.126 C 
BRANCH  29  32
ATOM     32  C   UNL     1      -0.017   1.386   0.010  0.00  0.00    +0.099 A 
ATOM     33  C   UNL     1       1.182   2.092   0.002  0.00  0.00    +0.042 A 
ATOM     34  C   UNL     1       1.149   3.474   0.010  0.00  0.00    +0.005 A 
ATOM     35  C   UNL     1      -0.087   4.107   0.025  0.00  0.00    +0.018 A 
ATOM     36  C   UNL     1      -1.238   3.344   0.032  0.00  0.00    +0.084 A 
ATOM     37  N   UNL     1      -1.243   1.984   0.018  0.00  0.00    -0.350 N 
ATOM     38  H   UNL     1      -2.115   1.442   0.015  0.00  0.00    +0.166 HD
ENDBRANCH  29  32
ENDBRANCH  23  24
ENDBRANCH   4  23
TORSDOF 9
