REMARK  Name = ZINC13339512
REMARK  10 active torsions:
REMARK  status: ('A' for Active; 'I' for Inactive)
REMARK    1  A    between atoms: C_1  and  C_2
REMARK    2  A    between atoms: C_2  and  C_3
REMARK    3  A    between atoms: C_2  and  C_4
REMARK    4  A    between atoms: C_4  and  O_5
REMARK    5  A    between atoms: O_5  and  C_6
REMARK    6  A    between atoms: C_9  and  C_14
REMARK    7  A    between atoms: C_11  and  O_12
REMARK    8  A    between atoms: O_12  and  C_13
REMARK    9  A    between atoms: C_27  and  C_28
REMARK   10  A    between atoms: C_30  and  N_58
REMARK                            x       y       z     vdW  Elec       q    Type
REMARK                         _______ _______ _______ _____ _____    ______ ____
ROOT
ATOM      1  C   UNL     1       0.072   8.014   0.291  0.00  0.00    +0.012 C 
ATOM      2  C   UNL     1      -1.108   7.373   0.217  0.00  0.00    -0.038 C 
ATOM      3  C   UNL     1      -2.420   8.131   0.205  0.00  0.00    -0.041 C 
ATOM      4  C   UNL     1      -3.680   6.088   0.553  0.00  0.00    -0.040 C 
ATOM      5  C   UNL     1      -2.436   5.277   0.316  0.00  0.00    -0.024 A 
ATOM      6  C   UNL     1      -1.183   5.896   0.143  0.00  0.00    +0.068 A 
ATOM      7  N   UNL     1      -0.082   5.202  -0.076  0.00  0.00    -0.247 NA
ATOM      8  C   UNL     1      -0.078   3.870  -0.146  0.00  0.00    +0.072 A 
ATOM      9  C   UNL     1       1.113   3.159  -0.382  0.00  0.00    +0.028 A 
ATOM     10  C   UNL     1       1.086   1.799  -0.446  0.00  0.00    +0.002 A 
ATOM     11  C   UNL     1      -0.105   1.096  -0.283  0.00  0.00    +0.001 A 
ATOM     12  C   UNL     1      -1.279   1.752  -0.060  0.00  0.00    +0.011 A 
ATOM     13  C   UNL     1      -1.287   3.148   0.019  0.00  0.00    +0.015 A 
ATOM     14  C   UNL     1      -2.523   3.894   0.261  0.00  0.00    +0.076 A 
ATOM     15  C   UNL     1      -4.574   8.201   1.316  0.00  0.00    -0.095 C 
ATOM     16  N   UNL     1      -3.343   7.409   1.115  0.00  0.00    +0.383 N 
ATOM     17  H   UNL     1      -2.880   7.277   2.022  0.00  0.00    -0.081 HD
ENDROOT
BRANCH   1  21
ATOM     18  C   UNL     1       0.206  12.249   0.003  0.00  0.00    +0.162 A 
ATOM     19  C   UNL     1      -0.757  11.537  -0.697  0.00  0.00    +0.050 A 
ATOM     20  C   UNL     1      -0.801  10.162  -0.611  0.00  0.00    +0.012 A 
ATOM     21  C   UNL     1       0.120   9.482   0.193  0.00  0.00    -0.021 A 
ATOM     22  C   UNL     1       1.090  10.201   0.898  0.00  0.00    +0.057 A 
ATOM     23  C   UNL     1       1.131  11.578   0.802  0.00  0.00    +0.162 A 
BRANCH  23  24
ATOM     24  O   UNL     1       2.073  12.280   1.486  0.00  0.00    -0.491 OA
ATOM     25  C   UNL     1       2.989  11.528   2.285  0.00  0.00    +0.277 C 
ENDBRANCH  23  24
BRANCH  18  26
ATOM     26  O   UNL     1       0.248  13.604  -0.089  0.00  0.00    -0.488 OA
BRANCH  26  27
ATOM     27  C   UNL     1      -0.729  14.227  -0.925  0.00  0.00    +0.232 C 
BRANCH  27  29
ATOM     28  C   UNL     1      -1.490  16.401  -1.894  0.00  0.00    +0.010 C 
ATOM     29  C   UNL     1      -0.526  15.744  -0.904  0.00  0.00    +0.020 C 
ATOM     30  C   UNL     1      -0.800  16.275   0.504  0.00  0.00    +0.010 C 
ENDBRANCH  27  29
ENDBRANCH  26  27
ENDBRANCH  18  26
ENDBRANCH   1  21
BRANCH  14  31
ATOM     31  C   UNL     1      -3.815   3.199   0.442  0.00  0.00    +0.387 C 
ATOM     32  O   UNL     1      -4.173   2.862   1.552  0.00  0.00    -0.241 OA
ATOM     33  O   UNL     1      -4.595   2.939  -0.625  0.00  0.00    -0.241 OA
ENDBRANCH  14  31
TORSDOF 6
