REMARK  Name = ZINC67643081
REMARK  8 active torsions:
REMARK  status: ('A' for Active; 'I' for Inactive)
REMARK    1  A    between atoms: C_1  and  C_2
REMARK    2  A    between atoms: C_2  and  C_3
REMARK    3  A    between atoms: C_2  and  C_4
REMARK    4  A    between atoms: C_4  and  C_5
REMARK    5  A    between atoms: C_7  and  C_11
REMARK    6  A    between atoms: N_8  and  C_10
REMARK    7  A    between atoms: C_18  and  C_22
REMARK    8  A    between atoms: N_20  and  C_21
REMARK                            x       y       z     vdW  Elec       q    Type
REMARK                         _______ _______ _______ _____ _____    ______ ____
ROOT
ATOM      1  C   UNL     1       5.731  -0.729  -0.891  0.00  0.00    +0.265 C 
ATOM      2  O   UNL     1       5.932  -1.925  -0.989  0.00  0.00    -0.268 OA
ATOM      3  N   UNL     1       6.766   0.116  -0.711  0.00  0.00    -0.291 N 
ATOM      4  C   UNL     1       8.148  -0.384  -0.668  0.00  0.00    +0.114 C 
ATOM      5  C   UNL     1       8.932   0.186  -1.857  0.00  0.00    +0.074 C 
ATOM      6  C   UNL     1       8.632   1.658  -1.974  0.00  0.00    +0.046 A 
ATOM      7  C   UNL     1       7.568   2.269  -1.398  0.00  0.00    +0.025 A 
ATOM      8  C   UNL     1       7.656   3.625  -1.755  0.00  0.00    +0.178 A 
ATOM      9  N   UNL     1       8.741   3.751  -2.502  0.00  0.00    -0.164 NA
ATOM     10  N   UNL     1       9.322   2.609  -2.638  0.00  0.00    -0.270 N 
ATOM     11  C   UNL     1      10.552   2.377  -3.399  0.00  0.00    +0.172 C 
ATOM     12  C   UNL     1       6.540   1.566  -0.559  0.00  0.00    +0.147 C 
ENDROOT
BRANCH   1  15
ATOM     13  C   UNL     1       2.540   1.040  -0.786  0.00  0.00    +0.064 A 
ATOM     14  C   UNL     1       3.897   0.995  -0.457  0.00  0.00    +0.057 A 
ATOM     15  C   UNL     1       4.359  -0.205  -0.971  0.00  0.00    +0.123 A 
ATOM     16  N   UNL     1       3.285  -0.804  -1.567  0.00  0.00    -0.262 N 
ATOM     17  N   UNL     1       2.248  -0.058  -1.436  0.00  0.00    -0.176 NA
ATOM     18  C   UNL     1       3.312  -2.102  -2.245  0.00  0.00    +0.173 C 
BRANCH  13  19
ATOM     19  C   UNL     1       1.581   2.152  -0.447  0.00  0.00    +0.060 C 
BRANCH  19  21
ATOM     20  C   UNL     1       0.039   1.535  -2.313  0.00  0.00    +0.007 C 
ATOM     21  C   UNL     1       0.905   2.651  -1.726  0.00  0.00    -0.011 C 
ATOM     22  C   UNL     1       0.027   3.860  -1.400  0.00  0.00    +0.007 C 
ENDBRANCH  19  21
ENDBRANCH  13  19
ENDBRANCH   1  15
BRANCH   8  23
ATOM     23  C   UNL     1       6.722   4.698  -1.372  0.00  0.00    +0.407 C 
ATOM     24  O   UNL     1       5.751   4.443  -0.673  0.00  0.00    -0.239 OA
ATOM     25  O   UNL     1       6.917   5.844  -1.754  0.00  0.00    -0.239 OA
ENDBRANCH   8  23
TORSDOF 4
