REMARK  Name = ZINC12869122
REMARK  12 active torsions:
REMARK  status: ('A' for Active; 'I' for Inactive)
REMARK    1  A    between atoms: C_1  and  C_2
REMARK    2  A    between atoms: C_2  and  C_3
REMARK    3  A    between atoms: C_3  and  C_4
REMARK    4  A    between atoms: C_3  and  C_5
REMARK    5  A    between atoms: C_3  and  N_6
REMARK    6  A    between atoms: C_7  and  C_9
REMARK    7  A    between atoms: C_9  and  C_11
REMARK    8  A    between atoms: C_9  and  N_17
REMARK    9  A    between atoms: N_17  and  C_18
REMARK   10  A    between atoms: C_20  and  C_25
REMARK   11  A    between atoms: C_23  and  C_24
REMARK   12  A    between atoms: C_26  and  C_28
REMARK                            x       y       z     vdW  Elec       q    Type
REMARK                         _______ _______ _______ _____ _____    ______ ____
ROOT
ATOM      1  C   UNL     1       0.387  -2.043  -1.049  0.00  0.00    +0.198 C 
ENDROOT
BRANCH   1   2
ATOM      2  C   UNL     1       0.987  -2.432   0.278  0.00  0.00    -0.015 A 
ATOM      3  C   UNL     1       2.333  -2.222   0.537  0.00  0.00    +0.025 A 
ATOM      4  C   UNL     1       2.847  -2.588   1.767  0.00  0.00    +0.111 A 
ATOM      5  N   UNL     1       2.075  -3.139   2.684  0.00  0.00    -0.263 NA
ATOM      6  C   UNL     1       0.792  -3.357   2.470  0.00  0.00    +0.111 A 
ATOM      7  C   UNL     1       0.207  -3.013   1.266  0.00  0.00    +0.025 A 
ENDBRANCH   1   2
BRANCH   1   9
ATOM      8  N   UNL     1      -1.426  -0.405  -0.668  0.00  0.00    -0.308 N 
ATOM      9  C   UNL     1      -0.133  -0.631  -0.970  0.00  0.00    +0.239 C 
ATOM     10  O   UNL     1       0.613   0.302  -1.180  0.00  0.00    -0.273 OA
ATOM     11  H   UNL     1      -2.023  -1.151  -0.500  0.00  0.00    +0.149 HD
BRANCH   8  12
ATOM     12  C   UNL     1      -1.931   0.968  -0.592  0.00  0.00    +0.029 C 
ATOM     13  C   UNL     1      -1.161   1.737   0.484  0.00  0.00    +0.031 C 
ATOM     14  C   UNL     1      -1.743   1.657  -1.945  0.00  0.00    +0.031 C 
BRANCH  12  16
ATOM     15  C   UNL     1      -3.947   2.379  -0.155  0.00  0.00    +0.006 C 
ATOM     16  C   UNL     1      -3.419   0.945  -0.234  0.00  0.00    +0.022 C 
ENDBRANCH  12  16
ENDBRANCH   8  12
ENDBRANCH   1   9
BRANCH   1  17
ATOM     17  N   UNL     1       1.412  -2.129  -2.092  0.00  0.00    -0.250 N 
ATOM     18  C   UNL     1       1.925  -3.327  -2.436  0.00  0.00    +0.272 C 
ATOM     19  O   UNL     1       2.854  -3.389  -3.218  0.00  0.00    -0.268 OA
BRANCH  17  20
ATOM     20  C   UNL     1       1.859  -0.968  -2.731  0.00  0.00    +0.041 A 
ATOM     21  C   UNL     1       3.089  -0.418  -2.394  0.00  0.00    +0.027 A 
ATOM     22  C   UNL     1       3.529   0.726  -3.030  0.00  0.00    -0.049 A 
ATOM     23  C   UNL     1       2.742   1.330  -3.994  0.00  0.00    +0.004 A 
ATOM     24  C   UNL     1       1.515   0.788  -4.327  0.00  0.00    +0.005 A 
ATOM     25  C   UNL     1       1.071  -0.359  -3.699  0.00  0.00    -0.029 A 
ATOM     26  C   UNL     1      -0.267  -0.949  -4.063  0.00  0.00    +0.045 C 
ATOM     27  C   UNL     1       4.866   1.321  -2.668  0.00  0.00    +0.044 C 
ENDBRANCH  17  20
BRANCH  18  28
ATOM     28  C   UNL     1       1.358  -4.563  -1.865  0.00  0.00    +0.157 A 
ATOM     29  C   UNL     1       1.923  -5.817  -2.046  0.00  0.00    +0.101 A 
ATOM     30  S   UNL     1       0.820  -6.809  -1.153  0.00  0.00    +0.029 S 
ATOM     31  N   UNL     1      -0.184  -5.698  -0.657  0.00  0.00    -0.110 NA
ATOM     32  N   UNL     1       0.260  -4.587  -1.120  0.00  0.00    -0.136 NA
ENDBRANCH  18  28
ENDBRANCH   1  17
TORSDOF 7
