REMARK  Name = ZINC54449740
REMARK  10 active torsions:
REMARK  status: ('A' for Active; 'I' for Inactive)
REMARK    1  A    between atoms: C_1  and  C_2
REMARK    2  A    between atoms: C_5  and  S_24
REMARK    3  A    between atoms: C_6  and  N_8
REMARK    4  A    between atoms: N_11  and  C_12
REMARK    5  A    between atoms: C_12  and  C_13
REMARK    6  A    between atoms: C_13  and  C_14
REMARK    7  A    between atoms: C_13  and  C_15
REMARK    8  A    between atoms: C_13  and  N_16
REMARK    9  A    between atoms: C_20  and  C_23
REMARK   10  A    between atoms: S_24  and  C_27
REMARK                            x       y       z     vdW  Elec       q    Type
REMARK                         _______ _______ _______ _____ _____    ______ ____
ROOT
ATOM      1  N   UNL     1       2.689   0.335   5.109  0.00  0.00    -0.268 N 
ATOM      2  C   UNL     1       1.498  -0.294   5.160  0.00  0.00    +0.304 C 
ATOM      3  O   UNL     1       0.654  -0.064   4.316  0.00  0.00    -0.253 OA
ATOM      4  N   UNL     1       1.244  -1.177   6.146  0.00  0.00    -0.300 N 
ATOM      5  H   UNL     1       3.385   0.109   5.747  0.00  0.00    +0.156 HD
ATOM      6  H   UNL     1       1.918  -1.360   6.819  0.00  0.00    +0.150 HD
ENDROOT
BRANCH   1  12
ATOM      7  C   UNL     1       1.992   2.015   0.542  0.00  0.00    +0.044 C 
ATOM      8  C   UNL     1       2.598   2.153   1.915  0.00  0.00    -0.049 A 
ATOM      9  C   UNL     1       3.386   3.249   2.215  0.00  0.00    +0.005 A 
ATOM     10  C   UNL     1       3.943   3.380   3.473  0.00  0.00    +0.029 A 
ATOM     11  C   UNL     1       3.714   2.416   4.435  0.00  0.00    +0.109 A 
ATOM     12  C   UNL     1       2.923   1.314   4.137  0.00  0.00    +0.060 A 
ATOM     13  C   UNL     1       2.360   1.188   2.874  0.00  0.00    +0.028 A 
BRANCH  11  14
ATOM     14  S   UNL     1       4.425   2.583   6.038  0.00  0.00    -0.004 S 
ATOM     15  O   UNL     1       5.070   1.340   6.281  0.00  0.00    -0.170 OA
ATOM     16  O   UNL     1       5.175   3.789   5.979  0.00  0.00    -0.170 OA
ATOM     17  C   UNL     1       3.011   2.782   7.157  0.00  0.00    +0.200 C 
ENDBRANCH  11  14
ENDBRANCH   1  12
BRANCH   4  18
ATOM     18  C   UNL     1      -0.051  -1.860   6.200  0.00  0.00    +0.093 C 
BRANCH  18  19
ATOM     19  C   UNL     1      -0.128  -2.706   7.473  0.00  0.00    -0.055 C 
ATOM     20  C   UNL     1      -0.002  -1.797   8.697  0.00  0.00    -0.008 C 
ATOM     21  C   UNL     1      -1.470  -3.439   7.518  0.00  0.00    -0.008 C 
BRANCH  19  22
ATOM     22  N   UNL     1       0.967  -3.686   7.477  0.00  0.00    +0.384 N 
ATOM     23  C   UNL     1       0.910  -4.484   6.246  0.00  0.00    -0.078 C 
ATOM     24  C   UNL     1       2.095  -5.452   6.207  0.00  0.00    -0.018 C 
ATOM     25  C   UNL     1       2.030  -6.380   7.423  0.00  0.00    -0.001 C 
ATOM     26  C   UNL     1       2.014  -5.534   8.699  0.00  0.00    -0.031 C 
ATOM     27  C   UNL     1       0.832  -4.563   8.646  0.00  0.00    -0.075 C 
ATOM     28  C   UNL     1       1.871  -6.448   9.917  0.00  0.00    +0.005 C 
ATOM     29  H   UNL     1       1.851  -3.202   7.521  0.00  0.00    -0.081 HD
ENDBRANCH  19  22
ENDBRANCH  18  19
ENDBRANCH   4  18
TORSDOF 5
