REMARK  Name = ZINC09243777
REMARK  7 active torsions:
REMARK  status: ('A' for Active; 'I' for Inactive)
REMARK    1  A    between atoms: C_1  and  C_2
REMARK    2  A    between atoms: C_5  and  C_8
REMARK    3  A    between atoms: C_11  and  C_26
REMARK    4  A    between atoms: N_18  and  C_19
REMARK    5  A    between atoms: C_19  and  C_20
REMARK    6  A    between atoms: C_29  and  C_33
REMARK    7  A    between atoms: C_31  and  O_32
REMARK                            x       y       z     vdW  Elec       q    Type
REMARK                         _______ _______ _______ _____ _____    ______ ____
ROOT
ATOM      1  C   UNL     1       0.053  -4.243   0.001  0.00  0.00    +0.142 C 
ATOM      2  C   UNL     1      -1.292  -4.799   0.380  0.00  0.00    +0.035 A 
ATOM      3  C   UNL     1      -2.657  -4.890   0.085  0.00  0.00    +0.102 A 
ATOM      4  N   UNL     1      -3.210  -5.651   1.009  0.00  0.00    -0.173 NA
ATOM      5  N   UNL     1      -2.331  -6.049   1.858  0.00  0.00    -0.272 N 
ATOM      6  H   UNL     1      -2.512  -6.618   2.622  0.00  0.00    +0.189 HD
ATOM      7  C   UNL     1      -1.103  -5.551   1.524  0.00  0.00    +0.126 A 
ATOM      8  C   UNL     1       0.316  -5.496   1.889  0.00  0.00    +0.266 C 
ATOM      9  O   UNL     1       0.808  -6.055   2.851  0.00  0.00    -0.268 OA
ATOM     10  N   UNL     1       0.998  -4.738   1.010  0.00  0.00    -0.281 N 
ENDROOT
BRANCH   3  11
ATOM     11  C   UNL     1      -3.353  -4.248  -1.057  0.00  0.00    +0.045 A 
ATOM     12  C   UNL     1      -2.623  -3.572  -2.031  0.00  0.00    +0.034 A 
ATOM     13  C   UNL     1      -3.276  -2.977  -3.093  0.00  0.00    +0.045 A 
ATOM     14  C   UNL     1      -4.655  -3.049  -3.192  0.00  0.00    -0.029 A 
ATOM     15  C   UNL     1      -5.388  -3.717  -2.230  0.00  0.00    +0.050 A 
ATOM     16  C   UNL     1      -4.745  -4.324  -1.163  0.00  0.00    +0.126 A 
ATOM     17  C   UNL     1      -5.359  -2.396  -4.353  0.00  0.00    +0.045 C 
ATOM     18 CL   UNL     1      -2.364  -2.134  -4.306  0.00  0.00    -0.083 Cl
BRANCH  16  19
ATOM     19  O   UNL     1      -5.465  -4.986  -0.220  0.00  0.00    -0.506 OA
ATOM     20  H   UNL     1      -5.750  -4.431   0.519  0.00  0.00    +0.292 HD
ENDBRANCH  16  19
ENDBRANCH   3  11
BRANCH   1  25
ATOM     21  C   UNL     1      -0.086   1.533   0.073  0.00  0.00    +0.044 C 
ATOM     22  C   UNL     1      -0.050   0.027   0.054  0.00  0.00    -0.050 A 
ATOM     23  C   UNL     1      -0.220  -0.683   1.228  0.00  0.00    +0.004 A 
ATOM     24  C   UNL     1      -0.187  -2.065   1.210  0.00  0.00    +0.006 A 
ATOM     25  C   UNL     1       0.016  -2.737   0.019  0.00  0.00    -0.022 A 
ATOM     26  C   UNL     1       0.185  -2.026  -1.154  0.00  0.00    +0.006 A 
ATOM     27  C   UNL     1       0.148  -0.645  -1.138  0.00  0.00    +0.004 A 
ENDBRANCH   1  25
BRANCH  10  28
ATOM     28  C   UNL     1       2.435  -4.456   1.050  0.00  0.00    +0.145 C 
BRANCH  28  29
ATOM     29  C   UNL     1       2.680  -3.210   1.861  0.00  0.00    -0.012 A 
ATOM     30  C   UNL     1       2.686  -1.965   1.251  0.00  0.00    +0.008 A 
ATOM     31  C   UNL     1       2.915  -0.846   2.036  0.00  0.00    +0.020 A 
ATOM     32  C   UNL     1       3.128  -1.007   3.392  0.00  0.00    +0.111 A 
ATOM     33  N   UNL     1       3.116  -2.207   3.939  0.00  0.00    -0.263 NA
ATOM     34  C   UNL     1       2.895  -3.292   3.224  0.00  0.00    +0.115 A 
ENDBRANCH  28  29
ENDBRANCH  10  28
TORSDOF 5
