REMARK  Name = ZINC33516569
REMARK  8 active torsions:
REMARK  status: ('A' for Active; 'I' for Inactive)
REMARK    1  A    between atoms: C_1  and  C_2
REMARK    2  A    between atoms: C_6  and  C_8
REMARK    3  A    between atoms: N_16  and  C_19
REMARK    4  A    between atoms: C_24  and  C_25
REMARK    5  A    between atoms: C_26  and  C_28
REMARK    6  A    between atoms: C_26  and  C_31
REMARK    7  A    between atoms: C_28  and  C_29
REMARK    8  A    between atoms: C_28  and  C_30
REMARK                            x       y       z     vdW  Elec       q    Type
REMARK                         _______ _______ _______ _____ _____    ______ ____
ROOT
ATOM      1  C   UNL     1       0.609  -2.591   2.643  0.00  0.00    -0.027 C 
ATOM      2  C   UNL     1      -0.861  -2.960   2.815  0.00  0.00    +0.077 C 
ATOM      3  C   UNL     1      -0.647  -4.160   3.812  0.00  0.00    +0.086 C 
ATOM      4  C   UNL     1      -1.967  -4.325   4.371  0.00  0.00    +0.229 C 
ATOM      5  O   UNL     1      -2.496  -5.358   4.723  0.00  0.00    -0.275 OA
ATOM      6  N   UNL     1      -2.494  -3.058   4.417  0.00  0.00    -0.210 N 
ATOM      7  C   UNL     1      -1.766  -2.144   3.683  0.00  0.00    +0.229 C 
ATOM      8  O   UNL     1      -1.834  -0.934   3.732  0.00  0.00    -0.275 OA
ATOM      9  C   UNL     1       0.412  -4.951   3.173  0.00  0.00    +0.050 C 
ATOM     10  N   UNL     1       1.281  -3.922   2.487  0.00  0.00    +0.396 N 
ATOM     11  H   UNL     1       1.362  -4.153   1.508  0.00  0.00    -0.083 HD
ATOM     12  H   UNL     1       2.196  -3.895   2.911  0.00  0.00    -0.083 HD
ENDROOT
BRANCH   1  18
ATOM     13  C   UNL     1       1.345   1.882   0.523  0.00  0.00    +0.044 C 
ATOM     14  C   UNL     1       1.157   0.393   0.395  0.00  0.00    -0.050 A 
ATOM     15  C   UNL     1       1.165  -0.201  -0.853  0.00  0.00    +0.003 A 
ATOM     16  C   UNL     1       0.993  -1.567  -0.971  0.00  0.00    +0.000 A 
ATOM     17  C   UNL     1       0.813  -2.341   0.161  0.00  0.00    +0.002 A 
ATOM     18  C   UNL     1       0.806  -1.748   1.409  0.00  0.00    -0.060 A 
ATOM     19  C   UNL     1       0.982  -0.382   1.527  0.00  0.00    +0.005 A 
ENDBRANCH   1  18
BRANCH   6  20
ATOM     20  C   UNL     1      -3.658  -2.727   5.123  0.00  0.00    +0.047 A 
ATOM     21  C   UNL     1      -3.576  -2.318   6.447  0.00  0.00    +0.024 A 
ATOM     22  C   UNL     1      -4.725  -1.992   7.141  0.00  0.00    +0.002 A 
ATOM     23  C   UNL     1      -5.957  -2.073   6.517  0.00  0.00    +0.000 A 
ATOM     24  C   UNL     1      -6.042  -2.479   5.199  0.00  0.00    +0.005 A 
ATOM     25  C   UNL     1      -4.896  -2.801   4.498  0.00  0.00    -0.029 A 
ATOM     26  C   UNL     1      -4.989  -3.239   3.059  0.00  0.00    +0.045 C 
ENDBRANCH   6  20
BRANCH   9  27
ATOM     27  C   UNL     1       1.230  -5.699   4.228  0.00  0.00    -0.017 C 
ATOM     28  C   UNL     1       0.294  -6.539   5.099  0.00  0.00    +0.006 C 
ATOM     29  C   UNL     1       2.241  -6.615   3.535  0.00  0.00    +0.006 C 
ENDBRANCH   9  27
BRANCH   9  30
ATOM     30  C   UNL     1      -0.180  -5.920   2.183  0.00  0.00    +0.346 C 
ATOM     31  O   UNL     1       0.136  -5.859   1.007  0.00  0.00    -0.248 OA
ATOM     32  O   UNL     1      -0.976  -6.764   2.557  0.00  0.00    -0.248 OA
ENDBRANCH   9  30
TORSDOF 4
