REMARK  Name = ZINC09915891
REMARK  13 active torsions:
REMARK  status: ('A' for Active; 'I' for Inactive)
REMARK    1  A    between atoms: C_1  and  C_2
REMARK    2  A    between atoms: C_2  and  C_26
REMARK    3  A    between atoms: C_3  and  C_24
REMARK    4  A    between atoms: C_3  and  O_25
REMARK    5  A    between atoms: C_4  and  C_22
REMARK    6  A    between atoms: C_4  and  O_23
REMARK    7  A    between atoms: C_5  and  C_20
REMARK    8  A    between atoms: C_5  and  O_21
REMARK    9  A    between atoms: C_6  and  C_8
REMARK   10  A    between atoms: C_6  and  O_9
REMARK   11  A    between atoms: O_9  and  C_10
REMARK   12  A    between atoms: C_13  and  N_17
REMARK   13  A    between atoms: C_26  and  O_27
REMARK                            x       y       z     vdW  Elec       q    Type
REMARK                         _______ _______ _______ _____ _____    ______ ____
ROOT
ATOM      1  C   UNL     1      -3.601  -1.573  -1.159  0.00  0.00    +0.047 C 
ATOM      2  C   UNL     1      -3.188  -0.281  -1.875  0.00  0.00    +0.125 C 
ATOM      3  C   UNL     1      -4.417   0.589  -2.117  0.00  0.00    +0.125 C 
ATOM      4  C   UNL     1      -4.802   1.410  -0.895  0.00  0.00    +0.129 C 
ATOM      5  C   UNL     1      -3.618   2.150  -0.289  0.00  0.00    +0.159 C 
ATOM      6  C   UNL     1      -2.404   1.249  -0.092  0.00  0.00    +0.242 C 
ATOM      7  O   UNL     1      -2.166   0.386  -1.175  0.00  0.00    -0.326 OA
ATOM      8  C   UNL     1      -2.542   0.472   1.223  0.00  0.00    +0.092 C 
ATOM      9  C   UNL     1      -3.232   3.346  -1.167  0.00  0.00    +0.051 C 
ATOM     10  C   UNL     1      -5.858   2.450  -1.321  0.00  0.00    +0.047 C 
ATOM     11  C   UNL     1      -5.598  -0.331  -2.481  0.00  0.00    +0.047 C 
ENDROOT
BRANCH   5  12
ATOM     12  O   UNL     1      -4.013   2.661   0.999  0.00  0.00    -0.379 OA
ATOM     13  H   UNL     1      -3.328   3.179   1.443  0.00  0.00    +0.211 HD
ENDBRANCH   5  12
BRANCH   4  14
ATOM     14  O   UNL     1      -5.405   0.563   0.092  0.00  0.00    -0.383 OA
ATOM     15  H   UNL     1      -5.673   1.027   0.897  0.00  0.00    +0.210 HD
ENDBRANCH   4  14
BRANCH   3  16
ATOM     16  O   UNL     1      -4.175   1.450  -3.236  0.00  0.00    -0.383 OA
ATOM     17  H   UNL     1      -3.988   0.981  -4.061  0.00  0.00    +0.210 HD
ENDBRANCH   3  16
BRANCH   6  18
ATOM     18  O   UNL     1      -1.250   2.110   0.051  0.00  0.00    -0.457 OA
BRANCH  18  19
ATOM     19  C   UNL     1      -0.042   1.503   0.193  0.00  0.00    +0.143 A 
ATOM     20  C   UNL     1       0.062   0.125   0.077  0.00  0.00    +0.049 A 
ATOM     21  C   UNL     1       1.291  -0.489   0.216  0.00  0.00    +0.036 A 
ATOM     22  C   UNL     1       2.420   0.269   0.471  0.00  0.00    +0.128 A 
ATOM     23  C   UNL     1       2.320   1.643   0.587  0.00  0.00    +0.056 A 
ATOM     24  C   UNL     1       1.092   2.262   0.449  0.00  0.00    +0.085 A 
ATOM     25 CL   UNL     1       0.968   3.988   0.595  0.00  0.00    -0.080 Cl
BRANCH  22  26
ATOM     26  N   UNL     1       3.736  -0.392   0.620  0.00  0.00    +0.056 N 
ATOM     27  O   UNL     1       3.824  -1.603   0.517  0.00  0.00    -0.126 OA
ATOM     28  O   UNL     1       4.730   0.275   0.844  0.00  0.00    -0.126 OA
ENDBRANCH  22  26
ENDBRANCH  18  19
ENDBRANCH   6  18
BRANCH   2  29
ATOM     29  C   UNL     1      -2.630  -0.690  -3.258  0.00  0.00    +0.193 C 
BRANCH  29  30
ATOM     30  O   UNL     1      -1.582  -1.645  -3.085  0.00  0.00    -0.392 OA
ATOM     31  H   UNL     1      -1.184  -1.947  -3.914  0.00  0.00    +0.210 HD
ENDBRANCH  29  30
ENDBRANCH   2  29
TORSDOF 8
