REMARK  Name = ZINC14579314
REMARK  13 active torsions:
REMARK  status: ('A' for Active; 'I' for Inactive)
REMARK    1  A    between atoms: C_1  and  C_2
REMARK    2  A    between atoms: C_2  and  C_4
REMARK    3  A    between atoms: C_2  and  O_29
REMARK    4  A    between atoms: N_6  and  C_7
REMARK    5  A    between atoms: N_6  and  C_12
REMARK    6  A    between atoms: C_7  and  C_8
REMARK    7  A    between atoms: C_8  and  C_9
REMARK    8  A    between atoms: C_9  and  C_10
REMARK    9  A    between atoms: C_9  and  C_11
REMARK   10  A    between atoms: C_13  and  N_28
REMARK   11  A    between atoms: N_14  and  C_21
REMARK   12  A    between atoms: C_21  and  C_22
REMARK   13  A    between atoms: O_29  and  C_30
REMARK                            x       y       z     vdW  Elec       q    Type
REMARK                         _______ _______ _______ _____ _____    ______ ____
ROOT
ATOM      1  C   UNL     1       0.938  -0.260  -2.856  0.00  0.00    +0.140 A 
ATOM      2  C   UNL     1       0.510  -0.951  -3.971  0.00  0.00    +0.128 A 
ATOM      3  N   UNL     1       1.326  -1.012  -5.077  0.00  0.00    -0.276 N 
ATOM      4  C   UNL     1       2.526  -0.404  -5.071  0.00  0.00    +0.331 A 
ATOM      5  O   UNL     1       3.232  -0.470  -6.059  0.00  0.00    -0.246 OA
ATOM      6  N   UNL     1       2.959   0.274  -3.994  0.00  0.00    -0.273 N 
ATOM      7  H   UNL     1       3.829   0.704  -4.016  0.00  0.00    +0.173 HD
ATOM      8  C   UNL     1       2.197   0.368  -2.887  0.00  0.00    +0.277 A 
ATOM      9  O   UNL     1       2.597   0.990  -1.917  0.00  0.00    -0.266 OA
ENDROOT
BRANCH   1  12
ATOM     10  C   UNL     1       0.549  -0.709  -0.540  0.00  0.00    +0.260 C 
ATOM     11  O   UNL     1      -0.114  -0.570   0.467  0.00  0.00    -0.271 OA
ATOM     12  N   UNL     1       0.124  -0.179  -1.706  0.00  0.00    -0.261 N 
BRANCH  10  14
ATOM     13  C   UNL     1       1.671  -2.824  -1.185  0.00  0.00    +0.062 C 
ATOM     14  C   UNL     1       1.847  -1.473  -0.488  0.00  0.00    +0.256 C 
BRANCH  14  15
ATOM     15  O   UNL     1       2.221  -1.685   0.875  0.00  0.00    -0.480 OA
BRANCH  15  16
ATOM     16  C   UNL     1       3.541  -1.886   1.128  0.00  0.00    +0.122 A 
ATOM     17  C   UNL     1       4.442  -1.987   0.078  0.00  0.00    +0.047 A 
ATOM     18  C   UNL     1       5.783  -2.191   0.338  0.00  0.00    +0.023 A 
ATOM     19  C   UNL     1       6.228  -2.297   1.643  0.00  0.00    +0.041 A 
ATOM     20  C   UNL     1       5.331  -2.197   2.692  0.00  0.00    +0.023 A 
ATOM     21  C   UNL     1       3.990  -1.986   2.437  0.00  0.00    +0.047 A 
ATOM     22 CL   UNL     1       7.914  -2.554   1.967  0.00  0.00    -0.084 Cl
ENDBRANCH  15  16
ENDBRANCH  14  15
ENDBRANCH  10  14
BRANCH  12  23
ATOM     23  C   UNL     1      -1.182   0.481  -1.778  0.00  0.00    +0.114 C 
BRANCH  23  24
ATOM     24  C   UNL     1      -1.006   1.986  -1.569  0.00  0.00    +0.022 C 
BRANCH  24  25
ATOM     25  C   UNL     1      -2.380   2.657  -1.508  0.00  0.00    -0.016 C 
ATOM     26  C   UNL     1      -2.208   4.141  -1.176  0.00  0.00    +0.007 C 
ATOM     27  C   UNL     1      -3.077   2.515  -2.863  0.00  0.00    +0.007 C 
ENDBRANCH  24  25
ENDBRANCH  23  24
ENDBRANCH  12  23
ENDBRANCH   1  12
BRANCH   2  28
ATOM     28  N   UNL     1      -0.716  -1.572  -3.976  0.00  0.00    -0.343 N 
ATOM     29  H   UNL     1      -1.326  -1.447  -3.232  0.00  0.00    +0.144 HD
ATOM     30  H   UNL     1      -0.971  -2.135  -4.723  0.00  0.00    +0.144 HD
ENDBRANCH   2  28
BRANCH   3  31
ATOM     31  C   UNL     1       0.884  -1.743  -6.267  0.00  0.00    +0.163 C 
BRANCH  31  32
ATOM     32  C   UNL     1       0.135  -0.808  -7.182  0.00  0.00    -0.028 A 
ATOM     33  C   UNL     1      -1.232  -0.656  -7.045  0.00  0.00    +0.005 A 
ATOM     34  C   UNL     1      -1.919   0.201  -7.884  0.00  0.00    +0.000 A 
ATOM     35  C   UNL     1      -1.239   0.907  -8.859  0.00  0.00    +0.000 A 
ATOM     36  C   UNL     1       0.128   0.756  -8.995  0.00  0.00    +0.000 A 
ATOM     37  C   UNL     1       0.816  -0.098  -8.153  0.00  0.00    +0.005 A 
ENDBRANCH  31  32
ENDBRANCH   3  31
TORSDOF 10
