REMARK  Name = ZINC57478464
REMARK  9 active torsions:
REMARK  status: ('A' for Active; 'I' for Inactive)
REMARK    1  A    between atoms: C_1  and  C_2
REMARK    2  A    between atoms: C_2  and  C_3
REMARK    3  A    between atoms: C_6  and  C_9
REMARK    4  A    between atoms: C_11  and  C_30
REMARK    5  A    between atoms: C_12  and  C_17
REMARK    6  A    between atoms: C_17  and  N_18
REMARK    7  A    between atoms: C_30  and  O_32
REMARK    8  A    between atoms: O_32  and  C_33
REMARK    9  A    between atoms: C_33  and  C_34
REMARK                            x       y       z     vdW  Elec       q    Type
REMARK                         _______ _______ _______ _____ _____    ______ ____
ROOT
ATOM      1  C   UNL     1       2.990  -2.048   4.687  0.00  0.00    +0.144 C 
ATOM      2  C   UNL     1       2.811  -3.544   4.856  0.00  0.00    +0.079 C 
ATOM      3  C   UNL     1       2.034  -3.973   5.873  0.00  0.00    +0.038 C 
ATOM      4  N   UNL     1       1.430  -3.089   6.721  0.00  0.00    -0.271 N 
ATOM      5  C   UNL     1       1.554  -1.759   6.618  0.00  0.00    +0.304 C 
ATOM      6  O   UNL     1       0.977  -1.052   7.421  0.00  0.00    -0.252 OA
ATOM      7  N   UNL     1       2.295  -1.181   5.653  0.00  0.00    -0.288 N 
ATOM      8  H   UNL     1       0.881  -3.443   7.437  0.00  0.00    +0.156 HD
ATOM      9  H   UNL     1       2.370  -0.216   5.598  0.00  0.00    +0.151 HD
ENDROOT
BRANCH   1  13
ATOM     10  C   UNL     1       1.646  -0.998   0.770  0.00  0.00    -0.048 A 
ATOM     11  C   UNL     1       2.990  -1.219   1.004  0.00  0.00    +0.004 A 
ATOM     12  C   UNL     1       3.425  -1.558   2.271  0.00  0.00    +0.006 A 
ATOM     13  C   UNL     1       2.515  -1.677   3.305  0.00  0.00    -0.022 A 
ATOM     14  C   UNL     1       1.171  -1.456   3.072  0.00  0.00    +0.006 A 
ATOM     15  C   UNL     1       0.737  -1.112   1.806  0.00  0.00    +0.004 A 
BRANCH  10  17
ATOM     16  C   UNL     1       1.192   0.894  -0.767  0.00  0.00    +0.009 C 
ATOM     17  C   UNL     1       1.172  -0.628  -0.611  0.00  0.00    +0.032 C 
ENDBRANCH  10  17
ENDBRANCH   1  13
BRANCH   2  18
ATOM     18  C   UNL     1       3.437  -4.459   3.977  0.00  0.00    +0.339 C 
ATOM     19  O   UNL     1       3.377  -5.654   4.199  0.00  0.00    -0.245 OA
BRANCH  18  20
ATOM     20  O   UNL     1       4.101  -4.006   2.893  0.00  0.00    -0.462 OA
BRANCH  20  21
ATOM     21  C   UNL     1       4.709  -4.986   2.049  0.00  0.00    +0.229 C 
ATOM     22  C   UNL     1       5.410  -4.289   0.881  0.00  0.00    +0.048 C 
ENDBRANCH  20  21
ENDBRANCH  18  20
ENDBRANCH   2  18
BRANCH   3  23
ATOM     23  C   UNL     1       1.830  -5.452   6.077  0.00  0.00    +0.136 C 
BRANCH  23  24
ATOM     24  N   UNL     1       2.939  -5.995   6.873  0.00  0.00    -0.294 NA
ATOM     25  C   UNL     1       2.853  -5.548   8.270  0.00  0.00    +0.103 C 
ATOM     26  C   UNL     1       4.117  -5.982   9.020  0.00  0.00    +0.122 C 
ATOM     27  N   UNL     1       4.293  -7.431   8.840  0.00  0.00    -0.314 N 
ATOM     28  C   UNL     1       4.253  -7.973   7.473  0.00  0.00    +0.122 C 
ATOM     29  C   UNL     1       2.984  -7.460   6.783  0.00  0.00    +0.103 C 
ATOM     30  C   UNL     1       4.491  -8.267   9.933  0.00  0.00    +0.099 A 
ATOM     31  C   UNL     1       4.534  -9.646   9.747  0.00  0.00    +0.042 A 
ATOM     32  C   UNL     1       4.732 -10.466  10.844  0.00  0.00    +0.005 A 
ATOM     33  C   UNL     1       4.880  -9.878  12.093  0.00  0.00    +0.018 A 
ATOM     34  C   UNL     1       4.827  -8.503  12.204  0.00  0.00    +0.084 A 
ATOM     35  N   UNL     1       4.642  -7.745  11.140  0.00  0.00    -0.350 N 
ATOM     36  H   UNL     1       4.612  -6.781  11.245  0.00  0.00    +0.166 HD
ENDBRANCH  23  24
ENDBRANCH   3  23
TORSDOF 7
