REMARK  Name = ZINC66091424
REMARK  13 active torsions:
REMARK  status: ('A' for Active; 'I' for Inactive)
REMARK    1  A    between atoms: C_1  and  O_2
REMARK    2  A    between atoms: O_2  and  C_3
REMARK    3  A    between atoms: C_6  and  C_9
REMARK    4  A    between atoms: C_9  and  C_11
REMARK    5  A    between atoms: C_9  and  N_29
REMARK    6  A    between atoms: C_11  and  C_12
REMARK    7  A    between atoms: C_12  and  C_14
REMARK    8  A    between atoms: C_12  and  O_28
REMARK    9  A    between atoms: C_14  and  C_15
REMARK   10  A    between atoms: C_17  and  O_26
REMARK   11  A    between atoms: C_20  and  O_21
REMARK   12  A    between atoms: O_21  and  C_22
REMARK   13  A    between atoms: O_26  and  C_27
REMARK                            x       y       z     vdW  Elec       q    Type
REMARK                         _______ _______ _______ _____ _____    ______ ____
ROOT
ATOM      1  C   UNL     1       4.637  -3.513  -5.203  0.00  0.00    +0.118 C 
ENDROOT
BRANCH   1   2
ATOM      2  O   UNL     1       3.976  -4.702  -5.640  0.00  0.00    -0.392 OA
ATOM      3  H   UNL     1       3.948  -5.404  -4.976  0.00  0.00    +0.210 HD
ENDBRANCH   1   2
BRANCH   1   4
ATOM      4  C   UNL     1       3.913  -2.947  -3.980  0.00  0.00    +0.020 C 
BRANCH   4   5
ATOM      5  C   UNL     1       2.505  -2.503  -4.381  0.00  0.00    -0.042 C 
BRANCH   5   9
ATOM      6  C   UNL     1       0.606  -0.607  -1.056  0.00  0.00    +0.120 A 
ATOM      7  C   UNL     1       1.173   0.161  -2.062  0.00  0.00    +0.046 A 
ATOM      8  C   UNL     1       1.786  -0.455  -3.136  0.00  0.00    +0.005 A 
ATOM      9  C   UNL     1       1.835  -1.835  -3.209  0.00  0.00    -0.062 A 
ATOM     10  C   UNL     1       1.270  -2.602  -2.207  0.00  0.00    +0.005 A 
ATOM     11  C   UNL     1       0.661  -1.992  -1.128  0.00  0.00    +0.046 A 
BRANCH   6  13
ATOM     12  C   UNL     1      -0.017   1.425   0.010  0.00  0.00    +0.277 C 
ATOM     13  O   UNL     1       0.002  -0.004   0.002  0.00  0.00    -0.495 OA
ENDBRANCH   6  13
ENDBRANCH   5   9
BRANCH   5  14
ATOM     14  N   UNL     1       1.720  -3.676  -4.790  0.00  0.00    +0.383 N 
ATOM     15  H   UNL     1       1.661  -4.326  -4.021  0.00  0.00    -0.089 HD
ATOM     16  H   UNL     1       0.791  -3.383  -5.055  0.00  0.00    -0.089 HD
ATOM     17  H   UNL     1       2.168  -4.123  -5.576  0.00  0.00    -0.089 HD
ENDBRANCH   5  14
ENDBRANCH   4   5
ENDBRANCH   1   4
BRANCH   1  18
ATOM     18  C   UNL     1       6.085  -3.841  -4.832  0.00  0.00    +0.070 C 
BRANCH  18  19
ATOM     19  C   UNL     1       6.832  -4.283  -6.064  0.00  0.00    +0.004 A 
ATOM     20  C   UNL     1       6.944  -5.630  -6.358  0.00  0.00    +0.057 A 
ATOM     21  C   UNL     1       7.630  -6.039  -7.490  0.00  0.00    +0.166 A 
ATOM     22  C   UNL     1       8.208  -5.096  -8.333  0.00  0.00    +0.211 A 
ATOM     23  C   UNL     1       8.095  -3.743  -8.037  0.00  0.00    +0.211 A 
ATOM     24  C   UNL     1       7.401  -3.338  -6.903  0.00  0.00    +0.169 A 
ATOM     25  O   UNL     1       8.741  -3.029  -9.006  0.00  0.00    -0.449 OA
ATOM     26  C   UNL     1       9.596  -3.974  -9.676  0.00  0.00    +0.467 C 
ATOM     27  O   UNL     1       8.924  -5.234  -9.488  0.00  0.00    -0.449 OA
BRANCH  24  28
ATOM     28  O   UNL     1       7.284  -2.014  -6.614  0.00  0.00    -0.491 OA
ATOM     29  C   UNL     1       8.308  -1.434  -5.802  0.00  0.00    +0.277 C 
ENDBRANCH  24  28
BRANCH  21  30
ATOM     30  O   UNL     1       7.739  -7.365  -7.776  0.00  0.00    -0.491 OA
ATOM     31  C   UNL     1       7.121  -8.278  -6.867  0.00  0.00    +0.277 C 
ENDBRANCH  21  30
ENDBRANCH  18  19
ENDBRANCH   1  18
TORSDOF 10
