REMARK  Name = ZINC05191835
REMARK  7 active torsions:
REMARK  status: ('A' for Active; 'I' for Inactive)
REMARK    1  A    between atoms: C_1  and  C_2
REMARK    2  A    between atoms: C_9  and  N_14
REMARK    3  A    between atoms: C_10  and  C_11
REMARK    4  A    between atoms: C_15  and  C_17
REMARK    5  A    between atoms: C_17  and  C_18
REMARK    6  A    between atoms: C_18  and  S_19
REMARK    7  A    between atoms: S_19  and  C_20
REMARK                            x       y       z     vdW  Elec       q    Type
REMARK                         _______ _______ _______ _____ _____    ______ ____
ROOT
ATOM      1  C   UNL     1      -6.616   5.157  -0.035  0.00  0.00    +0.008 C 
ATOM      2  C   UNL     1      -5.599   4.053  -0.329  0.00  0.00    -0.009 C 
ATOM      3  C   UNL     1      -5.931   2.810   0.503  0.00  0.00    +0.008 C 
ATOM      4  C   UNL     1      -5.080   1.628   0.036  0.00  0.00    +0.037 C 
ATOM      5  C   UNL     1      -3.616   2.051   0.030  0.00  0.00    -0.023 A 
ATOM      6  C   UNL     1      -3.268   3.356   0.035  0.00  0.00    -0.004 A 
ATOM      7  S   UNL     1      -1.498   3.353   0.035  0.00  0.00    -0.077 S 
ATOM      8  C   UNL     1      -1.221   1.643   0.017  0.00  0.00    +0.084 A 
ATOM      9  C   UNL     1      -2.505   1.115   0.020  0.00  0.00    +0.068 A 
ATOM     10  C   UNL     1      -4.190   4.536   0.046  0.00  0.00    +0.046 C 
ENDROOT
BRANCH   9  11
ATOM     11  C   UNL     1      -2.731  -0.334   0.014  0.00  0.00    +0.244 C 
ATOM     12  O   UNL     1      -2.819  -0.941   1.065  0.00  0.00    -0.270 OA
ATOM     13  N   UNL     1      -2.840  -0.994  -1.156  0.00  0.00    -0.325 N 
ATOM     14  H   UNL     1      -2.770  -0.510  -1.994  0.00  0.00    +0.145 HD
ATOM     15  H   UNL     1      -2.990  -1.952  -1.160  0.00  0.00    +0.145 HD
ENDBRANCH   9  11
BRANCH   8  16
ATOM     16  N   UNL     1      -0.011   0.966   0.007  0.00  0.00    -0.279 N 
ATOM     17  C   UNL     1       1.147   1.655   0.000  0.00  0.00    +0.218 C 
ATOM     18  O   UNL     1       1.130   2.868   0.007  0.00  0.00    -0.275 OA
ATOM     19  H   UNL     1       0.002  -0.004   0.002  0.00  0.00    +0.155 HD
BRANCH  17  20
ATOM     20  C   UNL     1       2.462   0.920  -0.017  0.00  0.00    +0.107 C 
BRANCH  20  21
ATOM     21  C   UNL     1       3.611   1.930  -0.022  0.00  0.00    +0.083 C 
BRANCH  21  22
ATOM     22  S   UNL     1       5.194   1.044  -0.042  0.00  0.00    -0.125 S 
BRANCH  22  23
ATOM     23  C   UNL     1       6.401   2.328  -0.047  0.00  0.00    +0.008 A 
ATOM     24  C   UNL     1       6.001   3.659  -0.041  0.00  0.00    +0.016 A 
ATOM     25  C   UNL     1       6.949   4.663  -0.040  0.00  0.00    +0.021 A 
ATOM     26  C   UNL     1       8.296   4.345  -0.054  0.00  0.00    +0.041 A 
ATOM     27  C   UNL     1       8.697   3.021  -0.065  0.00  0.00    +0.021 A 
ATOM     28  C   UNL     1       7.754   2.012  -0.061  0.00  0.00    +0.016 A 
ATOM     29 CL   UNL     1       9.485   5.610  -0.058  0.00  0.00    -0.084 Cl
ENDBRANCH  22  23
ENDBRANCH  21  22
ENDBRANCH  20  21
ENDBRANCH  17  20
ENDBRANCH   8  16
TORSDOF 6
