REMARK  Name = ZINC05346130
REMARK  8 active torsions:
REMARK  status: ('A' for Active; 'I' for Inactive)
REMARK    1  A    between atoms: C_1  and  C_2
REMARK    2  A    between atoms: C_2  and  C_3
REMARK    3  A    between atoms: C_3  and  C_4
REMARK    4  A    between atoms: C_4  and  N_5
REMARK    5  A    between atoms: C_10  and  C_27
REMARK    6  A    between atoms: C_27  and  C_28
REMARK    7  A    between atoms: C_28  and  C_29
REMARK    8  A    between atoms: C_28  and  C_30
REMARK                            x       y       z     vdW  Elec       q    Type
REMARK                         _______ _______ _______ _____ _____    ______ ____
ROOT
ATOM      1  N   UNL     1       3.716   2.708   2.371  0.00  0.00    -0.242 N 
ATOM      2  C   UNL     1       4.707   2.654   1.474  0.00  0.00    +0.224 C 
ATOM      3  O   UNL     1       5.540   3.517   1.298  0.00  0.00    -0.275 OA
ATOM      4  C   UNL     1       4.626   1.350   0.713  0.00  0.00    +0.073 C 
ATOM      5  C   UNL     1       4.208   1.639  -0.745  0.00  0.00    -0.057 C 
ATOM      6  C   UNL     1       2.384   0.525   0.199  0.00  0.00    +0.050 C 
ATOM      7  C   UNL     1       3.403   0.625   1.341  0.00  0.00    +0.088 C 
ATOM      8  C   UNL     1       2.919   1.633   2.383  0.00  0.00    +0.225 C 
ATOM      9  O   UNL     1       1.964   1.477   3.113  0.00  0.00    -0.275 OA
ATOM     10  C   UNL     1       1.611  -0.762   0.262  0.00  0.00    -0.026 A 
ATOM     11  C   UNL     1       1.975  -2.089   0.227  0.00  0.00    +0.004 A 
ATOM     12  C   UNL     1       1.008  -3.076   0.308  0.00  0.00    +0.002 A 
ATOM     13  C   UNL     1      -0.325  -2.725   0.423  0.00  0.00    +0.022 A 
ATOM     14  C   UNL     1      -0.695  -1.396   0.457  0.00  0.00    +0.062 A 
ATOM     15  C   UNL     1       0.273  -0.396   0.377  0.00  0.00    +0.054 A 
ATOM     16  N   UNL     1       0.152   0.995   0.391  0.00  0.00    -0.285 N 
ATOM     17  C   UNL     1       1.347   1.610   0.291  0.00  0.00    +0.211 C 
ATOM     18  O   UNL     1       1.546   2.807   0.277  0.00  0.00    -0.277 OA
ATOM     19 CL   UNL     1      -2.371  -0.967   0.602  0.00  0.00    -0.082 Cl
ATOM     20  H   UNL     1      -0.694   1.464   0.461  0.00  0.00    +0.155 HD
ATOM     21  N   UNL     1       3.167   0.646  -1.018  0.00  0.00    +0.394 N 
ATOM     22  H   UNL     1       3.593  -0.258  -1.257  0.00  0.00    -0.083 HD
ATOM     23  H   UNL     1       2.572   0.960  -1.794  0.00  0.00    -0.083 HD
ENDROOT
BRANCH   1  24
ATOM     24  C   UNL     1       3.518   3.850   3.266  0.00  0.00    +0.116 C 
BRANCH  24  25
ATOM     25  C   UNL     1       2.595   4.870   2.595  0.00  0.00    +0.019 C 
BRANCH  25  27
ATOM     26  C   UNL     1       1.465   7.083   2.860  0.00  0.00    +0.004 C 
ATOM     27  C   UNL     1       2.389   6.063   3.530  0.00  0.00    -0.002 C 
ENDBRANCH  25  27
ENDBRANCH  24  25
ENDBRANCH   1  24
BRANCH   5  28
ATOM     28  C   UNL     1       5.403   1.469  -1.685  0.00  0.00    -0.012 C 
BRANCH  28  29
ATOM     29  C   UNL     1       6.414   2.590  -1.434  0.00  0.00    -0.019 C 
ATOM     30  C   UNL     1       7.672   2.338  -2.267  0.00  0.00    +0.007 C 
ATOM     31  C   UNL     1       5.797   3.932  -1.834  0.00  0.00    +0.007 C 
ENDBRANCH  28  29
ENDBRANCH   5  28
TORSDOF 5
