REMARK  Name = ZINC40038176
REMARK  8 active torsions:
REMARK  status: ('A' for Active; 'I' for Inactive)
REMARK    1  A    between atoms: C_1  and  C_2
REMARK    2  A    between atoms: C_4  and  C_37
REMARK    3  A    between atoms: C_8  and  C_36
REMARK    4  A    between atoms: C_9  and  C_11
REMARK    5  A    between atoms: N_13  and  C_14
REMARK    6  A    between atoms: C_15  and  C_25
REMARK    7  A    between atoms: C_20  and  C_24
REMARK    8  A    between atoms: N_27  and  C_28
REMARK                            x       y       z     vdW  Elec       q    Type
REMARK                         _______ _______ _______ _____ _____    ______ ____
ROOT
ATOM      1  C   UNL     1       0.125  -7.985   2.090  0.00  0.00    +0.085 A 
ATOM      2  C   UNL     1       0.145  -9.234   1.489  0.00  0.00    +0.069 A 
ATOM      3  C   UNL     1       0.165 -10.392   2.365  0.00  0.00    -0.023 A 
ATOM      4  C   UNL     1       0.161 -10.089   3.681  0.00  0.00    -0.004 A 
ATOM      5  S   UNL     1       0.139  -8.321   3.735  0.00  0.00    -0.077 S 
ATOM      6  C   UNL     1       0.180 -11.054   4.826  0.00  0.00    +0.046 C 
ATOM      7  C   UNL     1       0.585 -12.434   4.287  0.00  0.00    -0.009 C 
ATOM      8  C   UNL     1      -0.248 -12.742   3.040  0.00  0.00    +0.008 C 
ATOM      9  C   UNL     1       0.187 -11.836   1.886  0.00  0.00    +0.037 C 
ATOM     10  C   UNL     1       0.325 -13.498   5.356  0.00  0.00    +0.008 C 
ENDROOT
BRANCH   1  13
ATOM     11  C   UNL     1       0.092  -5.622   2.221  0.00  0.00    +0.284 C 
ATOM     12  O   UNL     1       0.099  -5.699   3.435  0.00  0.00    -0.266 OA
ATOM     13  N   UNL     1       0.104  -6.744   1.474  0.00  0.00    -0.273 N 
ATOM     14  H   UNL     1       0.098  -6.683   0.506  0.00  0.00    +0.156 HD
BRANCH  11  23
ATOM     15  C   UNL     1      -0.018   1.503   0.010  0.00  0.00    +0.044 C 
ATOM     16  C   UNL     1       0.002  -0.004   0.002  0.00  0.00    -0.049 A 
ATOM     17  C   UNL     1       0.006  -0.687  -1.207  0.00  0.00    +0.010 A 
ATOM     18  C   UNL     1       0.025  -2.064  -1.238  0.00  0.00    -0.007 A 
ATOM     19  C   UNL     1       0.041  -2.783  -0.048  0.00  0.00    +0.139 A 
ATOM     20  C   UNL     1       0.037  -2.086   1.175  0.00  0.00    +0.024 A 
ATOM     21  C   UNL     1       0.023  -0.689   1.184  0.00  0.00    +0.015 A 
ATOM     22  C   UNL     1       0.056  -3.112   2.216  0.00  0.00    +0.008 A 
ATOM     23  C   UNL     1       0.070  -4.306   1.568  0.00  0.00    +0.194 A 
ATOM     24  O   UNL     1       0.060  -4.100   0.235  0.00  0.00    -0.450 OA
ATOM     25  C   UNL     1       0.061  -2.890   3.707  0.00  0.00    +0.048 C 
ATOM     26  C   UNL     1       0.028  -2.790  -2.558  0.00  0.00    +0.047 C 
ENDBRANCH  11  23
ENDBRANCH   1  13
BRANCH   2  27
ATOM     27  C   UNL     1       0.145  -9.380   0.030  0.00  0.00    +0.247 C 
ATOM     28  O   UNL     1       1.200  -9.423  -0.577  0.00  0.00    -0.270 OA
ATOM     29  N   UNL     1      -1.021  -9.466  -0.639  0.00  0.00    -0.307 N 
ATOM     30  H   UNL     1      -1.861  -9.431  -0.156  0.00  0.00    +0.149 HD
BRANCH  29  31
ATOM     31  C   UNL     1      -1.021  -9.612  -2.097  0.00  0.00    +0.096 C 
ATOM     32  C   UNL     1      -0.952  -8.225  -2.758  0.00  0.00    +0.046 C 
ATOM     33  C   UNL     1      -1.272  -8.343  -4.267  0.00  0.00    +0.168 C 
ATOM     34  S   UNL     1      -2.369  -9.818  -4.334  0.00  0.00    -0.029 S 
ATOM     35  O   UNL     1      -1.735 -10.832  -5.101  0.00  0.00    -0.174 OA
ATOM     36  O   UNL     1      -3.684  -9.401  -4.676  0.00  0.00    -0.174 OA
ATOM     37  C   UNL     1      -2.337 -10.302  -2.556  0.00  0.00    +0.188 C 
ENDBRANCH  29  31
ENDBRANCH   2  27
TORSDOF 4
