REMARK  Name = ZINC39980210
REMARK  4 active torsions:
REMARK  status: ('A' for Active; 'I' for Inactive)
REMARK    1  A    between atoms: C_4  and  S_7
REMARK    2  A    between atoms: S_7  and  N_10
REMARK    3  A    between atoms: C_12  and  N_22
REMARK    4  A    between atoms: N_22  and  C_23
REMARK                            x       y       z     vdW  Elec       q    Type
REMARK                         _______ _______ _______ _____ _____    ______ ____
ROOT
ATOM      1  N   UNL     1       3.954  -1.203   1.573  0.00  0.00    -0.110 NA
ATOM      2  C   UNL     1       5.163  -1.643   1.760  0.00  0.00    +0.192 C 
ATOM      3  C   UNL     1       5.718  -1.793   3.159  0.00  0.00    +0.237 C 
ATOM      4  N   UNL     1       7.092  -2.297   3.303  0.00  0.00    -0.359 N 
ATOM      5  C   UNL     1       7.764  -2.589   2.225  0.00  0.00    +0.063 A 
ATOM      6  C   UNL     1       9.141  -3.096   2.314  0.00  0.00    +0.027 A 
ATOM      7  C   UNL     1       9.805  -3.389   1.175  0.00  0.00    +0.002 A 
ATOM      8  C   UNL     1       9.214  -3.221  -0.089  0.00  0.00    +0.002 A 
ATOM      9  C   UNL     1       7.955  -2.760  -0.250  0.00  0.00    +0.030 A 
ATOM     10  C   UNL     1       7.165  -2.421   0.878  0.00  0.00    +0.089 A 
ATOM     11  N   UNL     1       5.936  -1.977   0.715  0.00  0.00    -0.226 NA
ATOM     12  H   UNL     1       7.490  -2.409   4.181  0.00  0.00    +0.162 HD
ENDROOT
BRANCH   1  13
ATOM     13  S   UNL     1       3.357  -1.050   0.036  0.00  0.00    +0.100 S 
ATOM     14  O   UNL     1       3.254  -2.366  -0.492  0.00  0.00    -0.146 OA
ATOM     15  O   UNL     1       4.120  -0.033  -0.597  0.00  0.00    -0.146 OA
BRANCH  13  19
ATOM     16  C   UNL     1      -0.868   0.534   0.391  0.00  0.00    +0.000 A 
ATOM     17  C   UNL     1       0.193   1.413   0.287  0.00  0.00    +0.002 A 
ATOM     18  C   UNL     1       1.484   0.930   0.179  0.00  0.00    +0.029 A 
ATOM     19  C   UNL     1       1.712  -0.434   0.175  0.00  0.00    +0.113 A 
ATOM     20  C   UNL     1       0.651  -1.313   0.280  0.00  0.00    +0.029 A 
ATOM     21  C   UNL     1      -0.639  -0.829   0.386  0.00  0.00    +0.002 A 
ENDBRANCH  13  19
ENDBRANCH   1  13
BRANCH   3  22
ATOM     22  N   UNL     1       4.831  -2.696   3.897  0.00  0.00    -0.316 N 
ATOM     23  H   UNL     1       4.503  -3.505   3.475  0.00  0.00    +0.148 HD
BRANCH  22  24
ATOM     24  C   UNL     1       4.458  -2.391   5.212  0.00  0.00    +0.065 A 
ATOM     25  C   UNL     1       5.027  -1.304   5.861  0.00  0.00    +0.028 A 
ATOM     26  C   UNL     1       4.657  -1.005   7.159  0.00  0.00    +0.040 A 
ATOM     27  C   UNL     1       3.721  -1.789   7.812  0.00  0.00    +0.126 A 
ATOM     28  C   UNL     1       3.153  -2.874   7.168  0.00  0.00    +0.078 A 
ATOM     29  C   UNL     1       3.514  -3.174   5.867  0.00  0.00    +0.147 A 
ATOM     30  F   UNL     1       2.954  -4.229   5.235  0.00  0.00    -0.203 F 
ATOM     31  F   UNL     1       3.363  -1.494   9.081  0.00  0.00    -0.205 F 
ENDBRANCH  22  24
ENDBRANCH   3  22
TORSDOF 4
