REMARK  Name = ZINC63726741
REMARK  6 active torsions:
REMARK  status: ('A' for Active; 'I' for Inactive)
REMARK    1  A    between atoms: C_1  and  C_2
REMARK    2  A    between atoms: C_2  and  C_4
REMARK    3  A    between atoms: C_2  and  N_12
REMARK    4  A    between atoms: C_13  and  C_15
REMARK    5  A    between atoms: C_15  and  C_16
REMARK    6  A    between atoms: C_16  and  C_17
REMARK                            x       y       z     vdW  Elec       q    Type
REMARK                         _______ _______ _______ _____ _____    ______ ____
ROOT
ATOM      1  N   UNL     1       0.711  -0.489   1.189  0.00  0.00    -0.309 N 
ATOM      2  C   UNL     1       2.054  -0.600   1.174  0.00  0.00    +0.214 C 
ATOM      3  O   UNL     1       2.676  -0.297   0.177  0.00  0.00    -0.276 OA
ATOM      4  H   UNL     1       0.213  -0.731   1.986  0.00  0.00    +0.149 HD
ENDROOT
BRANCH   1   6
ATOM      5  C   UNL     1      -0.019   1.526   0.010  0.00  0.00    +0.033 C 
ATOM      6  C   UNL     1       0.002  -0.004   0.002  0.00  0.00    +0.100 C 
BRANCH   6   7
ATOM      7  C   UNL     1      -1.412  -0.526   0.013  0.00  0.00    -0.026 A 
ATOM      8  C   UNL     1      -2.123  -0.571   1.198  0.00  0.00    +0.007 A 
ATOM      9  C   UNL     1      -3.419  -1.049   1.209  0.00  0.00    +0.022 A 
ATOM     10  C   UNL     1      -4.006  -1.483   0.034  0.00  0.00    +0.059 A 
ATOM     11  C   UNL     1      -3.295  -1.438  -1.153  0.00  0.00    +0.060 A 
ATOM     12  C   UNL     1      -1.999  -0.953  -1.163  0.00  0.00    +0.027 A 
ATOM     13 CL   UNL     1      -4.030  -1.982  -2.628  0.00  0.00    -0.082 Cl
ATOM     14 CL   UNL     1      -5.635  -2.085   0.048  0.00  0.00    -0.082 Cl
ENDBRANCH   6   7
ENDBRANCH   1   6
BRANCH   2  15
ATOM     15  C   UNL     1       2.783  -1.099   2.395  0.00  0.00    +0.100 C 
BRANCH  15  16
ATOM     16  C   UNL     1       4.287  -1.129   2.114  0.00  0.00    +0.042 C 
BRANCH  16  17
ATOM     17  C   UNL     1       5.015  -1.628   3.335  0.00  0.00    -0.041 C 
ATOM     18  C   UNL     1       5.408  -2.898   3.585  0.00  0.00    -0.001 A 
ATOM     19  C   UNL     1       5.279  -4.146   2.825  0.00  0.00    +0.010 A 
ATOM     20  C   UNL     1       5.784  -5.287   3.346  0.00  0.00    +0.001 A 
ATOM     21  C   UNL     1       6.425  -5.308   4.593  0.00  0.00    +0.002 A 
ATOM     22  C   UNL     1       6.582  -4.201   5.349  0.00  0.00    +0.026 A 
ATOM     23  C   UNL     1       6.091  -2.945   4.898  0.00  0.00    +0.043 A 
ATOM     24  N   UNL     1       6.118  -1.751   5.439  0.00  0.00    -0.380 N 
ATOM     25  C   UNL     1       5.461  -0.809   4.526  0.00  0.00    +0.144 C 
ATOM     26  H   UNL     1       6.511  -1.528   6.297  0.00  0.00    +0.160 HD
ENDBRANCH  16  17
ENDBRANCH  15  16
ENDBRANCH   2  15
TORSDOF 5
