REMARK  Name = ZINC63557665
REMARK  10 active torsions:
REMARK  status: ('A' for Active; 'I' for Inactive)
REMARK    1  A    between atoms: C_1  and  C_2
REMARK    2  A    between atoms: C_2  and  C_3
REMARK    3  A    between atoms: C_3  and  O_4
REMARK    4  A    between atoms: O_4  and  C_5
REMARK    5  A    between atoms: C_5  and  C_7
REMARK    6  A    between atoms: C_10  and  N_13
REMARK    7  A    between atoms: C_14  and  C_16
REMARK    8  A    between atoms: N_21  and  C_23
REMARK    9  A    between atoms: C_23  and  C_24
REMARK   10  A    between atoms: C_24  and  C_25
REMARK                            x       y       z     vdW  Elec       q    Type
REMARK                         _______ _______ _______ _____ _____    ______ ____
ROOT
ATOM      1  C   UNL     1       2.461 -10.287   3.462  0.00  0.00    +0.101 C 
ATOM      2  C   UNL     1       1.093 -10.985   3.645  0.00  0.00    +0.110 C 
ATOM      3  C   UNL     1       1.403 -12.187   4.509  0.00  0.00    +0.216 C 
ATOM      4  O   UNL     1       0.672 -13.144   4.656  0.00  0.00    -0.276 OA
ATOM      5  N   UNL     1       2.606 -12.041   5.090  0.00  0.00    -0.300 N 
ATOM      6  C   UNL     1       3.230 -10.767   4.712  0.00  0.00    +0.121 C 
ENDROOT
BRANCH   1   8
ATOM      7  N   UNL     1       1.607  -8.180   2.487  0.00  0.00    -0.285 N 
ATOM      8  C   UNL     1       2.306  -8.788   3.466  0.00  0.00    +0.222 C 
ATOM      9  O   UNL     1       2.811  -8.129   4.350  0.00  0.00    -0.275 OA
ATOM     10  H   UNL     1       1.139  -8.711   1.824  0.00  0.00    +0.155 HD
BRANCH   7  14
ATOM     11  C   UNL     1       1.454  -4.021   2.312  0.00  0.00    +0.059 A 
ATOM     12  C   UNL     1       2.607  -4.661   2.775  0.00  0.00    +0.017 A 
ATOM     13  C   UNL     1       2.654  -6.035   2.832  0.00  0.00    +0.024 A 
ATOM     14  C   UNL     1       1.556  -6.788   2.429  0.00  0.00    +0.033 A 
ATOM     15  C   UNL     1       0.406  -6.154   1.967  0.00  0.00    +0.024 A 
ATOM     16  C   UNL     1       0.350  -4.780   1.913  0.00  0.00    +0.017 A 
BRANCH  11  17
ATOM     17  C   UNL     1       1.400  -2.549   2.250  0.00  0.00    +0.339 C 
ATOM     18  O   UNL     1       0.395  -1.994   1.852  0.00  0.00    -0.245 OA
BRANCH  17  19
ATOM     19  O   UNL     1       2.465  -1.819   2.635  0.00  0.00    -0.461 OA
BRANCH  19  20
ATOM     20  C   UNL     1       2.342  -0.397   2.549  0.00  0.00    +0.232 C 
BRANCH  20  22
ATOM     21  C   UNL     1       3.511   1.778   2.932  0.00  0.00    +0.007 C 
ATOM     22  C   UNL     1       3.642   0.256   3.024  0.00  0.00    +0.038 C 
ENDBRANCH  20  22
ENDBRANCH  19  20
ENDBRANCH  17  19
ENDBRANCH  11  17
ENDBRANCH   7  14
ENDBRANCH   1   8
BRANCH   5  23
ATOM     23  C   UNL     1       3.217 -13.027   5.985  0.00  0.00    +0.112 C 
BRANCH  23  24
ATOM     24  C   UNL     1       4.055 -14.010   5.165  0.00  0.00    +0.052 C 
BRANCH  24  25
ATOM     25  C   UNL     1       4.683 -15.024   6.086  0.00  0.00    -0.040 C 
ATOM     26  C   UNL     1       4.205 -16.252   6.390  0.00  0.00    +0.002 A 
ATOM     27  C   UNL     1       3.003 -16.983   5.971  0.00  0.00    +0.048 A 
ATOM     28  C   UNL     1       2.790 -18.229   6.457  0.00  0.00    +0.124 A 
ATOM     29  C   UNL     1       3.687 -18.836   7.349  0.00  0.00    +0.040 A 
ATOM     30  C   UNL     1       4.811 -18.227   7.779  0.00  0.00    +0.029 A 
ATOM     31  C   UNL     1       5.135 -16.916   7.332  0.00  0.00    +0.043 A 
ATOM     32  N   UNL     1       6.149 -16.128   7.600  0.00  0.00    -0.380 N 
ATOM     33  C   UNL     1       5.979 -14.877   6.852  0.00  0.00    +0.144 C 
ATOM     34  F   UNL     1       1.684 -18.904   6.074  0.00  0.00    -0.205 F 
ATOM     35  H   UNL     1       6.888 -16.338   8.190  0.00  0.00    +0.160 HD
ENDBRANCH  24  25
ENDBRANCH  23  24
ENDBRANCH   5  23
TORSDOF 9
