REMARK  Name = ZINC33068941
REMARK  8 active torsions:
REMARK  status: ('A' for Active; 'I' for Inactive)
REMARK    1  A    between atoms: C_1  and  C_2
REMARK    2  A    between atoms: C_2  and  C_3
REMARK    3  A    between atoms: C_3  and  N_4
REMARK    4  A    between atoms: N_4  and  C_5
REMARK    5  A    between atoms: N_4  and  C_13
REMARK    6  A    between atoms: C_5  and  C_6
REMARK    7  A    between atoms: C_9  and  C_12
REMARK    8  A    between atoms: C_13  and  C_14
REMARK                            x       y       z     vdW  Elec       q    Type
REMARK                         _______ _______ _______ _____ _____    ______ ____
ROOT
ATOM      1  C   UNL     1       1.118  -1.821  -1.287  0.00  0.00    +0.037 A 
ATOM      2  C   UNL     1       1.795  -0.818  -1.949  0.00  0.00    +0.093 A 
ATOM      3  C   UNL     1       1.285  -0.309  -3.144  0.00  0.00    +0.259 A 
ATOM      4  O   UNL     1       1.880   0.578  -3.734  0.00  0.00    -0.267 OA
ATOM      5  N   UNL     1       0.118  -0.807  -3.652  0.00  0.00    -0.260 N 
ATOM      6  C   UNL     1      -0.493  -0.390  -4.827  0.00  0.00    +0.039 A 
ATOM      7  C   UNL     1      -1.638  -0.980  -5.192  0.00  0.00    +0.013 A 
ATOM      8  S   UNL     1      -1.933  -2.164  -3.905  0.00  0.00    -0.056 S 
ATOM      9  C   UNL     1      -0.486  -1.799  -2.933  0.00  0.00    +0.159 A 
ATOM     10  N   UNL     1      -0.012  -2.286  -1.813  0.00  0.00    -0.337 N 
ATOM     11  C   UNL     1      -2.471  -0.703  -6.403  0.00  0.00    +0.044 C 
ATOM     12  C   UNL     1      -2.012   0.631  -7.011  0.00  0.00    +0.006 C 
ATOM     13  C   UNL     1      -0.483   0.629  -7.095  0.00  0.00    +0.006 C 
ATOM     14  C   UNL     1       0.116   0.713  -5.691  0.00  0.00    +0.055 C 
ATOM     15  H   UNL     1      -0.495  -2.994  -1.358  0.00  0.00    +0.168 HD
ENDROOT
BRANCH   1  16
ATOM     16  C   UNL     1       1.651  -2.383   0.005  0.00  0.00    +0.138 C 
BRANCH  16  17
ATOM     17  N   UNL     1       0.724  -2.064   1.098  0.00  0.00    -0.293 NA
BRANCH  17  18
ATOM     18  C   UNL     1       0.739  -0.626   1.398  0.00  0.00    +0.085 C 
BRANCH  18  20
ATOM     19  C   UNL     1       2.155   1.281   2.172  0.00  0.00    +0.005 C 
ATOM     20  C   UNL     1       2.123  -0.226   1.912  0.00  0.00    +0.012 C 
ENDBRANCH  18  20
ENDBRANCH  17  18
BRANCH  17  21
ATOM     21  C   UNL     1       1.032  -2.855   2.297  0.00  0.00    +0.120 C 
BRANCH  21  22
ATOM     22  C   UNL     1      -0.075  -2.687   3.307  0.00  0.00    -0.033 A 
ATOM     23  C   UNL     1      -0.012  -1.668   4.238  0.00  0.00    +0.005 A 
ATOM     24  C   UNL     1      -1.027  -1.515   5.164  0.00  0.00    +0.003 A 
ATOM     25  C   UNL     1      -2.105  -2.380   5.158  0.00  0.00    -0.050 A 
ATOM     26  C   UNL     1      -2.168  -3.399   4.226  0.00  0.00    +0.003 A 
ATOM     27  C   UNL     1      -1.155  -3.550   3.297  0.00  0.00    +0.005 A 
ATOM     28  C   UNL     1      -3.211  -2.214   6.168  0.00  0.00    +0.044 C 
ENDBRANCH  21  22
ENDBRANCH  17  21
ENDBRANCH  16  17
ENDBRANCH   1  16
TORSDOF 6
