REMARK  Name = ZINC20358555
REMARK  10 active torsions:
REMARK  status: ('A' for Active; 'I' for Inactive)
REMARK    1  A    between atoms: C_1  and  C_2
REMARK    2  A    between atoms: C_2  and  C_4
REMARK    3  A    between atoms: C_4  and  C_5
REMARK    4  A    between atoms: C_5  and  C_6
REMARK    5  A    between atoms: C_6  and  S_7
REMARK    6  A    between atoms: S_7  and  C_8
REMARK    7  A    between atoms: C_26  and  C_28
REMARK    8  A    between atoms: C_26  and  C_29
REMARK    9  A    between atoms: C_31  and  S_33
REMARK   10  A    between atoms: S_33  and  C_34
REMARK                            x       y       z     vdW  Elec       q    Type
REMARK                         _______ _______ _______ _____ _____    ______ ____
ROOT
ATOM      1  C   UNL     1       1.410  -1.980   0.078  0.00  0.00    +0.116 A 
ATOM      2  C   UNL     1       1.267  -0.599   0.069  0.00  0.00    +0.072 A 
ATOM      3  C   UNL     1       0.002  -0.004   0.013  0.00  0.00    +0.093 A 
ATOM      4  C   UNL     1      -0.018   1.470   0.011  0.00  0.00    +0.037 A 
ATOM      5  C   UNL     1      -1.151   2.318  -0.042  0.00  0.00    -0.024 A 
ATOM      6  C   UNL     1      -0.981   3.667  -0.029  0.00  0.00    +0.022 A 
ATOM      7  C   UNL     1       0.309   4.207   0.021  0.00  0.00    +0.128 A 
ATOM      8  N   UNL     1       1.367   3.413   0.064  0.00  0.00    -0.224 NA
ATOM      9  C   UNL     1       1.236   2.102   0.062  0.00  0.00    +0.113 A 
ATOM     10  S   UNL     1       2.401   0.762   0.115  0.00  0.00    -0.064 S 
ATOM     11  N   UNL     1       0.480   5.584   0.024  0.00  0.00    -0.310 N 
ATOM     12  C   UNL     1       1.240   6.023  -1.155  0.00  0.00    +0.134 C 
ATOM     13  C   UNL     1       1.355   7.550  -1.143  0.00  0.00    +0.178 C 
ATOM     14  O   UNL     1       1.965   7.967   0.081  0.00  0.00    -0.377 OA
ATOM     15  C   UNL     1       1.251   7.557   1.250  0.00  0.00    +0.178 C 
ATOM     16  C   UNL     1       1.136   6.031   1.262  0.00  0.00    +0.134 C 
ATOM     17  C   UNL     1      -2.158   4.609  -0.064  0.00  0.00    +0.199 C 
ATOM     18  O   UNL     1      -3.331   3.916  -0.495  0.00  0.00    -0.369 OA
ATOM     19  C   UNL     1      -3.583   2.722   0.254  0.00  0.00    +0.068 C 
ATOM     20  C   UNL     1      -2.516   1.688  -0.114  0.00  0.00    +0.070 C 
ATOM     21  C   UNL     1      -4.970   2.178  -0.094  0.00  0.00    +0.041 C 
ATOM     22  C   UNL     1      -3.509   3.028   1.751  0.00  0.00    +0.041 C 
ATOM     23  N   UNL     1      -1.053  -0.851  -0.033  0.00  0.00    -0.221 NA
ATOM     24  C   UNL     1      -0.884  -2.156  -0.022  0.00  0.00    +0.190 A 
ATOM     25  N   UNL     1       0.310  -2.732   0.032  0.00  0.00    -0.214 NA
ENDROOT
BRANCH  24  26
ATOM     26  S   UNL     1      -2.311  -3.187  -0.083  0.00  0.00    -0.089 S 
ATOM     27  C   UNL     1      -1.524  -4.817  -0.044  0.00  0.00    +0.093 C 
ENDBRANCH  24  26
BRANCH   1  28
ATOM     28  S   UNL     1       3.007  -2.722   0.150  0.00  0.00    -0.105 S 
BRANCH  28  29
ATOM     29  C   UNL     1       2.542  -4.471   0.134  0.00  0.00    +0.076 C 
BRANCH  29  30
ATOM     30  C   UNL     1       3.804  -5.334   0.191  0.00  0.00    +0.018 C 
BRANCH  30  31
ATOM     31  C   UNL     1       3.411  -6.813   0.177  0.00  0.00    +0.075 C 
BRANCH  31  33
ATOM     32  C   UNL     1       4.540  -9.166   0.232  0.00  0.00    +0.086 C 
ATOM     33  C   UNL     1       4.654  -7.663   0.234  0.00  0.00    +0.130 C 
ATOM     34  O   UNL     1       5.742  -7.141   0.281  0.00  0.00    -0.298 OA
ENDBRANCH  31  33
ENDBRANCH  30  31
ENDBRANCH  29  30
ENDBRANCH  28  29
ENDBRANCH   1  28
TORSDOF 6
