REMARK  Name = ZINC14533239
REMARK  11 active torsions:
REMARK  status: ('A' for Active; 'I' for Inactive)
REMARK    1  A    between atoms: C_1  and  C_2
REMARK    2  A    between atoms: C_2  and  C_3
REMARK    3  A    between atoms: C_3  and  N_4
REMARK    4  A    between atoms: C_8  and  C_11
REMARK    5  A    between atoms: C_14  and  N_17
REMARK    6  A    between atoms: C_25  and  C_26
REMARK    7  A    between atoms: C_25  and  N_69
REMARK    8  A    between atoms: C_27  and  C_28
REMARK    9  A    between atoms: C_31  and  O_36
REMARK   10  A    between atoms: C_32  and  O_34
REMARK   11  A    between atoms: O_34  and  C_35
REMARK                            x       y       z     vdW  Elec       q    Type
REMARK                         _______ _______ _______ _____ _____    ______ ____
ROOT
ATOM      1  N   UNL     1       4.204  -5.054   3.776  0.00  0.00    -0.312 N 
ATOM      2  C   UNL     1       4.116  -4.112   2.793  0.00  0.00    +0.022 A 
ATOM      3  C   UNL     1       3.002  -4.012   2.035  0.00  0.00    -0.044 A 
ATOM      4  C   UNL     1       1.919  -4.876   2.265  0.00  0.00    +0.017 A 
ATOM      5  C   UNL     1       2.005  -5.828   3.266  0.00  0.00    +0.047 A 
ATOM      6  C   UNL     1       3.194  -5.902   4.032  0.00  0.00    +0.259 A 
ATOM      7  O   UNL     1       3.301  -6.732   4.920  0.00  0.00    -0.267 OA
ATOM      8  C   UNL     1       2.869  -2.993   0.933  0.00  0.00    -0.041 C 
ATOM      9  C   UNL     1       5.208  -2.511   1.230  0.00  0.00    -0.072 C 
ATOM     10  C   UNL     1       5.297  -3.194   2.595  0.00  0.00    +0.035 C 
ATOM     11  N   UNL     1       3.860  -1.921   1.111  0.00  0.00    +0.385 N 
ATOM     12  H   UNL     1       3.644  -1.402   1.970  0.00  0.00    -0.081 HD
ENDROOT
BRANCH   5  13
ATOM     13  C   UNL     1       0.877  -6.751   3.530  0.00  0.00    -0.013 A 
ATOM     14  C   UNL     1       0.199  -6.695   4.747  0.00  0.00    +0.011 A 
ATOM     15  C   UNL     1      -0.854  -7.551   4.988  0.00  0.00    +0.028 A 
ATOM     16  C   UNL     1      -1.233  -8.477   4.024  0.00  0.00    +0.065 A 
ATOM     17  C   UNL     1      -0.556  -8.539   2.812  0.00  0.00    +0.028 A 
ATOM     18  C   UNL     1       0.495  -7.681   2.563  0.00  0.00    +0.011 A 
BRANCH  16  19
ATOM     19  N   UNL     1      -2.300  -9.350   4.274  0.00  0.00    -0.240 N 
ATOM     20  C   UNL     1      -3.038  -9.402   5.406  0.00  0.00    +0.114 A 
ATOM     21  C   UNL     1      -3.967 -10.373   5.248  0.00  0.00    +0.041 A 
ATOM     22  C   UNL     1      -3.786 -10.941   3.982  0.00  0.00    +0.135 A 
ATOM     23  N   UNL     1      -2.787 -10.329   3.398  0.00  0.00    -0.175 NA
ENDBRANCH  16  19
ENDBRANCH   5  13
BRANCH   1  24
ATOM     24  C   UNL     1       5.430  -5.142   4.573  0.00  0.00    +0.125 C 
BRANCH  24  26
ATOM     25  C   UNL     1       7.686  -6.204   4.735  0.00  0.00    +0.005 C 
ATOM     26  C   UNL     1       6.405  -6.112   3.902  0.00  0.00    +0.018 C 
ENDBRANCH  24  26
ENDBRANCH   1  24
BRANCH  11  27
ATOM     27  C   UNL     1       3.812  -0.990  -0.040  0.00  0.00    -0.051 C 
BRANCH  27  28
ATOM     28  C   UNL     1       2.496  -0.256  -0.023  0.00  0.00    -0.045 C 
ATOM     29  C   UNL     1       2.477   1.070  -0.016  0.00  0.00    +0.002 C 
BRANCH  29  30
ATOM     30  C   UNL     1       1.186   1.790   0.000  0.00  0.00    -0.022 A 
ATOM     31  C   UNL     1      -0.013   1.076   0.008  0.00  0.00    +0.012 A 
ATOM     32  C   UNL     1      -1.216   1.749   0.017  0.00  0.00    +0.050 A 
ATOM     33  C   UNL     1      -1.239   3.136   0.030  0.00  0.00    +0.158 A 
ATOM     34  C   UNL     1      -0.046   3.855   0.022  0.00  0.00    +0.162 A 
ATOM     35  C   UNL     1       1.164   3.185   0.008  0.00  0.00    +0.057 A 
BRANCH  34  36
ATOM     36  O   UNL     1      -0.071   5.214   0.030  0.00  0.00    -0.491 OA
ATOM     37  C   UNL     1       1.190   5.886   0.022  0.00  0.00    +0.277 C 
ENDBRANCH  34  36
BRANCH  33  38
ATOM     38  O   UNL     1      -2.428   3.795   0.044  0.00  0.00    -0.503 OA
ATOM     39  H   UNL     1      -2.780   3.990  -0.836  0.00  0.00    +0.292 HD
ENDBRANCH  33  38
ENDBRANCH  29  30
ENDBRANCH  27  28
ENDBRANCH  11  27
TORSDOF 9
