REMARK  Name = ZINC01233858
REMARK  10 active torsions:
REMARK  status: ('A' for Active; 'I' for Inactive)
REMARK    1  A    between atoms: C_1  and  O_2
REMARK    2  A    between atoms: O_2  and  C_3
REMARK    3  A    between atoms: C_5  and  C_14
REMARK    4  A    between atoms: C_6  and  N_11
REMARK    5  A    between atoms: C_8  and  O_9
REMARK    6  A    between atoms: O_9  and  C_10
REMARK    7  A    between atoms: N_15  and  N_16
REMARK    8  A    between atoms: C_17  and  C_19
REMARK    9  A    between atoms: C_22  and  C_23
REMARK   10  A    between atoms: C_22  and  C_29
REMARK                            x       y       z     vdW  Elec       q    Type
REMARK                         _______ _______ _______ _____ _____    ______ ____
ROOT
ATOM      1  N   UNL     1      -3.312   1.832   1.429  0.00  0.00    -0.207 N 
ATOM      2  C   UNL     1      -2.163   1.194   1.129  0.00  0.00    +0.236 C 
ATOM      3  O   UNL     1      -1.927   0.108   1.616  0.00  0.00    -0.274 OA
ATOM      4  H   UNL     1      -3.501   2.700   1.040  0.00  0.00    +0.177 HD
ENDROOT
BRANCH   2   5
ATOM      5  C   UNL     1      -1.172   1.830   0.189  0.00  0.00    +0.093 C 
ATOM      6  C   UNL     1      -0.976   1.176  -1.181  0.00  0.00    +0.031 C 
ATOM      7  C   UNL     1       0.113   1.056  -0.113  0.00  0.00    +0.033 C 
BRANCH   7   8
ATOM      8  C   UNL     1       0.290  -0.285   0.553  0.00  0.00    -0.036 A 
ATOM      9  C   UNL     1      -0.101  -1.438  -0.102  0.00  0.00    +0.004 A 
ATOM     10  C   UNL     1       0.066  -2.668   0.507  0.00  0.00    +0.000 A 
ATOM     11  C   UNL     1       0.614  -2.744   1.774  0.00  0.00    +0.000 A 
ATOM     12  C   UNL     1       0.999  -1.590   2.430  0.00  0.00    +0.000 A 
ATOM     13  C   UNL     1       0.837  -0.361   1.820  0.00  0.00    +0.004 A 
ENDBRANCH   7   8
BRANCH   7  14
ATOM     14  C   UNL     1       1.376   1.853  -0.313  0.00  0.00    -0.036 A 
ATOM     15  C   UNL     1       1.554   3.047   0.361  0.00  0.00    +0.004 A 
ATOM     16  C   UNL     1       2.714   3.777   0.180  0.00  0.00    +0.000 A 
ATOM     17  C   UNL     1       3.692   3.317  -0.682  0.00  0.00    +0.000 A 
ATOM     18  C   UNL     1       3.512   2.126  -1.360  0.00  0.00    +0.000 A 
ATOM     19  C   UNL     1       2.354   1.394  -1.176  0.00  0.00    +0.004 A 
ENDBRANCH   7  14
ENDBRANCH   2   5
BRANCH   1  21
ATOM     20  C   UNL     1      -5.340   1.855   2.592  0.00  0.00    +0.140 C 
ATOM     21  N   UNL     1      -4.234   1.241   2.303  0.00  0.00    -0.188 NA
BRANCH  20  24
ATOM     22  C   UNL     1      -7.025  -0.655   4.819  0.00  0.00    +0.162 A 
ATOM     23  C   UNL     1      -6.115  -0.079   3.952  0.00  0.00    +0.061 A 
ATOM     24  C   UNL     1      -6.310   1.233   3.512  0.00  0.00    +0.028 A 
ATOM     25  C   UNL     1      -7.429   1.951   3.941  0.00  0.00    +0.138 A 
ATOM     26  C   UNL     1      -8.335   1.368   4.801  0.00  0.00    +0.082 A 
ATOM     27  C   UNL     1      -8.138   0.067   5.242  0.00  0.00    +0.164 A 
BRANCH  25  28
ATOM     28  N   UNL     1      -7.641   3.339   3.472  0.00  0.00    +0.057 N 
ATOM     29  O   UNL     1      -8.598   3.977   3.872  0.00  0.00    -0.126 OA
ATOM     30  O   UNL     1      -6.859   3.844   2.686  0.00  0.00    -0.126 OA
ENDBRANCH  25  28
BRANCH  22  32
ATOM     31  C   UNL     1      -5.673  -2.612   4.779  0.00  0.00    +0.277 C 
ATOM     32  O   UNL     1      -6.836  -1.930   5.254  0.00  0.00    -0.491 OA
ENDBRANCH  22  32
BRANCH  27  33
ATOM     33  O   UNL     1      -9.034  -0.503   6.091  0.00  0.00    -0.491 OA
ATOM     34  C   UNL     1     -10.153   0.294   6.485  0.00  0.00    +0.277 C 
ENDBRANCH  27  33
ENDBRANCH  20  24
ENDBRANCH   1  21
TORSDOF 8
