REMARK  Name = ZINC12586329
REMARK  9 active torsions:
REMARK  status: ('A' for Active; 'I' for Inactive)
REMARK    1  A    between atoms: C_1  and  C_2
REMARK    2  A    between atoms: C_2  and  N_3
REMARK    3  A    between atoms: N_3  and  C_4
REMARK    4  A    between atoms: C_12  and  C_14
REMARK    5  A    between atoms: C_14  and  C_16
REMARK    6  A    between atoms: C_14  and  S_17
REMARK    7  A    between atoms: S_17  and  C_18
REMARK    8  A    between atoms: C_21  and  S_24
REMARK    9  A    between atoms: S_24  and  N_27
REMARK                            x       y       z     vdW  Elec       q    Type
REMARK                         _______ _______ _______ _____ _____    ______ ____
ROOT
ATOM      1  S   UNL     1       1.442   5.369  -3.963  0.00  0.00    -0.093 S 
ENDROOT
BRANCH   1   2
ATOM      2  C   UNL     1       1.876   7.029  -4.361  0.00  0.00    +0.098 A 
ATOM      3  C   UNL     1       1.906   7.435  -5.692  0.00  0.00    +0.037 A 
ATOM      4  C   UNL     1       2.244   8.742  -5.989  0.00  0.00    +0.032 A 
ATOM      5  C   UNL     1       2.553   9.602  -4.942  0.00  0.00    +0.124 A 
ATOM      6  C   UNL     1       2.508   9.131  -3.645  0.00  0.00    +0.140 A 
ATOM      7  N   UNL     1       2.177   7.880  -3.390  0.00  0.00    -0.247 NA
BRANCH   5   8
ATOM      8  S   UNL     1       2.997  11.276  -5.266  0.00  0.00    +0.062 S 
ATOM      9  O   UNL     1       2.433  11.609  -6.527  0.00  0.00    -0.153 OA
ATOM     10  O   UNL     1       2.707  12.009  -4.084  0.00  0.00    -0.153 OA
BRANCH   8  11
ATOM     11  N   UNL     1       4.642  11.317  -5.458  0.00  0.00    -0.172 NA
ATOM     12  C   UNL     1       5.532  11.546  -4.309  0.00  0.00    +0.137 C 
ATOM     13  C   UNL     1       6.609  10.448  -4.312  0.00  0.00    +0.177 C 
ATOM     14  O   UNL     1       7.231  10.406  -5.599  0.00  0.00    -0.377 OA
ATOM     15  C   UNL     1       6.345  10.062  -6.666  0.00  0.00    +0.177 C 
ATOM     16  C   UNL     1       5.255  11.134  -6.783  0.00  0.00    +0.137 C 
ENDBRANCH   8  11
ENDBRANCH   5   8
ENDBRANCH   1   2
BRANCH   1  17
ATOM     17  C   UNL     1       1.546   5.309  -2.153  0.00  0.00    +0.136 C 
ATOM     18  C   UNL     1       0.482   6.229  -1.550  0.00  0.00    +0.029 C 
BRANCH  17  20
ATOM     19  N   UNL     1       1.728   3.517  -0.458  0.00  0.00    -0.296 N 
ATOM     20  C   UNL     1       1.313   3.896  -1.683  0.00  0.00    +0.229 C 
ATOM     21  O   UNL     1       0.754   3.100  -2.407  0.00  0.00    -0.274 OA
BRANCH  19  22
ATOM     22  C   UNL     1       1.502   2.144  -0.001  0.00  0.00    +0.098 C 
ATOM     23  C   UNL     1       2.180   1.157  -0.966  0.00  0.00    +0.046 C 
ATOM     24  C   UNL     1       1.686  -0.282  -0.682  0.00  0.00    +0.168 C 
ATOM     25  S   UNL     1       0.002  -0.004   0.002  0.00  0.00    -0.029 S 
ATOM     26  O   UNL     1      -0.036  -0.474   1.342  0.00  0.00    -0.174 OA
ATOM     27  O   UNL     1      -0.961  -0.474  -0.931  0.00  0.00    -0.174 OA
ATOM     28  C   UNL     1      -0.023   1.838   0.012  0.00  0.00    +0.188 C 
ENDBRANCH  19  22
BRANCH  19  30
ATOM     29  C   UNL     1       3.913   4.420   0.169  0.00  0.00    +0.024 C 
ATOM     30  C   UNL     1       2.404   4.478   0.417  0.00  0.00    +0.105 C 
ENDBRANCH  19  30
ENDBRANCH  17  20
ENDBRANCH   1  17
TORSDOF 7
