REMARK  Name = ZINC12303154
REMARK  5 active torsions:
REMARK  status: ('A' for Active; 'I' for Inactive)
REMARK    1  A    between atoms: C_12  and  C_14
REMARK    2  A    between atoms: C_14  and  C_15
REMARK    3  A    between atoms: C_15  and  C_16
REMARK    4  A    between atoms: C_23  and  C_25
REMARK    5  A    between atoms: C_27  and  C_31
REMARK                            x       y       z     vdW  Elec       q    Type
REMARK                         _______ _______ _______ _____ _____    ______ ____
ROOT
ATOM      1  C   UNL     1       5.114  -0.192   8.992  0.00  0.00    +0.014 C 
ENDROOT
BRANCH   1   2
ATOM      2  C   UNL     1       4.631   0.469   7.699  0.00  0.00    +0.007 C 
ATOM      3  C   UNL     1       5.598   1.588   7.305  0.00  0.00    +0.006 C 
ATOM      4  C   UNL     1       5.097   2.271   6.030  0.00  0.00    +0.019 C 
ATOM      5  C   UNL     1       5.055   1.244   4.888  0.00  0.00    +0.108 C 
ATOM      6  N   UNL     1       4.240   0.100   5.319  0.00  0.00    -0.296 N 
ATOM      7  C   UNL     1       4.580  -0.575   6.579  0.00  0.00    +0.111 C 
ATOM      8  C   UNL     1       3.205  -0.326   4.569  0.00  0.00    +0.264 C 
ATOM      9  O   UNL     1       2.466  -1.196   4.991  0.00  0.00    -0.268 OA
BRANCH   8  10
ATOM     10  C   UNL     1       2.967   0.261   3.241  0.00  0.00    +0.121 A 
ATOM     11  C   UNL     1       1.767   0.300   2.552  0.00  0.00    +0.057 A 
ATOM     12  C   UNL     1       2.052   0.951   1.349  0.00  0.00    +0.067 A 
ATOM     13  N   UNL     1       3.321   1.268   1.355  0.00  0.00    -0.178 NA
ATOM     14  N   UNL     1       3.886   0.881   2.442  0.00  0.00    -0.272 N 
ATOM     15  H   UNL     1       4.851   1.013   2.669  0.00  0.00    +0.189 HD
BRANCH  12  16
ATOM     16  C   UNL     1       1.070   1.241   0.244  0.00  0.00    +0.040 C 
ATOM     17  C   UNL     1       0.225   2.511   0.365  0.00  0.00    +0.010 C 
ATOM     18  C   UNL     1      -0.420   1.141   0.578  0.00  0.00    +0.010 C 
ENDBRANCH  12  16
ENDBRANCH   8  10
ENDBRANCH   1   2
BRANCH   1  19
ATOM     19  C   UNL     1       4.086  -1.228   9.450  0.00  0.00    +0.096 C 
BRANCH  19  31
ATOM     20  C   UNL     1       1.315  -8.670  11.488  0.00  0.00    +0.005 A 
ATOM     21  C   UNL     1       2.398  -9.454  11.862  0.00  0.00    +0.018 A 
ATOM     22  C   UNL     1       3.576  -8.843  12.242  0.00  0.00    +0.084 A 
ATOM     23  C   UNL     1       2.674  -6.746  11.902  0.00  0.00    +0.099 A 
ATOM     24  C   UNL     1       1.457  -7.294  11.508  0.00  0.00    +0.042 A 
ATOM     25  N   UNL     1       2.831  -5.365  11.927  0.00  0.00    -0.314 N 
ATOM     26  C   UNL     1       4.183  -4.997  12.369  0.00  0.00    +0.125 C 
ATOM     27  C   UNL     1       4.259  -3.478  12.558  0.00  0.00    +0.126 C 
ATOM     28  N   UNL     1       3.813  -2.830  11.315  0.00  0.00    -0.298 N 
ATOM     29  C   UNL     1       2.524  -3.243  10.739  0.00  0.00    +0.126 C 
ATOM     30  C   UNL     1       2.519  -4.775  10.619  0.00  0.00    +0.125 C 
ATOM     31  C   UNL     1       4.562  -1.879  10.723  0.00  0.00    +0.216 C 
ATOM     32  O   UNL     1       5.620  -1.547  11.215  0.00  0.00    -0.276 OA
ATOM     33  N   UNL     1       3.753  -7.495  12.268  0.00  0.00    -0.350 N 
ATOM     34  H   UNL     1       4.645  -7.067  12.547  0.00  0.00    +0.166 HD
ENDBRANCH  19  31
ENDBRANCH   1  19
TORSDOF 5
