REMARK  Name = ZINC10213377
REMARK  6 active torsions:
REMARK  status: ('A' for Active; 'I' for Inactive)
REMARK    1  A    between atoms: C_1  and  C_2
REMARK    2  A    between atoms: C_2  and  C_4
REMARK    3  A    between atoms: C_2  and  S_18
REMARK    4  A    between atoms: N_6  and  C_7
REMARK    5  A    between atoms: C_8  and  C_15
REMARK    6  A    between atoms: S_18  and  C_19
REMARK                            x       y       z     vdW  Elec       q    Type
REMARK                         _______ _______ _______ _____ _____    ______ ____
ROOT
ATOM      1  C   UNL     1       1.668   2.341   1.436  0.00  0.00    +0.029 C 
ATOM      2  C   UNL     1       1.280   1.980   0.001  0.00  0.00    +0.139 C 
ENDROOT
BRANCH   2   3
ATOM      3  C   UNL     1      -0.014   1.209   0.009  0.00  0.00    +0.231 C 
ATOM      4  O   UNL     1       0.002  -0.004   0.002  0.00  0.00    -0.274 OA
ATOM      5  N   UNL     1      -1.191   1.867   0.018  0.00  0.00    -0.278 N 
ATOM      6  H   UNL     1      -1.204   2.836   0.023  0.00  0.00    +0.155 HD
BRANCH   5   7
ATOM      7  C   UNL     1      -2.382   1.157   0.020  0.00  0.00    +0.084 A 
ATOM      8  C   UNL     1      -3.676   1.649   0.034  0.00  0.00    +0.068 A 
ATOM      9  C   UNL     1      -4.769   0.677   0.029  0.00  0.00    -0.023 A 
ATOM     10  C   UNL     1      -4.388  -0.613   0.019  0.00  0.00    -0.004 A 
ATOM     11  S   UNL     1      -2.612  -0.558   0.012  0.00  0.00    -0.077 S 
ATOM     12  C   UNL     1      -5.565  -1.549   0.017  0.00  0.00    +0.043 C 
ATOM     13  C   UNL     1      -6.761  -0.670  -0.411  0.00  0.00    +0.010 C 
ATOM     14  C   UNL     1      -6.298   0.730   0.038  0.00  0.00    +0.037 C 
BRANCH   8  15
ATOM     15  C   UNL     1      -3.941   3.091   0.050  0.00  0.00    +0.244 C 
ATOM     16  O   UNL     1      -4.059   3.699  -0.998  0.00  0.00    -0.270 OA
ATOM     17  N   UNL     1      -4.053   3.742   1.224  0.00  0.00    -0.325 N 
ATOM     18  H   UNL     1      -3.959   3.257   2.059  0.00  0.00    +0.145 HD
ATOM     19  H   UNL     1      -4.228   4.696   1.234  0.00  0.00    +0.145 HD
ENDBRANCH   8  15
ENDBRANCH   5   7
ENDBRANCH   2   3
BRANCH   2  20
ATOM     20  S   UNL     1       2.583   0.964  -0.739  0.00  0.00    -0.053 S 
BRANCH  20  21
ATOM     21  C   UNL     1       3.905   2.129  -0.760  0.00  0.00    +0.274 C 
ATOM     22  N   UNL     1       3.837   3.357  -0.332  0.00  0.00    -0.135 NA
ATOM     23  N   UNL     1       5.095   3.946  -0.525  0.00  0.00    -0.202 N 
ATOM     24  C   UNL     1       5.885   3.006  -1.080  0.00  0.00    +0.218 C 
ATOM     25  C   UNL     1       7.235   3.164  -1.444  0.00  0.00    +0.061 C 
ATOM     26  C   UNL     1       8.030   4.315  -1.307  0.00  0.00    +0.125 C 
ATOM     27  N   UNL     1       9.237   4.072  -1.760  0.00  0.00    -0.254 NA
ATOM     28  C   UNL     1       9.364   2.814  -2.217  0.00  0.00    +0.072 A 
ATOM     29  C   UNL     1       8.122   2.158  -2.045  0.00  0.00    +0.014 A 
ATOM     30  C   UNL     1       7.971   0.833  -2.446  0.00  0.00    +0.011 A 
ATOM     31  C   UNL     1       9.031   0.167  -2.994  0.00  0.00    +0.001 A 
ATOM     32  C   UNL     1      10.256   0.803  -3.161  0.00  0.00    +0.002 A 
ATOM     33  C   UNL     1      10.431   2.102  -2.783  0.00  0.00    +0.028 A 
ATOM     34  O   UNL     1       5.149   1.891  -1.218  0.00  0.00    -0.415 OA
ATOM     35  H   UNL     1       5.348   4.855  -0.301  0.00  0.00    +0.178 HD
ENDBRANCH  20  21
ENDBRANCH   2  20
TORSDOF 5
