REMARK  Name = ZINC22838588
REMARK  7 active torsions:
REMARK  status: ('A' for Active; 'I' for Inactive)
REMARK    1  A    between atoms: C_1  and  C_2
REMARK    2  A    between atoms: C_11  and  N_29
REMARK    3  A    between atoms: C_13  and  S_15
REMARK    4  A    between atoms: S_15  and  C_16
REMARK    5  A    between atoms: C_16  and  C_17
REMARK    6  A    between atoms: N_19  and  C_20
REMARK    7  A    between atoms: N_19  and  C_21
REMARK                            x       y       z     vdW  Elec       q    Type
REMARK                         _______ _______ _______ _____ _____    ______ ____
ROOT
ATOM      1  C   UNL     1       1.806 -15.063   0.015  0.00  0.00    +0.008 C 
ATOM      2  C   UNL     1       1.562 -13.566   0.219  0.00  0.00    -0.009 C 
ATOM      3  C   UNL     1       2.488 -12.764  -0.700  0.00  0.00    +0.008 C 
ATOM      4  C   UNL     1       2.082 -11.290  -0.688  0.00  0.00    +0.037 C 
ATOM      5  C   UNL     1       2.012 -10.810   0.759  0.00  0.00    -0.025 A 
ATOM      6  C   UNL     1       1.917 -11.692   1.774  0.00  0.00    -0.004 A 
ATOM      7  S   UNL     1       1.867 -10.702   3.244  0.00  0.00    -0.073 S 
ATOM      8  C   UNL     1       1.975  -9.100   2.491  0.00  0.00    +0.115 A 
ATOM      9  C   UNL     1       2.047  -9.389   1.114  0.00  0.00    +0.051 A 
ATOM     10  C   UNL     1       2.144  -8.260   0.253  0.00  0.00    +0.129 A 
ATOM     11  N   UNL     1       2.156  -7.047   0.778  0.00  0.00    -0.207 NA
ATOM     12  C   UNL     1       2.090  -6.844   2.089  0.00  0.00    +0.191 A 
ATOM     13  N   UNL     1       1.998  -7.859   2.938  0.00  0.00    -0.214 NA
ATOM     14  C   UNL     1       1.864 -13.186   1.676  0.00  0.00    +0.046 C 
ENDROOT
BRANCH  10  15
ATOM     15  N   UNL     1       2.220  -8.430  -1.117  0.00  0.00    -0.343 N 
ATOM     16  H   UNL     1       2.295  -7.553  -1.777  0.00  0.00    +0.144 HD
ATOM     17  H   UNL     1       2.206  -9.442  -1.547  0.00  0.00    +0.144 HD
ENDBRANCH  10  15
BRANCH  12  18
ATOM     18  S   UNL     1       2.117  -5.196   2.712  0.00  0.00    -0.077 S 
BRANCH  18  19
ATOM     19  C   UNL     1       2.248  -4.276   1.159  0.00  0.00    +0.173 C 
BRANCH  19  20
ATOM     20  C   UNL     1       2.289  -2.798   1.452  0.00  0.00    +0.226 C 
ATOM     21  O   UNL     1       2.235  -2.406   2.598  0.00  0.00    -0.275 OA
ATOM     22  N   UNL     1       2.386  -1.913   0.441  0.00  0.00    -0.299 N 
ATOM     23  C   UNL     1       2.451  -2.386  -0.944  0.00  0.00    +0.132 C 
BRANCH  22  24
ATOM     24  C   UNL     1       2.425  -0.476   0.726  0.00  0.00    +0.098 C 
ATOM     25  C   UNL     1       1.238   0.222   0.043  0.00  0.00    +0.046 C 
ATOM     26  C   UNL     1       1.444   1.756   0.066  0.00  0.00    +0.168 C 
ATOM     27  S   UNL     1       3.275   1.918   0.086  0.00  0.00    -0.029 S 
ATOM     28  O   UNL     1       3.706   2.456  -1.156  0.00  0.00    -0.174 OA
ATOM     29  O   UNL     1       3.670   2.549   1.297  0.00  0.00    -0.174 OA
ATOM     30  C   UNL     1       3.739   0.136   0.160  0.00  0.00    +0.188 C 
ENDBRANCH  22  24
ENDBRANCH  19  20
ENDBRANCH  18  19
ENDBRANCH  12  18
TORSDOF 5
