REMARK  Name = ZINC00050584
REMARK  7 active torsions:
REMARK  status: ('A' for Active; 'I' for Inactive)
REMARK    1  A    between atoms: C_10  and  N_11
REMARK    2  A    between atoms: N_11  and  C_12
REMARK    3  A    between atoms: C_12  and  C_13
REMARK    4  A    between atoms: N_15  and  N_16
REMARK    5  A    between atoms: C_17  and  C_18
REMARK    6  A    between atoms: C_21  and  O_25
REMARK    7  A    between atoms: C_23  and  O_24
REMARK                            x       y       z     vdW  Elec       q    Type
REMARK                         _______ _______ _______ _____ _____    ______ ____
ROOT
ATOM      1  C   UNL     1      -0.742   1.585  -1.213  0.00  0.00    +0.249 C 
ATOM      2  O   UNL     1      -1.736   2.268  -1.088  0.00  0.00    -0.272 OA
ATOM      3  N   UNL     1      -0.288   1.272  -2.443  0.00  0.00    -0.206 N 
ATOM      4  H   UNL     1       0.507   0.726  -2.543  0.00  0.00    +0.177 HD
ENDROOT
BRANCH   3   5
ATOM      5  N   UNL     1      -0.966   1.736  -3.578  0.00  0.00    -0.188 NA
ATOM      6  C   UNL     1      -0.529   1.435  -4.763  0.00  0.00    +0.142 C 
BRANCH   6   7
ATOM      7  C   UNL     1      -1.242   1.923  -5.957  0.00  0.00    +0.036 A 
ATOM      8  C   UNL     1      -0.775   1.601  -7.233  0.00  0.00    +0.016 A 
ATOM      9  C   UNL     1      -1.444   2.058  -8.347  0.00  0.00    +0.046 A 
ATOM     10  C   UNL     1      -2.584   2.841  -8.205  0.00  0.00    +0.120 A 
ATOM     11  C   UNL     1      -3.056   3.167  -6.942  0.00  0.00    +0.091 A 
ATOM     12  C   UNL     1      -2.395   2.708  -5.816  0.00  0.00    +0.129 A 
BRANCH  12  13
ATOM     13  O   UNL     1      -2.859   3.022  -4.579  0.00  0.00    -0.506 OA
ATOM     14  H   UNL     1      -2.496   3.843  -4.219  0.00  0.00    +0.292 HD
ENDBRANCH  12  13
BRANCH  10  15
ATOM     15  O   UNL     1      -3.239   3.288  -9.308  0.00  0.00    -0.507 OA
ATOM     16  H   UNL     1      -3.928   2.690  -9.626  0.00  0.00    +0.292 HD
ENDBRANCH  10  15
ENDBRANCH   6   7
ENDBRANCH   3   5
BRANCH   1  17
ATOM     17  C   UNL     1      -0.013   1.086   0.008  0.00  0.00    +0.199 C 
BRANCH  17  18
ATOM     18  N   UNL     1      -0.698   1.558   1.213  0.00  0.00    -0.335 N 
ATOM     19  H   UNL     1      -1.495   2.106   1.135  0.00  0.00    +0.147 HD
BRANCH  18  29
ATOM     20  C   UNL     1      -2.114   2.535   5.957  0.00  0.00    +0.001 A 
ATOM     21  C   UNL     1      -2.623   2.884   4.707  0.00  0.00    +0.001 A 
ATOM     22  C   UNL     1      -2.016   2.467   3.562  0.00  0.00    +0.010 A 
ATOM     23  C   UNL     1      -0.858   1.678   3.638  0.00  0.00    +0.003 A 
ATOM     24  C   UNL     1      -0.343   1.318   4.907  0.00  0.00    -0.016 A 
ATOM     25  C   UNL     1      -0.996   1.768   6.068  0.00  0.00    +0.008 A 
ATOM     26  C   UNL     1       0.814   0.524   4.984  0.00  0.00    +0.008 A 
ATOM     27  C   UNL     1       1.426   0.102   3.844  0.00  0.00    +0.002 A 
ATOM     28  C   UNL     1       0.926   0.444   2.591  0.00  0.00    +0.023 A 
ATOM     29  C   UNL     1      -0.206   1.221   2.472  0.00  0.00    +0.035 A 
ENDBRANCH  18  29
ENDBRANCH  17  18
ENDBRANCH   1  17
TORSDOF 7
