REMARK  Name = ZINC20086285
REMARK  7 active torsions:
REMARK  status: ('A' for Active; 'I' for Inactive)
REMARK    1  A    between atoms: C_1  and  N_2
REMARK    2  A    between atoms: C_13  and  C_21
REMARK    3  A    between atoms: C_15  and  C_19
REMARK    4  A    between atoms: C_16  and  N_18
REMARK    5  A    between atoms: C_24  and  N_28
REMARK    6  A    between atoms: N_28  and  C_29
REMARK    7  A    between atoms: N_28  and  C_30
REMARK                            x       y       z     vdW  Elec       q    Type
REMARK                         _______ _______ _______ _____ _____    ______ ____
ROOT
ATOM      1  C   UNL     1      -3.193   0.498  -4.847  0.00  0.00    +0.152 C 
ATOM      2  N   UNL     1      -3.622   1.088  -3.577  0.00  0.00    -0.311 N 
ATOM      3  C   UNL     1      -4.714   1.931  -3.555  0.00  0.00    +0.055 A 
ATOM      4  C   UNL     1      -5.413   2.230  -4.720  0.00  0.00    +0.026 A 
ATOM      5  C   UNL     1      -6.500   3.075  -4.667  0.00  0.00    +0.002 A 
ATOM      6  C   UNL     1      -6.906   3.632  -3.462  0.00  0.00    +0.001 A 
ATOM      7  C   UNL     1      -6.234   3.351  -2.306  0.00  0.00    +0.013 A 
ATOM      8  C   UNL     1      -5.129   2.497  -2.337  0.00  0.00    +0.041 A 
ATOM      9  C   UNL     1      -4.381   2.175  -1.113  0.00  0.00    +0.148 A 
ATOM     10  C   UNL     1      -3.312   1.336  -1.205  0.00  0.00    +0.072 A 
ATOM     11  C   UNL     1      -2.946   0.799  -2.453  0.00  0.00    +0.259 A 
ATOM     12  O   UNL     1      -1.986   0.049  -2.516  0.00  0.00    -0.267 OA
ATOM     13  C   UNL     1      -2.513   0.976   0.019  0.00  0.00    +0.103 C 
ATOM     14  C   UNL     1      -3.290   1.308   1.263  0.00  0.00    +0.098 C 
ATOM     15  C   UNL     1      -4.355   2.143   1.218  0.00  0.00    +0.199 C 
ATOM     16  O   UNL     1      -4.760   2.706   0.066  0.00  0.00    -0.440 OA
ENDROOT
BRANCH  13  17
ATOM     17  C   UNL     1      -1.220   1.750   0.017  0.00  0.00    -0.033 A 
ATOM     18  C   UNL     1      -0.013   1.076   0.008  0.00  0.00    +0.006 A 
ATOM     19  C   UNL     1       1.175   1.782   0.000  0.00  0.00    +0.024 A 
ATOM     20  C   UNL     1       1.155   3.170   0.008  0.00  0.00    +0.043 A 
ATOM     21  C   UNL     1      -0.060   3.845   0.023  0.00  0.00    +0.039 A 
ATOM     22  C   UNL     1      -1.244   3.132   0.031  0.00  0.00    +0.021 A 
ATOM     23 BR   UNL     1      -0.092   5.736   0.034  0.00  0.00    -0.048 Br
BRANCH  20  24
ATOM     24  N   UNL     1       2.354   3.888   0.000  0.00  0.00    -0.335 N 
ATOM     25  C   UNL     1       3.170   3.563   1.178  0.00  0.00    +0.129 C 
ATOM     26  C   UNL     1       3.103   3.647  -1.241  0.00  0.00    +0.129 C 
ENDBRANCH  20  24
ENDBRANCH  13  17
BRANCH  15  27
ATOM     27  N   UNL     1      -5.038   2.420   2.377  0.00  0.00    -0.328 N 
ATOM     28  H   UNL     1      -5.905   3.097   2.355  0.00  0.00    +0.145 HD
ATOM     29  H   UNL     1      -4.718   1.966   3.326  0.00  0.00    +0.145 HD
ENDBRANCH  15  27
BRANCH  14  30
ATOM     30  C   UNL     1      -2.898   0.731   2.514  0.00  0.00    +0.101 C 
ATOM     31  N   UNL     1      -2.587   0.274   3.506  0.00  0.00    -0.191 NA
ENDBRANCH  14  30
TORSDOF 4
