REMARK  Name = ZINC04180560
REMARK  10 active torsions:
REMARK  status: ('A' for Active; 'I' for Inactive)
REMARK    1  A    between atoms: C_1  and  C_2
REMARK    2  A    between atoms: C_4  and  C_23
REMARK    3  A    between atoms: C_7  and  C_14
REMARK    4  A    between atoms: C_9  and  C_13
REMARK    5  A    between atoms: C_18  and  O_21
REMARK    6  A    between atoms: C_19  and  O_20
REMARK    7  A    between atoms: O_21  and  C_22
REMARK    8  A    between atoms: C_27  and  O_30
REMARK    9  A    between atoms: C_28  and  O_29
REMARK   10  A    between atoms: O_30  and  C_31
REMARK                            x       y       z     vdW  Elec       q    Type
REMARK                         _______ _______ _______ _____ _____    ______ ____
ROOT
ATOM      1  C   UNL     1       0.193   1.533  -0.084  0.00  0.00    +0.014 C 
ATOM      2  C   UNL     1       0.184   0.003  -0.086  0.00  0.00    +0.043 C 
ATOM      3  C   UNL     1      -1.260  -0.506  -0.012  0.00  0.00    -0.026 C 
ATOM      4  N   UNL     1      -1.848  -0.121   1.277  0.00  0.00    +0.389 N 
ATOM      5  C   UNL     1      -1.177  -0.830   2.372  0.00  0.00    -0.026 C 
ATOM      6  C   UNL     1       0.274  -0.346   2.481  0.00  0.00    +0.043 C 
ATOM      7  C   UNL     1       0.932  -0.514   1.125  0.00  0.00    +0.136 C 
ATOM      8  O   UNL     1       2.012  -1.042   1.015  0.00  0.00    -0.297 OA
ATOM      9  C   UNL     1       0.297   1.129   2.887  0.00  0.00    +0.014 C 
ATOM     10  H   UNL     1      -1.744   0.874   1.408  0.00  0.00    -0.084 HD
ATOM     11  H   UNL     1      -2.830  -0.355   1.279  0.00  0.00    -0.084 HD
ENDROOT
BRANCH   5  12
ATOM     12  C   UNL     1      -1.897  -0.551   3.667  0.00  0.00    -0.016 A 
ATOM     13  C   UNL     1      -2.728   0.548   3.773  0.00  0.00    +0.006 A 
ATOM     14  C   UNL     1      -3.390   0.806   4.958  0.00  0.00    +0.004 A 
ATOM     15  C   UNL     1      -3.223  -0.034   6.044  0.00  0.00    +0.049 A 
ATOM     16  C   UNL     1      -2.392  -1.137   5.944  0.00  0.00    +0.161 A 
ATOM     17  C   UNL     1      -1.730  -1.401   4.748  0.00  0.00    +0.160 A 
BRANCH  17  18
ATOM     18  O   UNL     1      -0.917  -2.486   4.644  0.00  0.00    -0.503 OA
ATOM     19  H   UNL     1       0.002  -2.314   4.890  0.00  0.00    +0.292 HD
ENDBRANCH  17  18
BRANCH  16  20
ATOM     20  O   UNL     1      -2.227  -1.965   7.011  0.00  0.00    -0.491 OA
ATOM     21  C   UNL     1      -2.942  -1.636   8.204  0.00  0.00    +0.277 C 
ENDBRANCH  16  20
ENDBRANCH   5  12
BRANCH   3  22
ATOM     22  C   UNL     1      -1.271  -2.007  -0.141  0.00  0.00    -0.016 A 
ATOM     23  C   UNL     1      -0.110  -2.681  -0.473  0.00  0.00    +0.006 A 
ATOM     24  C   UNL     1      -0.117  -4.058  -0.592  0.00  0.00    +0.004 A 
ATOM     25  C   UNL     1      -1.284  -4.768  -0.380  0.00  0.00    +0.049 A 
ATOM     26  C   UNL     1      -2.450  -4.099  -0.046  0.00  0.00    +0.161 A 
ATOM     27  C   UNL     1      -2.442  -2.713   0.080  0.00  0.00    +0.160 A 
BRANCH  27  28
ATOM     28  O   UNL     1      -3.583  -2.052   0.413  0.00  0.00    -0.503 OA
ATOM     29  H   UNL     1      -4.120  -1.786  -0.346  0.00  0.00    +0.292 HD
ENDBRANCH  27  28
BRANCH  26  30
ATOM     30  O   UNL     1      -3.600  -4.795   0.164  0.00  0.00    -0.491 OA
ATOM     31  C   UNL     1      -3.532  -6.216   0.023  0.00  0.00    +0.277 C 
ENDBRANCH  26  30
ENDBRANCH   3  22
TORSDOF 6
