REMARK  Name = ZINC13961373
REMARK  10 active torsions:
REMARK  status: ('A' for Active; 'I' for Inactive)
REMARK    1  A    between atoms: C_1  and  C_2
REMARK    2  A    between atoms: C_2  and  C_3
REMARK    3  A    between atoms: C_3  and  C_5
REMARK    4  A    between atoms: C_3  and  N_15
REMARK    5  A    between atoms: C_16  and  C_18
REMARK    6  A    between atoms: C_20  and  C_31
REMARK    7  A    between atoms: C_24  and  C_30
REMARK    8  A    between atoms: N_26  and  C_27
REMARK    9  A    between atoms: C_27  and  C_28
REMARK   10  A    between atoms: C_27  and  C_29
REMARK                            x       y       z     vdW  Elec       q    Type
REMARK                         _______ _______ _______ _____ _____    ______ ____
ROOT
ATOM      1  N   UNL     1      -3.258   2.228   6.032  0.00  0.00    -0.308 N 
ATOM      2  C   UNL     1      -2.544   2.639   4.965  0.00  0.00    +0.245 C 
ATOM      3  O   UNL     1      -2.321   3.823   4.803  0.00  0.00    -0.270 OA
ATOM      4  H   UNL     1      -3.436   1.283   6.161  0.00  0.00    +0.149 HD
ENDROOT
BRANCH   2   5
ATOM      5  C   UNL     1      -2.033   1.651   3.992  0.00  0.00    +0.051 A 
ATOM      6  C   UNL     1      -2.793   0.543   3.624  0.00  0.00    +0.037 A 
ATOM      7  C   UNL     1      -2.279  -0.360   2.706  0.00  0.00    +0.041 A 
ATOM      8  N   UNL     1      -1.092  -0.195   2.165  0.00  0.00    -0.233 NA
ATOM      9  C   UNL     1      -0.323   0.841   2.466  0.00  0.00    +0.160 A 
ATOM     10  C   UNL     1      -0.764   1.808   3.392  0.00  0.00    +0.054 A 
ATOM     11  C   UNL     1       0.256   2.778   3.497  0.00  0.00    +0.070 A 
ATOM     12  N   UNL     1       1.237   2.437   2.712  0.00  0.00    -0.174 NA
ATOM     13  N   UNL     1       0.923   1.241   2.055  0.00  0.00    -0.244 N 
ATOM     14  C   UNL     1       0.215   4.005   4.372  0.00  0.00    +0.068 C 
ATOM     15  C   UNL     1      -3.102  -1.562   2.319  0.00  0.00    +0.065 C 
BRANCH  13  16
ATOM     16  C   UNL     1       1.776   0.540   1.092  0.00  0.00    +0.103 C 
ATOM     17  C   UNL     1       3.097   0.159   1.763  0.00  0.00    +0.032 C 
ATOM     18  C   UNL     1       2.056   1.456  -0.102  0.00  0.00    +0.032 C 
ENDBRANCH  13  16
ENDBRANCH   2   5
BRANCH   1  19
ATOM     19  C   UNL     1      -3.765   3.207   6.996  0.00  0.00    +0.079 C 
BRANCH  19  20
ATOM     20  C   UNL     1      -3.966   2.530   8.353  0.00  0.00    -0.010 C 
ATOM     21  C   UNL     1      -4.973   1.387   8.209  0.00  0.00    +0.012 C 
ATOM     22  C   UNL     1      -5.174   0.710   9.566  0.00  0.00    -0.010 C 
ATOM     23  C   UNL     1      -3.838   0.152  10.060  0.00  0.00    +0.007 C 
ATOM     24  C   UNL     1      -2.830   1.295  10.205  0.00  0.00    -0.010 C 
ATOM     25  C   UNL     1      -2.630   1.972   8.848  0.00  0.00    +0.012 C 
ATOM     26  C   UNL     1      -3.360   2.317  11.212  0.00  0.00    +0.007 C 
ATOM     27  C   UNL     1      -4.696   2.875  10.717  0.00  0.00    -0.010 C 
ATOM     28  C   UNL     1      -5.704   1.733  10.573  0.00  0.00    +0.007 C 
ATOM     29  C   UNL     1      -4.496   3.553   9.360  0.00  0.00    +0.012 C 
ENDBRANCH  19  20
BRANCH  19  31
ATOM     30  C   UNL     1      -4.879   4.549   5.207  0.00  0.00    +0.006 C 
ATOM     31  C   UNL     1      -5.101   3.765   6.502  0.00  0.00    +0.019 C 
ENDBRANCH  19  31
ENDBRANCH   1  19
TORSDOF 5
