REMARK  Name = ZINC19499542
REMARK  12 active torsions:
REMARK  status: ('A' for Active; 'I' for Inactive)
REMARK    1  A    between atoms: C_1  and  C_2
REMARK    2  A    between atoms: C_2  and  C_3
REMARK    3  A    between atoms: C_3  and  C_4
REMARK    4  A    between atoms: C_3  and  C_5
REMARK    5  A    between atoms: C_3  and  N_6
REMARK    6  A    between atoms: C_7  and  C_11
REMARK    7  A    between atoms: C_11  and  C_13
REMARK    8  A    between atoms: C_11  and  N_27
REMARK    9  A    between atoms: C_16  and  C_26
REMARK   10  A    between atoms: C_19  and  C_25
REMARK   11  A    between atoms: N_30  and  C_33
REMARK   12  A    between atoms: C_33  and  C_34
REMARK                            x       y       z     vdW  Elec       q    Type
REMARK                         _______ _______ _______ _____ _____    ______ ____
ROOT
ATOM      1  C   UNL     1       3.531   0.623  -0.116  0.00  0.00    +0.162 C 
ENDROOT
BRANCH   1   2
ATOM      2  C   UNL     1       4.098   0.358   1.255  0.00  0.00    +0.042 A 
ATOM      3  C   UNL     1       4.832   1.312   1.879  0.00  0.00    +0.021 A 
ATOM      4  C   UNL     1       5.365   1.025   3.212  0.00  0.00    +0.002 A 
ATOM      5  C   UNL     1       6.125   1.972   3.906  0.00  0.00    -0.041 A 
ATOM      6  C   UNL     1       6.612   1.671   5.147  0.00  0.00    +0.004 A 
ATOM      7  C   UNL     1       6.360   0.433   5.724  0.00  0.00    +0.005 A 
ATOM      8  C   UNL     1       5.614  -0.514   5.058  0.00  0.00    -0.026 A 
ATOM      9  C   UNL     1       5.107  -0.231   3.793  0.00  0.00    +0.052 A 
ATOM     10  N   UNL     1       4.358  -1.160   3.104  0.00  0.00    -0.322 N 
ATOM     11  H   UNL     1       4.153  -2.143   3.553  0.00  0.00    +0.169 HD
ATOM     12  C   UNL     1       3.869  -0.885   1.882  0.00  0.00    +0.254 A 
ATOM     13  O   UNL     1       3.210  -1.731   1.302  0.00  0.00    -0.268 OA
ATOM     14  C   UNL     1       5.349  -1.854   5.695  0.00  0.00    +0.046 C 
ATOM     15  C   UNL     1       6.406   3.317   3.289  0.00  0.00    +0.044 C 
ENDBRANCH   1   2
BRANCH   1  16
ATOM     16  N   UNL     1       3.972  -0.430  -1.040  0.00  0.00    -0.292 NA
ATOM     17  C   UNL     1       5.438  -0.526  -1.068  0.00  0.00    +0.067 C 
ATOM     18  C   UNL     1       5.854  -1.684  -1.979  0.00  0.00    -0.063 C 
ATOM     19  N   UNL     1       5.319  -1.458  -3.329  0.00  0.00    +0.381 N 
ATOM     20  C   UNL     1       3.853  -1.361  -3.301  0.00  0.00    -0.063 C 
ATOM     21  C   UNL     1       3.437  -0.203  -2.390  0.00  0.00    +0.067 C 
ATOM     22  H   UNL     1       5.716  -0.499  -3.695  0.00  0.00    -0.082 HD
BRANCH  19  23
ATOM     23  C   UNL     1       5.760  -2.510  -4.253  0.00  0.00    -0.082 C 
ATOM     24  C   UNL     1       7.260  -2.752  -4.073  0.00  0.00    -0.017 C 
ENDBRANCH  19  23
ENDBRANCH   1  16
BRANCH   1  26
ATOM     25  N   UNL     1       1.219   1.698  -0.189  0.00  0.00    -0.222 N 
ATOM     26  C   UNL     1       2.026   0.630  -0.044  0.00  0.00    +0.174 A 
ATOM     27  N   UNL     1       1.248  -0.402   0.172  0.00  0.00    -0.111 NA
ATOM     28  N   UNL     1       0.027   0.010   0.160  0.00  0.00    -0.023 NA
ATOM     29  N   UNL     1       0.006   1.278  -0.058  0.00  0.00    -0.043 NA
BRANCH  25  30
ATOM     30  C   UNL     1       1.640   3.077  -0.448  0.00  0.00    +0.062 C 
ATOM     31  C   UNL     1       2.589   3.537   0.660  0.00  0.00    +0.036 C 
ATOM     32  C   UNL     1       2.359   3.147  -1.797  0.00  0.00    +0.036 C 
BRANCH  30  34
ATOM     33  C   UNL     1       0.850   5.428  -0.748  0.00  0.00    +0.006 C 
ATOM     34  C   UNL     1       0.411   3.988  -0.478  0.00  0.00    +0.026 C 
ENDBRANCH  30  34
ENDBRANCH  25  30
ENDBRANCH   1  26
TORSDOF 6
