REMARK  Name = ZINC49186496
REMARK  9 active torsions:
REMARK  status: ('A' for Active; 'I' for Inactive)
REMARK    1  A    between atoms: C_1  and  C_2
REMARK    2  A    between atoms: C_5  and  C_7
REMARK    3  A    between atoms: C_7  and  C_9
REMARK    4  A    between atoms: C_7  and  N_10
REMARK    5  A    between atoms: N_10  and  S_11
REMARK    6  A    between atoms: S_11  and  C_14
REMARK    7  A    between atoms: C_17  and  C_20
REMARK    8  A    between atoms: C_20  and  C_22
REMARK    9  A    between atoms: C_20  and  N_23
REMARK                            x       y       z     vdW  Elec       q    Type
REMARK                         _______ _______ _______ _____ _____    ______ ____
ROOT
ATOM      1  S   UNL     1       2.474  -5.507  -1.810  0.00  0.00    +0.059 S 
ATOM      2  O   UNL     1       3.639  -5.263  -2.585  0.00  0.00    -0.153 OA
ATOM      3  O   UNL     1       2.372  -6.602  -0.910  0.00  0.00    -0.153 OA
ENDROOT
BRANCH   1   4
ATOM      4  C   UNL     1       1.137  -5.664  -2.947  0.00  0.00    +0.105 A 
ATOM      5  C   UNL     1       0.001  -6.364  -2.586  0.00  0.00    +0.029 A 
ATOM      6  C   UNL     1      -1.048  -6.487  -3.478  0.00  0.00    +0.004 A 
ATOM      7  C   UNL     1      -0.962  -5.910  -4.731  0.00  0.00    -0.062 A 
ATOM      8  C   UNL     1       0.174  -5.208  -5.091  0.00  0.00    +0.004 A 
ATOM      9  C   UNL     1       1.221  -5.082  -4.198  0.00  0.00    +0.029 A 
BRANCH   7  10
ATOM     10  C   UNL     1      -2.104  -6.045  -5.704  0.00  0.00    -0.047 C 
ATOM     11  C   UNL     1      -2.939  -4.763  -5.691  0.00  0.00    -0.009 C 
BRANCH  10  12
ATOM     12  N   UNL     1      -1.574  -6.270  -7.055  0.00  0.00    +0.382 N 
ATOM     13  H   UNL     1      -1.023  -7.116  -7.063  0.00  0.00    -0.089 HD
ATOM     14  H   UNL     1      -2.339  -6.361  -7.706  0.00  0.00    -0.089 HD
ATOM     15  H   UNL     1      -0.994  -5.489  -7.323  0.00  0.00    -0.089 HD
ENDBRANCH  10  12
ENDBRANCH   7  10
ENDBRANCH   1   4
BRANCH   1  16
ATOM     16  N   UNL     1       2.201  -4.137  -0.921  0.00  0.00    -0.182 NA
ATOM     17  H   UNL     1       2.809  -3.384  -0.991  0.00  0.00    +0.149 HD
BRANCH  16  18
ATOM     18  C   UNL     1       1.043  -4.062  -0.027  0.00  0.00    +0.110 C 
ATOM     19  C   UNL     1       1.465  -4.458   1.389  0.00  0.00    +0.031 C 
BRANCH  18  24
ATOM     20  C   UNL     1      -0.018   1.503   0.010  0.00  0.00    +0.051 C 
ATOM     21  C   UNL     1       0.002  -0.004   0.002  0.00  0.00    -0.013 A 
ATOM     22  C   UNL     1      -1.039  -0.872   0.002  0.00  0.00    +0.011 A 
ATOM     23  C   UNL     1      -0.780  -2.230  -0.007  0.00  0.00    +0.013 A 
ATOM     24  C   UNL     1       0.507  -2.653  -0.016  0.00  0.00    +0.008 A 
ATOM     25  S   UNL     1       1.404  -1.109  -0.018  0.00  0.00    -0.097 S 
ENDBRANCH  18  24
ENDBRANCH  16  18
ENDBRANCH   1  16
TORSDOF 6
