REMARK  Name = ZINC39635563
REMARK  6 active torsions:
REMARK  status: ('A' for Active; 'I' for Inactive)
REMARK    1  A    between atoms: C_3  and  C_8
REMARK    2  A    between atoms: C_8  and  N_9
REMARK    3  A    between atoms: C_10  and  C_12
REMARK    4  A    between atoms: C_23  and  C_25
REMARK    5  A    between atoms: C_25  and  O_26
REMARK    6  A    between atoms: O_26  and  C_27
REMARK                            x       y       z     vdW  Elec       q    Type
REMARK                         _______ _______ _______ _____ _____    ______ ____
ROOT
ATOM      1  C   UNL     1       5.689   3.354   3.014  0.00  0.00    +0.100 C 
ATOM      2  C   UNL     1       4.722   4.333   3.717  0.00  0.00    +0.121 C 
ATOM      3  N   UNL     1       5.595   5.175   4.569  0.00  0.00    -0.297 N 
ATOM      4  C   UNL     1       6.801   5.412   3.740  0.00  0.00    +0.115 C 
ATOM      5  C   UNL     1       7.052   4.066   3.030  0.00  0.00    -0.004 C 
ATOM      6  C   UNL     1       7.540   4.306   1.605  0.00  0.00    -0.010 C 
ATOM      7  C   UNL     1       8.923   4.962   1.647  0.00  0.00    -0.082 C 
ATOM      8  N   UNL     1       9.859   4.089   2.366  0.00  0.00    +0.379 N 
ATOM      9  C   UNL     1       9.432   3.940   3.763  0.00  0.00    -0.082 C 
ATOM     10  C   UNL     1       8.071   3.241   3.810  0.00  0.00    -0.010 C 
ATOM     11  C   UNL     1       5.348   5.624   5.815  0.00  0.00    +0.253 C 
ATOM     12  O   UNL     1       6.169   6.311   6.386  0.00  0.00    -0.272 OA
ATOM     13  H   UNL     1       9.880   3.183   1.923  0.00  0.00    -0.086 HD
ATOM     14  H   UNL     1      10.783   4.495   2.340  0.00  0.00    -0.086 HD
ENDROOT
BRANCH   1  16
ATOM     15  N   UNL     1       5.534   1.933   0.996  0.00  0.00    -0.311 N 
ATOM     16  C   UNL     1       5.245   3.104   1.596  0.00  0.00    +0.218 C 
ATOM     17  O   UNL     1       4.626   3.958   0.996  0.00  0.00    -0.275 OA
ATOM     18  H   UNL     1       6.028   1.251   1.476  0.00  0.00    +0.149 HD
BRANCH  15  19
ATOM     19  C   UNL     1       5.101   1.690  -0.383  0.00  0.00    +0.139 C 
BRANCH  19  22
ATOM     20  C   UNL     1       5.131  -2.034  -1.005  0.00  0.00    +0.002 A 
ATOM     21  C   UNL     1       4.723  -0.774  -0.609  0.00  0.00    +0.005 A 
ATOM     22  C   UNL     1       5.547   0.317  -0.815  0.00  0.00    -0.029 A 
ATOM     23  C   UNL     1       6.780   0.148  -1.417  0.00  0.00    +0.025 A 
ATOM     24  C   UNL     1       7.189  -1.112  -1.813  0.00  0.00    +0.041 A 
ATOM     25  C   UNL     1       6.364  -2.204  -1.606  0.00  0.00    +0.020 A 
ATOM     26 CL   UNL     1       8.737  -1.325  -2.570  0.00  0.00    -0.084 Cl
ENDBRANCH  19  22
ENDBRANCH  15  19
ENDBRANCH   1  16
BRANCH  11  27
ATOM     27  C   UNL     1       4.052   5.273   6.500  0.00  0.00    +0.324 C 
BRANCH  27  28
ATOM     28  O   UNL     1       4.026   5.862   7.802  0.00  0.00    -0.483 OA
BRANCH  28  29
ATOM     29  C   UNL     1       2.919   5.640   8.557  0.00  0.00    +0.123 A 
ATOM     30  C   UNL     1       1.880   4.867   8.057  0.00  0.00    +0.046 A 
ATOM     31  C   UNL     1       0.755   4.643   8.827  0.00  0.00    +0.005 A 
ATOM     32  C   UNL     1       0.663   5.188  10.094  0.00  0.00    +0.020 A 
ATOM     33  C   UNL     1       1.696   5.959  10.595  0.00  0.00    +0.044 A 
ATOM     34  C   UNL     1       2.827   6.182   9.831  0.00  0.00    +0.065 A 
ATOM     35 CL   UNL     1       1.577   6.642  12.187  0.00  0.00    -0.083 Cl
ENDBRANCH  28  29
ENDBRANCH  27  28
ENDBRANCH  11  27
TORSDOF 6
