REMARK  Name = ZINC29373737
REMARK  10 active torsions:
REMARK  status: ('A' for Active; 'I' for Inactive)
REMARK    1  A    between atoms: C_1  and  C_2
REMARK    2  A    between atoms: C_2  and  N_3
REMARK    3  A    between atoms: N_6  and  C_9
REMARK    4  A    between atoms: C_12  and  N_16
REMARK    5  A    between atoms: C_13  and  C_15
REMARK    6  A    between atoms: C_17  and  C_19
REMARK    7  A    between atoms: C_19  and  N_20
REMARK    8  A    between atoms: C_25  and  C_32
REMARK    9  A    between atoms: C_28  and  C_30
REMARK   10  A    between atoms: C_28  and  C_31
REMARK                            x       y       z     vdW  Elec       q    Type
REMARK                         _______ _______ _______ _____ _____    ______ ____
ROOT
ATOM      1  N   UNL     1      -3.227   5.069  -5.797  0.00  0.00    -0.284 N 
ATOM      2  C   UNL     1      -3.578   4.233  -6.794  0.00  0.00    +0.235 C 
ATOM      3  O   UNL     1      -3.451   3.035  -6.654  0.00  0.00    -0.274 OA
ATOM      4  H   UNL     1      -3.410   6.149  -5.895  0.00  0.00    +0.155 HD
ENDROOT
BRANCH   1   8
ATOM      5  C   UNL     1      -1.443   3.561  -2.342  0.00  0.00    +0.030 A 
ATOM      6  C   UNL     1      -2.412   2.819  -3.004  0.00  0.00    +0.025 A 
ATOM      7  C   UNL     1      -3.003   3.318  -4.148  0.00  0.00    +0.025 A 
ATOM      8  C   UNL     1      -2.628   4.563  -4.636  0.00  0.00    +0.036 A 
ATOM      9  C   UNL     1      -1.659   5.305  -3.974  0.00  0.00    -0.028 A 
ATOM     10  C   UNL     1      -1.072   4.809  -2.827  0.00  0.00    +0.028 A 
ATOM     11  C   UNL     1      -1.253   6.656  -4.504  0.00  0.00    +0.046 C 
BRANCH   5  15
ATOM     12  N   UNL     1      -0.809   2.113   1.503  0.00  0.00    +0.382 N 
ATOM     13  C   UNL     1      -0.651   1.180   0.379  0.00  0.00    -0.060 C 
ATOM     14  C   UNL     1      -1.386   1.732  -0.846  0.00  0.00    +0.086 C 
ATOM     15  N   UNL     1      -0.845   3.056  -1.183  0.00  0.00    -0.333 N 
ATOM     16  C   UNL     1      -1.003   3.988  -0.059  0.00  0.00    +0.086 C 
ATOM     17  C   UNL     1      -0.269   3.437   1.166  0.00  0.00    -0.060 C 
ATOM     18  H   UNL     1      -1.885   2.226   1.702  0.00  0.00    -0.082 HD
BRANCH  12  20
ATOM     19  C   UNL     1      -0.144   2.671   3.793  0.00  0.00    -0.017 C 
ATOM     20  C   UNL     1      -0.181   1.581   2.720  0.00  0.00    -0.082 C 
ENDBRANCH  12  20
ENDBRANCH   5  15
ENDBRANCH   1   8
BRANCH   2  21
ATOM     21  C   UNL     1      -4.129   4.786  -8.083  0.00  0.00    +0.214 C 
BRANCH  21  22
ATOM     22  N   UNL     1      -4.432   3.683  -8.998  0.00  0.00    -0.215 N 
ATOM     23  C   UNL     1      -3.546   3.154  -9.870  0.00  0.00    +0.247 C 
ATOM     24  O   UNL     1      -2.364   3.414  -9.934  0.00  0.00    -0.273 OA
ATOM     25  C   UNL     1      -4.332   2.170 -10.703  0.00  0.00    +0.113 C 
ATOM     26  C   UNL     1      -3.678   0.796 -10.677  0.00  0.00    +0.038 C 
ATOM     27  C   UNL     1      -2.412   0.803 -11.536  0.00  0.00    -0.011 C 
ATOM     28  C   UNL     1      -2.803   1.109 -12.980  0.00  0.00    +0.009 C 
ATOM     29  C   UNL     1      -3.440   2.490 -13.090  0.00  0.00    -0.032 C 
ATOM     30  C   UNL     1      -4.581   2.685 -12.106  0.00  0.00    +0.041 C 
ATOM     31  C   UNL     1      -4.009   2.633 -14.518  0.00  0.00    +0.011 C 
ATOM     32  C   UNL     1      -2.376   3.576 -12.908  0.00  0.00    +0.011 C 
ATOM     33  C   UNL     1      -1.751  -0.578 -11.471  0.00  0.00    +0.007 C 
ATOM     34  N   UNL     1      -5.629   2.091  -9.994  0.00  0.00    -0.285 N 
ATOM     35  C   UNL     1      -5.611   3.055  -9.058  0.00  0.00    +0.310 C 
ATOM     36  O   UNL     1      -6.559   3.328  -8.347  0.00  0.00    -0.252 OA
ATOM     37  H   UNL     1      -6.371   1.334 -10.288  0.00  0.00    +0.151 HD
ENDBRANCH  21  22
ENDBRANCH   2  21
TORSDOF 5
