REMARK  Name = ZINC50632506
REMARK  7 active torsions:
REMARK  status: ('A' for Active; 'I' for Inactive)
REMARK    1  A    between atoms: C_1  and  C_2
REMARK    2  A    between atoms: C_4  and  C_21
REMARK    3  A    between atoms: C_5  and  N_9
REMARK    4  A    between atoms: C_6  and  C_8
REMARK    5  A    between atoms: N_9  and  S_10
REMARK    6  A    between atoms: S_10  and  C_13
REMARK    7  A    between atoms: C_18  and  N_19
REMARK                            x       y       z     vdW  Elec       q    Type
REMARK                         _______ _______ _______ _____ _____    ______ ____
ROOT
ATOM      1  S   UNL     1       1.271  -5.054   0.450  0.00  0.00    +0.076 S 
ATOM      2  O   UNL     1       1.445  -4.560   1.770  0.00  0.00    -0.150 OA
ATOM      3  O   UNL     1       1.090  -6.435   0.170  0.00  0.00    -0.150 OA
ENDROOT
BRANCH   1   4
ATOM      4  C   UNL     1       2.681  -4.535  -0.471  0.00  0.00    +0.149 A 
ATOM      5  C   UNL     1       3.693  -3.818   0.141  0.00  0.00    +0.049 A 
ATOM      6  C   UNL     1       4.786  -3.429  -0.623  0.00  0.00    +0.038 A 
ATOM      7  C   UNL     1       4.830  -3.768  -1.962  0.00  0.00    +0.128 A 
ATOM      8  N   UNL     1       3.850  -4.453  -2.519  0.00  0.00    -0.238 NA
ATOM      9  C   UNL     1       2.794  -4.846  -1.822  0.00  0.00    +0.143 A 
ATOM     10 BR   UNL     1       6.199  -2.446   0.161  0.00  0.00    -0.049 Br
BRANCH   9  11
ATOM     11  N   UNL     1       1.787  -5.572  -2.448  0.00  0.00    -0.342 N 
ATOM     12  H   UNL     1       0.972  -5.785  -1.968  0.00  0.00    +0.144 HD
ATOM     13  H   UNL     1       1.900  -5.865  -3.366  0.00  0.00    +0.144 HD
ENDBRANCH   9  11
ENDBRANCH   1   4
BRANCH   1  14
ATOM     14  N   UNL     1      -0.042  -4.267  -0.181  0.00  0.00    -0.216 N 
ATOM     15  H   UNL     1      -0.735  -4.769  -0.638  0.00  0.00    +0.174 HD
BRANCH  14  20
ATOM     16  C   UNL     1      -0.490   1.363   0.329  0.00  0.00    +0.044 C 
ATOM     17  C   UNL     1      -0.371  -0.133   0.193  0.00  0.00    -0.050 A 
ATOM     18  C   UNL     1      -0.163  -0.699  -1.051  0.00  0.00    +0.008 A 
ATOM     19  C   UNL     1      -0.053  -2.069  -1.179  0.00  0.00    -0.028 A 
ATOM     20  C   UNL     1      -0.152  -2.880  -0.056  0.00  0.00    +0.054 A 
ATOM     21  C   UNL     1      -0.361  -2.309   1.193  0.00  0.00    -0.028 A 
ATOM     22  C   UNL     1      -0.464  -0.937   1.315  0.00  0.00    +0.008 A 
ATOM     23  C   UNL     1      -0.470  -3.185   2.415  0.00  0.00    +0.046 C 
ATOM     24  C   UNL     1       0.173  -2.685  -2.536  0.00  0.00    +0.046 C 
ENDBRANCH  14  20
ENDBRANCH   1  14
TORSDOF 4
