REMARK  Name = ZINC01231423
REMARK  4 active torsions:
REMARK  status: ('A' for Active; 'I' for Inactive)
REMARK    1  A    between atoms: C_5  and  O_18
REMARK    2  A    between atoms: C_6  and  C_7
REMARK    3  A    between atoms: N_8  and  N_9
REMARK    4  A    between atoms: C_10  and  C_12
REMARK                            x       y       z     vdW  Elec       q    Type
REMARK                         _______ _______ _______ _____ _____    ______ ____
ROOT
ATOM      1  C   UNL     1      -1.923   5.870   0.043  0.00  0.00    +0.142 C 
ATOM      2  N   UNL     1      -2.103   4.584   0.037  0.00  0.00    -0.187 NA
ENDROOT
BRANCH   1   8
ATOM      3  C   UNL     1      -2.895   8.160   0.061  0.00  0.00    +0.028 A 
ATOM      4  C   UNL     1      -3.987   9.004   0.070  0.00  0.00    +0.020 A 
ATOM      5  C   UNL     1      -5.271   8.484   0.074  0.00  0.00    +0.034 A 
ATOM      6  C   UNL     1      -5.471   7.116   0.067  0.00  0.00    +0.061 A 
ATOM      7  C   UNL     1      -4.385   6.255   0.052  0.00  0.00    +0.139 A 
ATOM      8  C   UNL     1      -3.084   6.777   0.054  0.00  0.00    +0.038 A 
ATOM      9 BR   UNL     1      -7.229   6.419   0.073  0.00  0.00    -0.046 Br
ATOM     10 BR   UNL     1      -3.730  10.877   0.079  0.00  0.00    -0.050 Br
BRANCH   7  11
ATOM     11  O   UNL     1      -4.581   4.911   0.040  0.00  0.00    -0.505 OA
ATOM     12  H   UNL     1      -4.636   4.513   0.920  0.00  0.00    +0.292 HD
ENDBRANCH   7  11
ENDBRANCH   1   8
BRANCH   2  13
ATOM     13  N   UNL     1      -0.998   3.722   0.027  0.00  0.00    -0.202 N 
ATOM     14  C   UNL     1      -1.185   2.388   0.021  0.00  0.00    +0.288 C 
ATOM     15  O   UNL     1      -2.312   1.931   0.024  0.00  0.00    -0.267 OA
ATOM     16  H   UNL     1      -0.099   4.086   0.025  0.00  0.00    +0.178 HD
BRANCH  14  17
ATOM     17  C   UNL     1      -0.018   1.477   0.010  0.00  0.00    +0.211 A 
ATOM     18  C   UNL     1       0.002  -0.004   0.002  0.00  0.00    +0.193 A 
ATOM     19  N   UNL     1       1.288  -0.272  -0.012  0.00  0.00    -0.033 NA
ATOM     20  O   UNL     1       1.914   0.761  -0.012  0.00  0.00    -0.240 OA
ATOM     21  N   UNL     1       1.262   1.779  -0.000  0.00  0.00    -0.042 NA
ATOM     22  N   UNL     1      -1.069  -0.887   0.007  0.00  0.00    -0.339 N 
ATOM     23  H   UNL     1      -1.978  -0.547   0.017  0.00  0.00    +0.144 HD
ATOM     24  H   UNL     1      -0.909  -1.844   0.001  0.00  0.00    +0.144 HD
ENDBRANCH  14  17
ENDBRANCH   2  13
TORSDOF 4
