REMARK  Name = ZINC39683410
REMARK  12 active torsions:
REMARK  status: ('A' for Active; 'I' for Inactive)
REMARK    1  A    between atoms: C_1  and  C_2
REMARK    2  A    between atoms: C_2  and  C_3
REMARK    3  A    between atoms: C_3  and  C_4
REMARK    4  A    between atoms: C_4  and  N_5
REMARK    5  A    between atoms: C_8  and  C_11
REMARK    6  A    between atoms: C_11  and  N_12
REMARK    7  A    between atoms: C_13  and  C_15
REMARK    8  A    between atoms: C_26  and  C_28
REMARK    9  A    between atoms: C_28  and  C_30
REMARK   10  A    between atoms: C_28  and  C_31
REMARK   11  A    between atoms: C_31  and  C_32
REMARK   12  A    between atoms: C_32  and  C_33
REMARK                            x       y       z     vdW  Elec       q    Type
REMARK                         _______ _______ _______ _____ _____    ______ ____
ROOT
ATOM      1  C   UNL     1       4.784  -8.084   6.289  0.00  0.00    +0.100 C 
ATOM      2  C   UNL     1       5.551  -8.663   5.080  0.00  0.00    +0.121 C 
ATOM      3  N   UNL     1       6.935  -8.858   5.573  0.00  0.00    -0.300 N 
ATOM      4  C   UNL     1       6.766  -9.357   6.959  0.00  0.00    +0.115 C 
ATOM      5  C   UNL     1       5.582  -8.545   7.521  0.00  0.00    -0.004 C 
ATOM      6  C   UNL     1       4.713  -9.426   8.414  0.00  0.00    -0.010 C 
ATOM      7  C   UNL     1       5.509  -9.824   9.660  0.00  0.00    -0.082 C 
ATOM      8  N   UNL     1       5.923  -8.616  10.384  0.00  0.00    +0.379 N 
ATOM      9  C   UNL     1       6.833  -7.820   9.552  0.00  0.00    -0.082 C 
ATOM     10  C   UNL     1       6.093  -7.338   8.301  0.00  0.00    -0.010 C 
ATOM     11  C   UNL     1       8.087  -8.633   4.911  0.00  0.00    +0.218 C 
ATOM     12  O   UNL     1       9.150  -8.843   5.456  0.00  0.00    -0.275 OA
ATOM     13  H   UNL     1       5.109  -8.065  10.611  0.00  0.00    -0.086 HD
ATOM     14  H   UNL     1       6.395  -8.881  11.236  0.00  0.00    -0.086 HD
ENDROOT
BRANCH   1  16
ATOM     15  N   UNL     1       3.728  -5.901   6.776  0.00  0.00    -0.315 N 
ATOM     16  C   UNL     1       4.750  -6.579   6.219  0.00  0.00    +0.218 C 
ATOM     17  O   UNL     1       5.644  -5.979   5.660  0.00  0.00    -0.275 OA
ATOM     18  H   UNL     1       3.013  -6.381   7.223  0.00  0.00    +0.149 HD
BRANCH  15  19
ATOM     19  C   UNL     1       3.695  -4.438   6.707  0.00  0.00    +0.107 C 
BRANCH  19  23
ATOM     20  N   UNL     1       1.274  -2.202   9.431  0.00  0.00    +0.380 N 
ATOM     21  C   UNL     1       1.124  -1.884   8.005  0.00  0.00    -0.079 C 
ATOM     22  C   UNL     1       2.339  -2.404   7.233  0.00  0.00    -0.014 C 
ATOM     23  C   UNL     1       2.439  -3.922   7.411  0.00  0.00    +0.003 C 
ATOM     24  C   UNL     1       2.519  -4.246   8.906  0.00  0.00    -0.014 C 
ATOM     25  C   UNL     1       1.298  -3.658   9.616  0.00  0.00    -0.079 C 
ATOM     26  H   UNL     1       2.136  -1.806   9.773  0.00  0.00    -0.082 HD
BRANCH  20  27
ATOM     27  C   UNL     1       0.145  -1.634  10.179  0.00  0.00    -0.079 C 
BRANCH  27  28
ATOM     28  C   UNL     1       0.190  -0.107  10.089  0.00  0.00    -0.019 C 
BRANCH  28  30
ATOM     29  C   UNL     1      -0.941   2.012  10.778  0.00  0.00    +0.004 C 
ATOM     30  C   UNL     1      -0.986   0.485  10.868  0.00  0.00    -0.005 C 
ENDBRANCH  28  30
ENDBRANCH  27  28
ENDBRANCH  20  27
ENDBRANCH  19  23
ENDBRANCH  15  19
ENDBRANCH   1  16
BRANCH  11  31
ATOM     31  C   UNL     1       8.055  -8.120   3.494  0.00  0.00    +0.072 C 
ATOM     32  C   UNL     1       7.308  -9.119   2.608  0.00  0.00    +0.017 C 
BRANCH  31  33
ATOM     33  C   UNL     1       9.486  -7.952   2.980  0.00  0.00    +0.012 C 
BRANCH  33  34
ATOM     34  C   UNL     1       9.456  -7.315   1.589  0.00  0.00    -0.003 C 
ATOM     35  C   UNL     1      10.887  -7.147   1.075  0.00  0.00    +0.004 C 
ENDBRANCH  33  34
ENDBRANCH  31  33
ENDBRANCH  11  31
TORSDOF 9
