REMARK  Name = ZINC17045628
REMARK  8 active torsions:
REMARK  status: ('A' for Active; 'I' for Inactive)
REMARK    1  A    between atoms: C_1  and  C_2
REMARK    2  A    between atoms: C_4  and  O_9
REMARK    3  A    between atoms: O_9  and  C_10
REMARK    4  A    between atoms: C_10  and  C_11
REMARK    5  A    between atoms: C_11  and  N_12
REMARK    6  A    between atoms: C_16  and  C_17
REMARK    7  A    between atoms: N_23  and  C_26
REMARK    8  A    between atoms: C_26  and  C_27
REMARK                            x       y       z     vdW  Elec       q    Type
REMARK                         _______ _______ _______ _____ _____    ______ ____
ROOT
ATOM      1  N   UNL     1       0.043  -5.980  -2.953  0.00  0.00    -0.344 N 
ATOM      2  C   UNL     1       1.292  -6.489  -2.958  0.00  0.00    +0.086 A 
ATOM      3  C   UNL     1       1.252  -7.766  -3.420  0.00  0.00    +0.020 A 
ATOM      4  C   UNL     1      -0.074  -8.073  -3.717  0.00  0.00    +0.027 A 
ATOM      5  C   UNL     1      -0.829  -6.945  -3.414  0.00  0.00    +0.043 A 
ENDROOT
BRANCH   5   6
ATOM      6  C   UNL     1      -2.220  -6.812  -3.555  0.00  0.00    +0.044 C 
ATOM      7  C   UNL     1      -2.743  -5.870  -4.434  0.00  0.00    +0.103 C 
ATOM      8  C   UNL     1      -1.874  -5.097  -5.344  0.00  0.00    +0.276 C 
ATOM      9  N   UNL     1      -2.447  -4.204  -6.167  0.00  0.00    -0.123 NA
ATOM     10  C   UNL     1      -3.741  -4.004  -6.182  0.00  0.00    +0.336 C 
ATOM     11  O   UNL     1      -4.233  -3.089  -7.039  0.00  0.00    -0.250 OA
ATOM     12  N   UNL     1      -4.614  -4.669  -5.383  0.00  0.00    -0.213 N 
ATOM     13  C   UNL     1      -4.188  -5.603  -4.505  0.00  0.00    +0.260 C 
ATOM     14  O   UNL     1      -4.974  -6.201  -3.793  0.00  0.00    -0.269 OA
ATOM     15  O   UNL     1      -0.666  -5.266  -5.347  0.00  0.00    -0.268 OA
BRANCH  12  16
ATOM     16  C   UNL     1      -6.046  -4.372  -5.478  0.00  0.00    +0.192 C 
BRANCH  16  17
ATOM     17  C   UNL     1      -6.680  -5.276  -6.503  0.00  0.00    +0.123 A 
ATOM     18  C   UNL     1      -7.220  -6.484  -6.260  0.00  0.00    +0.046 A 
ATOM     19  C   UNL     1      -7.694  -6.977  -7.497  0.00  0.00    +0.041 A 
ATOM     20  C   UNL     1      -7.415  -6.041  -8.422  0.00  0.00    +0.195 A 
ATOM     21  O   UNL     1      -6.806  -5.011  -7.814  0.00  0.00    -0.466 OA
ENDBRANCH  16  17
ENDBRANCH  12  16
ENDBRANCH   5   6
BRANCH   1  22
ATOM     22  C   UNL     1      -0.328  -4.630  -2.522  0.00  0.00    +0.162 C 
BRANCH  22  23
ATOM     23  C   UNL     1      -0.801  -4.670  -1.068  0.00  0.00    +0.250 C 
BRANCH  23  24
ATOM     24  O   UNL     1      -1.054  -3.339  -0.613  0.00  0.00    -0.490 OA
BRANCH  24  28
ATOM     25  C   UNL     1      -2.474  -0.417   3.030  0.00  0.00    +0.045 C 
ATOM     26  C   UNL     1      -2.187  -1.790   2.479  0.00  0.00    -0.029 A 
ATOM     27  C   UNL     1      -1.748  -1.933   1.176  0.00  0.00    +0.050 A 
ATOM     28  C   UNL     1      -1.484  -3.196   0.669  0.00  0.00    +0.121 A 
ATOM     29  C   UNL     1      -1.661  -4.315   1.470  0.00  0.00    +0.047 A 
ATOM     30  C   UNL     1      -2.100  -4.168   2.772  0.00  0.00    +0.024 A 
ATOM     31  C   UNL     1      -2.357  -2.906   3.278  0.00  0.00    +0.044 A 
ATOM     32 CL   UNL     1      -2.901  -2.724   4.917  0.00  0.00    -0.083 Cl
ENDBRANCH  24  28
ENDBRANCH  23  24
ENDBRANCH  22  23
ENDBRANCH   1  22
TORSDOF 7
