REMARK  Name = ZINC04040867
REMARK  4 active torsions:
REMARK  status: ('A' for Active; 'I' for Inactive)
REMARK    1  A    between atoms: C_1  and  C_2
REMARK    2  A    between atoms: C_4  and  C_28
REMARK    3  A    between atoms: C_9  and  C_13
REMARK    4  A    between atoms: C_20  and  C_26
REMARK                            x       y       z     vdW  Elec       q    Type
REMARK                         _______ _______ _______ _____ _____    ______ ____
ROOT
ATOM      1  C   UNL     1       0.279  -0.362   0.056  0.00  0.00    +0.018 C 
ATOM      2  C   UNL     1       0.295   1.165   0.149  0.00  0.00    +0.080 C 
ATOM      3  C   UNL     1      -0.661   1.621   1.267  0.00  0.00    +0.152 C 
ATOM      4  N   UNL     1      -2.020   1.448   0.752  0.00  0.00    -0.284 N 
ATOM      5  C   UNL     1      -2.473   2.150  -0.494  0.00  0.00    +0.123 C 
ATOM      6  C   UNL     1      -1.592   1.606  -1.618  0.00  0.00    +0.076 C 
ATOM      7  C   UNL     1      -0.151   1.754  -1.168  0.00  0.00    +0.143 C 
ATOM      8  O   UNL     1       0.640   2.344  -1.864  0.00  0.00    -0.297 OA
ATOM      9  C   UNL     1      -1.913   0.130  -1.864  0.00  0.00    +0.017 C 
ATOM     10  C   UNL     1      -3.918   1.819  -0.589  0.00  0.00    +0.119 C 
ATOM     11  C   UNL     1      -4.778   2.727   0.279  0.00  0.00    +0.008 C 
ATOM     12  C   UNL     1      -6.030   2.348   0.078  0.00  0.00    +0.004 C 
ATOM     13  C   UNL     1      -5.933   1.152  -0.877  0.00  0.00    +0.157 C 
ATOM     14  O   UNL     1      -4.748   1.530  -1.694  0.00  0.00    -0.359 OA
ATOM     15  C   UNL     1      -5.344   0.028   0.062  0.00  0.00    +0.150 C 
ATOM     16  C   UNL     1      -3.884   0.383   0.071  0.00  0.00    +0.129 C 
ATOM     17  C   UNL     1      -3.014   0.651   1.231  0.00  0.00    +0.224 C 
ATOM     18  O   UNL     1      -3.153   0.247   2.366  0.00  0.00    -0.275 OA
ENDROOT
BRANCH   3  19
ATOM     19  C   UNL     1      -0.413   3.070   1.599  0.00  0.00    +0.126 A 
ATOM     20  C   UNL     1       0.299   3.527   2.644  0.00  0.00    +0.046 A 
ATOM     21  C   UNL     1       0.276   4.939   2.570  0.00  0.00    +0.041 A 
ATOM     22  C   UNL     1      -0.456   5.260   1.488  0.00  0.00    +0.195 A 
ATOM     23  O   UNL     1      -0.871   4.124   0.903  0.00  0.00    -0.466 OA
ENDBRANCH   3  19
BRANCH  15  24
ATOM     24  C   UNL     1      -5.932   0.117   1.447  0.00  0.00    +0.363 C 
ATOM     25  O   UNL     1      -5.502   0.926   2.235  0.00  0.00    -0.246 OA
ATOM     26  O   UNL     1      -6.934  -0.701   1.805  0.00  0.00    -0.246 OA
ENDBRANCH  15  24
TORSDOF 2
