REMARK  Name = ZINC37983351
REMARK  4 active torsions:
REMARK  status: ('A' for Active; 'I' for Inactive)
REMARK    1  A    between atoms: C_4  and  N_19
REMARK    2  A    between atoms: C_6  and  C_7
REMARK    3  A    between atoms: N_9  and  C_10
REMARK    4  A    between atoms: C_10  and  C_11
REMARK                            x       y       z     vdW  Elec       q    Type
REMARK                         _______ _______ _______ _____ _____    ______ ____
ROOT
ATOM      1  C   UNL     1      -1.266  -0.763   0.011  0.00  0.00    +0.244 C 
ATOM      2  O   UNL     1      -1.247  -1.979   0.004  0.00  0.00    -0.270 OA
ATOM      3  N   UNL     1      -2.444  -0.108   0.026  0.00  0.00    -0.311 N 
ATOM      4  H   UNL     1      -2.459   0.862   0.031  0.00  0.00    +0.149 HD
ENDROOT
BRANCH   1  10
ATOM      5  C   UNL     1      -0.017   1.392   0.010  0.00  0.00    +0.014 A 
ATOM      6  C   UNL     1       1.170   2.095   0.002  0.00  0.00    +0.018 A 
ATOM      7  C   UNL     1       2.378   1.419  -0.013  0.00  0.00    +0.048 A 
ATOM      8  C   UNL     1       2.403   0.034  -0.021  0.00  0.00    +0.141 A 
ATOM      9  C   UNL     1       1.224  -0.680  -0.014  0.00  0.00    +0.047 A 
ATOM     10  C   UNL     1       0.002  -0.004   0.002  0.00  0.00    +0.039 A 
ATOM     11 BR   UNL     1       4.000   2.390  -0.023  0.00  0.00    -0.048 Br
BRANCH   8  12
ATOM     12  N   UNL     1       3.699  -0.681  -0.038  0.00  0.00    +0.058 N 
ATOM     13  O   UNL     1       3.723  -1.890  -0.045  0.00  0.00    -0.126 OA
ATOM     14  O   UNL     1       4.734  -0.056  -0.045  0.00  0.00    -0.126 OA
ENDBRANCH   8  12
ENDBRANCH   1  10
BRANCH   3  15
ATOM     15  C   UNL     1      -3.700  -0.861   0.034  0.00  0.00    +0.109 C 
BRANCH  15  16
ATOM     16  C   UNL     1      -4.879   0.115   0.051  0.00  0.00    +0.029 C 
ATOM     17  C   UNL     1      -4.896   0.886   1.381  0.00  0.00    +0.029 C 
ATOM     18  C   UNL     1      -6.244   1.629   1.544  0.00  0.00    +0.166 C 
ATOM     19  S   UNL     1      -7.403   0.578   0.577  0.00  0.00    -0.031 S 
ATOM     20  O   UNL     1      -7.915   1.335  -0.511  0.00  0.00    -0.174 OA
ATOM     21  O   UNL     1      -8.305  -0.059   1.472  0.00  0.00    -0.174 OA
ATOM     22  C   UNL     1      -6.215  -0.673  -0.069  0.00  0.00    +0.171 C 
ENDBRANCH  15  16
ENDBRANCH   3  15
TORSDOF 4
