REMARK  Name = ZINC22699712
REMARK  7 active torsions:
REMARK  status: ('A' for Active; 'I' for Inactive)
REMARK    1  A    between atoms: C_1  and  C_2
REMARK    2  A    between atoms: C_14  and  C_15
REMARK    3  A    between atoms: C_15  and  O_17
REMARK    4  A    between atoms: O_17  and  C_18
REMARK    5  A    between atoms: C_18  and  C_20
REMARK    6  A    between atoms: C_18  and  C_21
REMARK    7  A    between atoms: C_21  and  C_23
REMARK                            x       y       z     vdW  Elec       q    Type
REMARK                         _______ _______ _______ _____ _____    ______ ____
ROOT
ATOM      1  C   UNL     1      -4.557   8.278  -0.605  0.00  0.00    +0.347 C 
ATOM      2  O   UNL     1      -4.736   8.601  -1.764  0.00  0.00    -0.244 OA
ENDROOT
BRANCH   1  16
ATOM      3  C   UNL     1      -3.451   6.313  -2.642  0.00  0.00    +0.046 C 
ATOM      4  C   UNL     1      -3.337   6.107  -1.153  0.00  0.00    -0.015 A 
ATOM      5  C   UNL     1      -2.700   4.970  -0.651  0.00  0.00    +0.076 A 
ATOM      6  C   UNL     1      -2.644   4.868   0.758  0.00  0.00    +0.116 A 
ATOM      7  N   UNL     1      -2.066   3.838   1.357  0.00  0.00    -0.226 NA
ATOM      8  C   UNL     1      -1.513   2.857   0.685  0.00  0.00    +0.114 A 
ATOM      9  N   UNL     1      -1.507   2.842  -0.672  0.00  0.00    -0.296 N 
ATOM     10  C   UNL     1      -2.070   3.850  -1.380  0.00  0.00    +0.263 A 
ATOM     11  O   UNL     1      -2.057   3.833  -2.598  0.00  0.00    -0.267 OA
ATOM     12  C   UNL     1      -0.832   1.633  -1.179  0.00  0.00    +0.127 C 
ATOM     13  C   UNL     1      -0.013   1.086   0.008  0.00  0.00    +0.029 C 
ATOM     14  C   UNL     1      -0.810   1.621   1.217  0.00  0.00    +0.076 C 
ATOM     15  S   UNL     1      -3.471   6.340   1.307  0.00  0.00    -0.062 S 
ATOM     16  C   UNL     1      -3.857   7.030  -0.293  0.00  0.00    +0.102 A 
ENDBRANCH   1  16
BRANCH   1  17
ATOM     17  O   UNL     1      -5.002   9.069   0.393  0.00  0.00    -0.450 OA
BRANCH  17  18
ATOM     18  C   UNL     1      -5.687  10.291   0.009  0.00  0.00    +0.244 C 
ATOM     19  C   UNL     1      -4.670  11.426  -0.123  0.00  0.00    +0.061 C 
BRANCH  18  20
ATOM     20  C   UNL     1      -6.704  10.648   1.063  0.00  0.00    +0.205 C 
ATOM     21  O   UNL     1      -6.607  10.187   2.182  0.00  0.00    -0.288 OA
BRANCH  20  22
ATOM     22  C   UNL     1      -7.774  11.523   0.747  0.00  0.00    +0.046 A 
ATOM     23  C   UNL     1      -8.017  12.129  -0.467  0.00  0.00    +0.095 A 
ATOM     24  N   UNL     1      -9.128  12.885  -0.381  0.00  0.00    -0.360 N 
ATOM     25  H   UNL     1      -9.484  13.443  -1.260  0.00  0.00    +0.165 HD
ATOM     26  C   UNL     1      -9.664  12.822   0.890  0.00  0.00    +0.047 A 
ATOM     27  C   UNL     1      -8.848  11.972   1.654  0.00  0.00    +0.010 A 
ATOM     28  C   UNL     1      -9.155  11.723   2.988  0.00  0.00    +0.011 A 
ATOM     29  C   UNL     1     -10.263  12.314   3.556  0.00  0.00    +0.001 A 
ATOM     30  C   UNL     1     -11.069  13.155   2.804  0.00  0.00    +0.002 A 
ATOM     31  C   UNL     1     -10.777  13.410   1.481  0.00  0.00    +0.026 A 
ENDBRANCH  20  22
ENDBRANCH  18  20
ENDBRANCH  17  18
ENDBRANCH   1  17
TORSDOF 5
