REMARK  Name = ZINC44451020
REMARK  3 active torsions:
REMARK  status: ('A' for Active; 'I' for Inactive)
REMARK    1  A    between atoms: C_7  and  C_8
REMARK    2  A    between atoms: N_10  and  C_11
REMARK    3  A    between atoms: C_17  and  N_19
REMARK                            x       y       z     vdW  Elec       q    Type
REMARK                         _______ _______ _______ _____ _____    ______ ____
ROOT
ATOM      1  C   UNL     1      -3.671   0.382  -0.196  0.00  0.00    +0.094 C 
ATOM      2  C   UNL     1      -4.122   0.127  -1.635  0.00  0.00    +0.024 C 
ATOM      3  C   UNL     1      -5.400   0.919  -1.917  0.00  0.00    +0.002 C 
ATOM      4  C   UNL     1      -6.500   0.473  -0.951  0.00  0.00    +0.002 C 
ATOM      5  C   UNL     1      -6.048   0.728   0.489  0.00  0.00    +0.025 C 
ATOM      6  C   UNL     1      -4.770  -0.064   0.770  0.00  0.00    +0.105 C 
ENDROOT
BRANCH   6   7
ATOM      7  N   UNL     1      -4.338   0.180   2.149  0.00  0.00    -0.228 N 
ATOM      8  C   UNL     1      -4.096  -0.863   2.924  0.00  0.00    +0.233 C 
ATOM      9  O   UNL     1      -4.221  -2.004   2.532  0.00  0.00    -0.274 OA
ATOM     10  C   UNL     1      -3.651  -0.534   4.342  0.00  0.00    +0.175 C 
ATOM     11  S   UNL     1      -3.675   1.305   4.258  0.00  0.00    -0.058 S 
ATOM     12  C   UNL     1      -4.202   1.456   2.558  0.00  0.00    +0.281 C 
ATOM     13  O   UNL     1      -4.396   2.472   1.920  0.00  0.00    -0.262 OA
ENDBRANCH   6   7
BRANCH   1  16
ATOM     14  C   UNL     1      -2.169   2.236   0.299  0.00  0.00    +0.247 C 
ATOM     15  O   UNL     1      -1.266   1.432   0.427  0.00  0.00    -0.270 OA
ATOM     16  N   UNL     1      -3.410   1.812  -0.012  0.00  0.00    -0.307 N 
ATOM     17  H   UNL     1      -4.130   2.454  -0.114  0.00  0.00    +0.149 HD
BRANCH  14  24
ATOM     18  C   UNL     1      -2.956   4.619   0.336  0.00  0.00    +0.023 A 
ATOM     19  C   UNL     1      -2.682   5.939   0.514  0.00  0.00    +0.093 A 
ATOM     20  C   UNL     1      -1.370   6.334   0.838  0.00  0.00    +0.337 A 
ATOM     21  O   UNL     1      -1.116   7.515   0.999  0.00  0.00    -0.245 OA
ATOM     22  O   UNL     1      -0.395   5.418   0.972  0.00  0.00    -0.430 OA
ATOM     23  C   UNL     1      -0.641   4.115   0.802  0.00  0.00    +0.212 A 
ATOM     24  C   UNL     1      -1.906   3.676   0.484  0.00  0.00    +0.072 A 
ENDBRANCH  14  24
ENDBRANCH   1  16
TORSDOF 3
