REMARK  Name = ZINC67028637
REMARK  8 active torsions:
REMARK  status: ('A' for Active; 'I' for Inactive)
REMARK    1  A    between atoms: C_1  and  C_2
REMARK    2  A    between atoms: C_3  and  C_22
REMARK    3  A    between atoms: C_4  and  C_10
REMARK    4  A    between atoms: C_13  and  O_16
REMARK    5  A    between atoms: O_16  and  C_17
REMARK    6  A    between atoms: C_17  and  C_19
REMARK    7  A    between atoms: C_17  and  C_20
REMARK    8  A    between atoms: N_24  and  C_25
REMARK                            x       y       z     vdW  Elec       q    Type
REMARK                         _______ _______ _______ _____ _____    ______ ____
ROOT
ATOM      1  C   UNL     1      -0.419   0.706   0.884  0.00  0.00    +0.061 C 
ATOM      2  C   UNL     1      -0.314  -0.708   0.372  0.00  0.00    +0.017 C 
ATOM      3  C   UNL     1      -1.364  -1.260  -0.273  0.00  0.00    +0.056 C 
ATOM      4  C   UNL     1      -1.217  -2.683  -0.772  0.00  0.00    +0.139 C 
ATOM      5  N   UNL     1       0.069  -3.351  -0.512  0.00  0.00    -0.315 N 
ATOM      6  C   UNL     1       1.026  -2.667   0.146  0.00  0.00    +0.135 C 
ATOM      7  S   UNL     1       2.526  -3.432   0.456  0.00  0.00    -0.019 S 
ATOM      8  N   UNL     1       0.843  -1.407   0.561  0.00  0.00    -0.300 N 
ATOM      9  H   UNL     1       0.224  -4.262  -0.807  0.00  0.00    +0.149 HD
ATOM     10  H   UNL     1       1.573  -0.968   1.026  0.00  0.00    +0.154 HD
ENDROOT
BRANCH   4  11
ATOM     11  C   UNL     1      -1.444  -2.678  -2.262  0.00  0.00    -0.022 A 
ATOM     12  C   UNL     1      -0.414  -2.330  -3.116  0.00  0.00    +0.009 A 
ATOM     13  C   UNL     1      -0.620  -2.324  -4.482  0.00  0.00    +0.046 A 
ATOM     14  C   UNL     1      -1.861  -2.668  -4.997  0.00  0.00    +0.122 A 
ATOM     15  C   UNL     1      -2.893  -3.018  -4.138  0.00  0.00    +0.046 A 
ATOM     16  C   UNL     1      -2.681  -3.027  -2.772  0.00  0.00    +0.009 A 
BRANCH  14  17
ATOM     17  O   UNL     1      -2.066  -2.663  -6.340  0.00  0.00    -0.475 OA
BRANCH  17  18
ATOM     18  C   UNL     1      -0.945  -2.344  -7.166  0.00  0.00    +0.271 C 
ATOM     19  C   UNL     1      -0.103  -3.602  -7.391  0.00  0.00    +0.068 C 
BRANCH  18  20
ATOM     20  C   UNL     1      -1.420  -1.833  -8.462  0.00  0.00    +0.107 C 
ATOM     21  N   UNL     1      -1.786  -1.439  -9.463  0.00  0.00    -0.193 NA
ENDBRANCH  18  20
ENDBRANCH  17  18
ENDBRANCH  14  17
ENDBRANCH   4  11
BRANCH   3  22
ATOM     22  C   UNL     1      -2.563  -0.533  -0.474  0.00  0.00    +0.248 C 
ATOM     23  O   UNL     1      -3.544  -0.777   0.205  0.00  0.00    -0.270 OA
ATOM     24  N   UNL     1      -2.619   0.427  -1.418  0.00  0.00    -0.282 N 
ATOM     25  H   UNL     1      -1.875   0.552  -2.027  0.00  0.00    +0.155 HD
BRANCH  24  26
ATOM     26  C   UNL     1      -3.749   1.244  -1.519  0.00  0.00    +0.034 A 
ATOM     27  C   UNL     1      -4.462   1.590  -0.378  0.00  0.00    +0.023 A 
ATOM     28  C   UNL     1      -5.577   2.398  -0.481  0.00  0.00    +0.002 A 
ATOM     29  C   UNL     1      -5.986   2.861  -1.718  0.00  0.00    +0.000 A 
ATOM     30  C   UNL     1      -5.279   2.518  -2.856  0.00  0.00    +0.002 A 
ATOM     31  C   UNL     1      -4.159   1.716  -2.759  0.00  0.00    +0.023 A 
ENDBRANCH  24  26
ENDBRANCH   3  22
TORSDOF 6
