REMARK  Name = ZINC36724336
REMARK  3 active torsions:
REMARK  status: ('A' for Active; 'I' for Inactive)
REMARK    1  A    between atoms: C_1  and  C_2
REMARK    2  A    between atoms: C_6  and  N_9
REMARK    3  A    between atoms: C_16  and  C_19
REMARK                            x       y       z     vdW  Elec       q    Type
REMARK                         _______ _______ _______ _____ _____    ______ ____
ROOT
ATOM      1  N   UNL     1       0.058  -2.798   2.396  0.00  0.00    -0.267 N 
ATOM      2  C   UNL     1       0.270  -4.129   2.393  0.00  0.00    +0.307 C 
ATOM      3  O   UNL     1       0.539  -4.699   1.353  0.00  0.00    -0.252 OA
ATOM      4  N   UNL     1       0.185  -4.828   3.542  0.00  0.00    -0.285 N 
ATOM      5  C   UNL     1      -0.259  -4.178   4.782  0.00  0.00    +0.109 C 
ATOM      6  C   UNL     1      -1.423  -4.981   5.371  0.00  0.00    +0.020 C 
ATOM      7  C   UNL     1      -0.996  -6.440   5.544  0.00  0.00    +0.018 C 
ATOM      8  C   UNL     1      -0.640  -7.034   4.179  0.00  0.00    +0.119 C 
ATOM      9  C   UNL     1       0.528  -6.256   3.576  0.00  0.00    +0.124 C 
ATOM     10  H   UNL     1      -0.104  -2.335   3.233  0.00  0.00    +0.156 HD
ENDROOT
BRANCH   1  16
ATOM     11  C   UNL     1       1.388   1.198  -0.145  0.00  0.00    +0.045 C 
ATOM     12  C   UNL     1       0.708  -0.144  -0.069  0.00  0.00    -0.030 A 
ATOM     13  C   UNL     1       0.094  -0.672  -1.190  0.00  0.00    +0.006 A 
ATOM     14  C   UNL     1      -0.532  -1.903  -1.124  0.00  0.00    +0.022 A 
ATOM     15  C   UNL     1      -0.546  -2.611   0.063  0.00  0.00    +0.064 A 
ATOM     16  C   UNL     1       0.070  -2.084   1.191  0.00  0.00    +0.072 A 
ATOM     17  C   UNL     1       0.703  -0.849   1.120  0.00  0.00    +0.066 A 
ATOM     18 CL   UNL     1       1.480  -0.189   2.525  0.00  0.00    -0.081 Cl
ATOM     19 CL   UNL     1      -1.333  -4.156   0.145  0.00  0.00    -0.082 Cl
ENDBRANCH   1  16
BRANCH   8  20
ATOM     20  C   UNL     1      -0.251  -8.481   4.347  0.00  0.00    +0.361 C 
ATOM     21  O   UNL     1      -0.615  -9.309   3.530  0.00  0.00    -0.246 OA
ATOM     22  O   UNL     1       0.428  -8.823   5.300  0.00  0.00    -0.246 OA
ENDBRANCH   8  20
TORSDOF 2
