REMARK  Name = ZINC39946137
REMARK  9 active torsions:
REMARK  status: ('A' for Active; 'I' for Inactive)
REMARK    1  A    between atoms: C_1  and  C_2
REMARK    2  A    between atoms: C_3  and  C_17
REMARK    3  A    between atoms: N_6  and  C_8
REMARK    4  A    between atoms: C_8  and  C_9
REMARK    5  A    between atoms: C_18  and  C_19
REMARK    6  A    between atoms: C_19  and  O_21
REMARK    7  A    between atoms: O_21  and  C_22
REMARK    8  A    between atoms: C_22  and  C_23
REMARK    9  A    between atoms: C_23  and  C_25
REMARK                            x       y       z     vdW  Elec       q    Type
REMARK                         _______ _______ _______ _____ _____    ______ ____
ROOT
ATOM      1  C   UNL     1      -2.442  -0.346   0.012  0.00  0.00    +0.015 C 
ATOM      2  C   UNL     1      -3.454  -1.257   0.012  0.00  0.00    +0.092 C 
ENDROOT
BRANCH   1   5
ATOM      3  C   UNL     1      -0.018   1.503   0.010  0.00  0.00    +0.062 C 
ATOM      4  C   UNL     1       0.002  -0.004   0.002  0.00  0.00    +0.022 C 
ATOM      5  C   UNL     1      -1.105  -0.781   0.003  0.00  0.00    +0.004 C 
ATOM      6  C   UNL     1      -0.614  -2.214  -0.007  0.00  0.00    +0.198 C 
ATOM      7  N   UNL     1       0.857  -2.090  -0.013  0.00  0.00    -0.203 NA
ATOM      8  N   UNL     1       1.135  -0.754  -0.013  0.00  0.00    -0.280 N 
ATOM      9 CL   UNL     1      -1.172  -3.083   1.471  0.00  0.00    -0.098 Cl
ATOM     10  H   UNL     1       2.032  -0.385  -0.020  0.00  0.00    +0.166 HD
BRANCH   7  11
ATOM     11  C   UNL     1       1.435  -2.743  -1.195  0.00  0.00    +0.144 C 
BRANCH  11  12
ATOM     12  C   UNL     1       2.939  -2.703  -1.106  0.00  0.00    -0.013 A 
ATOM     13  C   UNL     1       3.648  -1.748  -1.810  0.00  0.00    +0.006 A 
ATOM     14  C   UNL     1       5.028  -1.711  -1.727  0.00  0.00    +0.000 A 
ATOM     15  C   UNL     1       5.699  -2.630  -0.941  0.00  0.00    +0.001 A 
ATOM     16  C   UNL     1       4.990  -3.585  -0.237  0.00  0.00    +0.020 A 
ATOM     17  C   UNL     1       3.609  -3.618  -0.315  0.00  0.00    +0.045 A 
ATOM     18 CL   UNL     1       2.719  -4.814   0.575  0.00  0.00    -0.083 Cl
ENDBRANCH  11  12
ENDBRANCH   7  11
ENDBRANCH   1   5
BRANCH   2  19
ATOM     19  C   UNL     1      -4.793  -0.821   0.021  0.00  0.00    +0.332 C 
ATOM     20  O   UNL     1      -5.046   0.370   0.028  0.00  0.00    -0.246 OA
BRANCH  19  21
ATOM     21  O   UNL     1      -5.797  -1.725   0.021  0.00  0.00    -0.454 OA
BRANCH  21  22
ATOM     22  C   UNL     1      -7.131  -1.212   0.030  0.00  0.00    +0.311 C 
BRANCH  22  23
ATOM     23  C   UNL     1      -8.110  -2.358   0.029  0.00  0.00    +0.199 C 
ATOM     24  O   UNL     1      -7.704  -3.503   0.022  0.00  0.00    -0.289 OA
BRANCH  23  25
ATOM     25  C   UNL     1      -9.497  -2.101   0.037  0.00  0.00    +0.026 C 
ATOM     26  C   UNL     1     -10.520  -3.032   0.043  0.00  0.00    +0.006 A 
ATOM     27  C   UNL     1     -10.534  -4.447   0.043  0.00  0.00    +0.010 A 
ATOM     28  C   UNL     1     -11.708  -5.117   0.049  0.00  0.00    +0.001 A 
ATOM     29  C   UNL     1     -12.950  -4.461   0.057  0.00  0.00    +0.002 A 
ATOM     30  C   UNL     1     -13.047  -3.114   0.058  0.00  0.00    +0.026 A 
ATOM     31  C   UNL     1     -11.815  -2.308   0.051  0.00  0.00    +0.043 A 
ATOM     32  N   UNL     1     -11.618  -1.021   0.051  0.00  0.00    -0.380 N 
ATOM     33  C   UNL     1     -10.178  -0.750   0.048  0.00  0.00    +0.152 C 
ATOM     34  H   UNL     1     -12.316  -0.346   0.055  0.00  0.00    +0.160 HD
ENDBRANCH  23  25
ENDBRANCH  22  23
ENDBRANCH  21  22
ENDBRANCH  19  21
ENDBRANCH   2  19
TORSDOF 8
