REMARK  Name = ZINC39404348
REMARK  10 active torsions:
REMARK  status: ('A' for Active; 'I' for Inactive)
REMARK    1  A    between atoms: C_1  and  C_2
REMARK    2  A    between atoms: C_2  and  O_3
REMARK    3  A    between atoms: O_3  and  C_4
REMARK    4  A    between atoms: C_4  and  C_6
REMARK    5  A    between atoms: C_8  and  N_16
REMARK    6  A    between atoms: C_17  and  C_19
REMARK    7  A    between atoms: C_19  and  S_20
REMARK    8  A    between atoms: S_20  and  C_21
REMARK    9  A    between atoms: N_27  and  N_28
REMARK   10  A    between atoms: C_29  and  C_30
REMARK                            x       y       z     vdW  Elec       q    Type
REMARK                         _______ _______ _______ _____ _____    ______ ____
ROOT
ATOM      1  C   UNL     1      -2.732  -0.237  -3.750  0.00  0.00    +0.168 C 
ENDROOT
BRANCH   1   3
ATOM      2  N   UNL     1      -0.688  -1.617  -3.554  0.00  0.00    -0.301 N 
ATOM      3  C   UNL     1      -1.272  -0.496  -4.023  0.00  0.00    +0.224 C 
ATOM      4  O   UNL     1      -0.624   0.303  -4.664  0.00  0.00    -0.275 OA
ATOM      5  H   UNL     1      -1.206  -2.256  -3.041  0.00  0.00    +0.150 HD
BRANCH   2   7
ATOM      6  C   UNL     1       1.468  -2.353  -2.550  0.00  0.00    +0.155 C 
ATOM      7  C   UNL     1       0.731  -1.869  -3.819  0.00  0.00    +0.153 C 
ATOM      8  S   UNL     1       0.969  -3.363  -4.867  0.00  0.00    -0.106 S 
ATOM      9  C   UNL     1       1.254  -4.549  -3.566  0.00  0.00    -0.013 C 
ATOM     10  C   UNL     1       1.481  -3.868  -2.459  0.00  0.00    -0.044 C 
ATOM     11  C   UNL     1       1.717  -4.861  -1.315  0.00  0.00    +0.033 C 
ATOM     12  C   UNL     1       1.165  -6.208  -1.818  0.00  0.00    +0.009 C 
ATOM     13  C   UNL     1       1.309  -6.041  -3.343  0.00  0.00    +0.042 C 
BRANCH   6  14
ATOM     14  C   UNL     1       0.775  -1.794  -1.334  0.00  0.00    +0.317 C 
ATOM     15  O   UNL     1       0.314  -2.540  -0.504  0.00  0.00    -0.250 OA
BRANCH  14  16
ATOM     16  O   UNL     1       0.671  -0.465  -1.174  0.00  0.00    -0.464 OA
BRANCH  16  18
ATOM     17  C   UNL     1      -0.019   1.526   0.010  0.00  0.00    +0.048 C 
ATOM     18  C   UNL     1       0.002  -0.004   0.002  0.00  0.00    +0.229 C 
ENDBRANCH  16  18
ENDBRANCH  14  16
ENDBRANCH   6  14
ENDBRANCH   2   7
ENDBRANCH   1   3
BRANCH   1  19
ATOM     19  S   UNL     1      -3.217   1.338  -4.507  0.00  0.00    -0.104 S 
BRANCH  19  20
ATOM     20  C   UNL     1      -4.976   1.500  -4.093  0.00  0.00    +0.274 C 
ATOM     21  N   UNL     1      -5.168   1.470  -2.630  0.00  0.00    -0.281 N 
ATOM     22  C   UNL     1      -5.965   0.355  -2.418  0.00  0.00    +0.231 C 
ATOM     23  N   UNL     1      -6.237  -0.238  -3.606  0.00  0.00    -0.116 NA
ATOM     24  N   UNL     1      -5.729   0.334  -4.576  0.00  0.00    -0.150 NA
ATOM     25  N   UNL     1      -6.390  -0.062  -1.245  0.00  0.00    -0.247 N 
ATOM     26  H   UNL     1      -4.818   2.088  -1.969  0.00  0.00    +0.152 HD
ATOM     27  H   UNL     1      -6.946  -0.855  -1.185  0.00  0.00    +0.192 HD
BRANCH  25  28
ATOM     28  N   UNL     1      -6.068   0.583  -0.175  0.00  0.00    -0.179 NA
ATOM     29  C   UNL     1      -6.492   0.168   0.991  0.00  0.00    +0.140 C 
BRANCH  29  30
ATOM     30  C   UNL     1      -6.125   0.902   2.210  0.00  0.00    -0.005 A 
ATOM     31  C   UNL     1      -5.328   2.050   2.127  0.00  0.00    +0.011 A 
ATOM     32  C   UNL     1      -4.989   2.733   3.274  0.00  0.00    +0.020 A 
ATOM     33  C   UNL     1      -5.434   2.287   4.508  0.00  0.00    +0.041 A 
ATOM     34  C   UNL     1      -6.223   1.152   4.599  0.00  0.00    +0.020 A 
ATOM     35  C   UNL     1      -6.576   0.461   3.460  0.00  0.00    +0.011 A 
ATOM     36 CL   UNL     1      -5.000   3.155   5.948  0.00  0.00    -0.084 Cl
ENDBRANCH  29  30
ENDBRANCH  25  28
ENDBRANCH  19  20
ENDBRANCH   1  19
TORSDOF 9
