REMARK  Name = ZINC34762332
REMARK  10 active torsions:
REMARK  status: ('A' for Active; 'I' for Inactive)
REMARK    1  A    between atoms: C_1  and  O_2
REMARK    2  A    between atoms: O_2  and  C_3
REMARK    3  A    between atoms: C_8  and  N_9
REMARK    4  A    between atoms: C_12  and  C_14
REMARK    5  A    between atoms: C_14  and  N_15
REMARK    6  A    between atoms: N_15  and  C_16
REMARK    7  A    between atoms: C_16  and  C_17
REMARK    8  A    between atoms: C_20  and  C_22
REMARK    9  A    between atoms: N_30  and  C_33
REMARK   10  A    between atoms: C_33  and  C_34
REMARK                            x       y       z     vdW  Elec       q    Type
REMARK                         _______ _______ _______ _____ _____    ______ ____
ROOT
ATOM      1  N   UNL     1      -0.245  -3.111  -0.216  0.00  0.00    -0.233 N 
ATOM      2  C   UNL     1      -0.029  -4.423  -0.034  0.00  0.00    +0.045 A 
ATOM      3  C   UNL     1       1.316  -4.629  -0.031  0.00  0.00    -0.018 A 
ATOM      4  C   UNL     1       1.939  -3.400  -0.221  0.00  0.00    +0.082 A 
ATOM      5  N   UNL     1       1.006  -2.484  -0.338  0.00  0.00    -0.169 NA
ATOM      6  C   UNL     1       1.944  -5.987   0.157  0.00  0.00    -0.039 C 
ATOM      7  N   UNL     1       0.933  -6.892   0.729  0.00  0.00    +0.385 N 
ATOM      8  C   UNL     1      -0.290  -6.866  -0.083  0.00  0.00    -0.072 C 
ATOM      9  C   UNL     1      -1.030  -5.538   0.139  0.00  0.00    +0.037 C 
ATOM     10  H   UNL     1       0.716  -6.599   1.670  0.00  0.00    -0.081 HD
ENDROOT
BRANCH   1  16
ATOM     11  C   UNL     1      -1.772  -1.577  -1.303  0.00  0.00    +0.145 A 
ATOM     12  C   UNL     1      -3.012  -0.961  -1.363  0.00  0.00    +0.048 A 
ATOM     13  C   UNL     1      -3.968  -1.236  -0.404  0.00  0.00    +0.004 A 
ATOM     14  C   UNL     1      -3.692  -2.127   0.617  0.00  0.00    +0.002 A 
ATOM     15  C   UNL     1      -2.459  -2.746   0.684  0.00  0.00    +0.031 A 
ATOM     16  C   UNL     1      -1.496  -2.479  -0.278  0.00  0.00    +0.107 A 
BRANCH  11  18
ATOM     17  C   UNL     1      -1.185  -0.373  -3.268  0.00  0.00    +0.277 C 
ATOM     18  O   UNL     1      -0.831  -1.308  -2.246  0.00  0.00    -0.493 OA
ENDBRANCH  11  18
ENDBRANCH   1  16
BRANCH   4  19
ATOM     19  C   UNL     1       3.425  -3.162  -0.286  0.00  0.00    +0.165 C 
BRANCH  19  20
ATOM     20  N   UNL     1       3.878  -3.282  -1.675  0.00  0.00    -0.291 N 
ATOM     21  C   UNL     1       4.275  -4.477  -2.154  0.00  0.00    +0.248 C 
ATOM     22  O   UNL     1       4.188  -5.470  -1.458  0.00  0.00    -0.270 OA
BRANCH  21  23
ATOM     23  C   UNL     1       4.818  -4.581  -3.524  0.00  0.00    +0.055 A 
ATOM     24  C   UNL     1       4.049  -4.175  -4.616  0.00  0.00    +0.014 A 
ATOM     25  C   UNL     1       4.561  -4.274  -5.892  0.00  0.00    +0.001 A 
ATOM     26  C   UNL     1       5.836  -4.774  -6.093  0.00  0.00    +0.001 A 
ATOM     27  C   UNL     1       6.605  -5.179  -5.017  0.00  0.00    +0.021 A 
ATOM     28  C   UNL     1       6.106  -5.080  -3.733  0.00  0.00    +0.053 A 
ATOM     29 CL   UNL     1       7.075  -5.581  -2.382  0.00  0.00    -0.083 Cl
ENDBRANCH  21  23
BRANCH  20  30
ATOM     30  C   UNL     1       3.898  -2.102  -2.543  0.00  0.00    +0.112 C 
BRANCH  30  31
ATOM     31  C   UNL     1       5.300  -1.489  -2.537  0.00  0.00    +0.006 C 
ATOM     32  C   UNL     1       5.451  -0.076  -1.970  0.00  0.00    +0.005 C 
ATOM     33  C   UNL     1       5.559  -0.310  -3.478  0.00  0.00    +0.005 C 
ENDBRANCH  30  31
ENDBRANCH  20  30
ENDBRANCH  19  20
ENDBRANCH   4  19
BRANCH   7  34
ATOM     34  C   UNL     1       1.467  -8.260   0.760  0.00  0.00    -0.051 C 
BRANCH  34  35
ATOM     35  C   UNL     1       0.485  -9.167   1.456  0.00  0.00    -0.053 C 
ATOM     36  C   UNL     1       0.048 -10.245   0.853  0.00  0.00    +0.002 C 
ENDBRANCH  34  35
ENDBRANCH   7  34
TORSDOF 9
