REMARK  Name = ZINC63641797
REMARK  5 active torsions:
REMARK  status: ('A' for Active; 'I' for Inactive)
REMARK    1  A    between atoms: C_1  and  C_2
REMARK    2  A    between atoms: C_7  and  N_8
REMARK    3  A    between atoms: C_9  and  S_34
REMARK    4  A    between atoms: C_12  and  O_33
REMARK    5  A    between atoms: C_14  and  C_18
REMARK                            x       y       z     vdW  Elec       q    Type
REMARK                         _______ _______ _______ _____ _____    ______ ____
ROOT
ATOM      1  N   UNL     1      -0.494   0.194   2.494  0.00  0.00    -0.246 N 
ATOM      2  C   UNL     1      -1.692   0.253   3.323  0.00  0.00    +0.208 C 
ATOM      3  N   UNL     1      -1.335   0.419   4.737  0.00  0.00    -0.264 NA
ATOM      4  C   UNL     1      -0.422   1.561   4.905  0.00  0.00    +0.198 C 
ATOM      5  C   UNL     1       0.927   1.200   4.276  0.00  0.00    +0.138 C 
ATOM      6  C   UNL     1       0.703   0.629   2.903  0.00  0.00    +0.230 C 
ATOM      7  O   UNL     1       1.641   0.566   2.136  0.00  0.00    -0.275 OA
ATOM      8  H   UNL     1      -2.160   0.528   5.308  0.00  0.00    +0.127 HD
ENDROOT
BRANCH   5   9
ATOM      9  C   UNL     1       1.795   2.456   4.175  0.00  0.00    +0.096 C 
ATOM     10  C   UNL     1       1.979   3.069   5.566  0.00  0.00    +0.124 C 
ATOM     11  C   UNL     1       2.702   4.394   5.355  0.00  0.00    -0.036 C 
ATOM     12  C   UNL     1       3.776   4.363   6.132  0.00  0.00    -0.001 A 
ATOM     13  C   UNL     1       4.806   5.373   6.423  0.00  0.00    +0.010 A 
ATOM     14  C   UNL     1       5.795   4.992   7.274  0.00  0.00    +0.001 A 
ATOM     15  C   UNL     1       5.862   3.723   7.857  0.00  0.00    +0.002 A 
ATOM     16  C   UNL     1       4.955   2.735   7.650  0.00  0.00    +0.026 A 
ATOM     17  C   UNL     1       3.864   3.018   6.778  0.00  0.00    +0.043 A 
ATOM     18  N   UNL     1       2.842   2.262   6.427  0.00  0.00    -0.376 N 
ATOM     19  C   UNL     1       2.222   5.406   4.343  0.00  0.00    +0.048 C 
ATOM     20  C   UNL     1       1.965   4.625   3.042  0.00  0.00    +0.085 C 
ATOM     21  N   UNL     1       1.133   3.449   3.314  0.00  0.00    -0.310 NA
ATOM     22  H   UNL     1       0.811   3.026   2.457  0.00  0.00    +0.122 HD
ATOM     23  H   UNL     1       2.685   1.340   6.684  0.00  0.00    +0.160 HD
ENDBRANCH   5   9
BRANCH   1  30
ATOM     24  C   UNL     1      -0.280  -2.630   2.212  0.00  0.00    +0.045 C 
ATOM     25  C   UNL     1      -0.501  -1.725   1.027  0.00  0.00    -0.029 A 
ATOM     26  C   UNL     1      -0.612  -2.261  -0.241  0.00  0.00    +0.005 A 
ATOM     27  C   UNL     1      -0.815  -1.431  -1.328  0.00  0.00    +0.000 A 
ATOM     28  C   UNL     1      -0.908  -0.063  -1.150  0.00  0.00    +0.002 A 
ATOM     29  C   UNL     1      -0.799   0.479   0.115  0.00  0.00    +0.024 A 
ATOM     30  C   UNL     1      -0.600  -0.352   1.210  0.00  0.00    +0.042 A 
ENDBRANCH   1  30
BRANCH   4  31
ATOM     31  O   UNL     1      -0.967   2.712   4.257  0.00  0.00    -0.377 OA
ATOM     32  H   UNL     1      -1.829   2.985   4.599  0.00  0.00    +0.211 HD
ENDBRANCH   4  31
BRANCH   2  33
ATOM     33  S   UNL     1      -2.715   1.656   2.796  0.00  0.00    -0.140 S 
ATOM     34  H   UNL     1      -3.777   1.611   3.620  0.00  0.00    +0.105 HD
ENDBRANCH   2  33
TORSDOF 4
