REMARK  Name = ZINC39231224
REMARK  6 active torsions:
REMARK  status: ('A' for Active; 'I' for Inactive)
REMARK    1  A    between atoms: C_1  and  C_2
REMARK    2  A    between atoms: C_2  and  C_35
REMARK    3  A    between atoms: C_7  and  C_12
REMARK    4  A    between atoms: C_12  and  N_13
REMARK    5  A    between atoms: C_14  and  C_16
REMARK    6  A    between atoms: C_26  and  C_29
REMARK                            x       y       z     vdW  Elec       q    Type
REMARK                         _______ _______ _______ _____ _____    ______ ____
ROOT
ATOM      1  C   UNL     1       4.087   2.756   5.105  0.00  0.00    +0.055 A 
ATOM      2  C   UNL     1       4.045   3.493   6.299  0.00  0.00    +0.018 A 
ATOM      3  C   UNL     1       5.228   3.871   6.875  0.00  0.00    +0.044 A 
ATOM      4  C   UNL     1       6.430   3.517   6.264  0.00  0.00    +0.121 A 
ATOM      5  N   UNL     1       6.442   2.821   5.136  0.00  0.00    -0.240 NA
ATOM      6  C   UNL     1       5.327   2.431   4.553  0.00  0.00    +0.126 A 
ATOM      7  N   UNL     1       7.628   3.899   6.844  0.00  0.00    -0.318 N 
ATOM      8  C   UNL     1       8.908   3.359   6.360  0.00  0.00    +0.087 C 
ATOM      9  C   UNL     1       9.864   4.529   6.106  0.00  0.00    -0.062 C 
ATOM     10  N   UNL     1       9.972   5.345   7.322  0.00  0.00    +0.386 N 
ATOM     11  C   UNL     1       8.672   5.956   7.631  0.00  0.00    -0.023 C 
ATOM     12  C   UNL     1       7.658   4.860   7.957  0.00  0.00    +0.095 C 
ATOM     13  H   UNL     1      10.259   4.760   8.093  0.00  0.00    -0.085 HD
ATOM     14  H   UNL     1      10.658   6.070   7.179  0.00  0.00    -0.085 HD
ENDROOT
BRANCH  11  15
ATOM     15  C   UNL     1       8.819   6.876   8.815  0.00  0.00    -0.060 A 
ATOM     16  C   UNL     1       9.620   6.509   9.880  0.00  0.00    +0.002 A 
ATOM     17  C   UNL     1       9.754   7.353  10.967  0.00  0.00    +0.000 A 
ATOM     18  C   UNL     1       9.088   8.564  10.988  0.00  0.00    +0.000 A 
ATOM     19  C   UNL     1       8.287   8.931   9.923  0.00  0.00    +0.000 A 
ATOM     20  C   UNL     1       8.156   8.089   8.834  0.00  0.00    +0.002 A 
ENDBRANCH  11  15
BRANCH   1  22
ATOM     21  N   UNL     1       2.891   1.613   3.304  0.00  0.00    -0.311 N 
ATOM     22  C   UNL     1       2.839   2.325   4.447  0.00  0.00    +0.246 C 
ATOM     23  O   UNL     1       1.764   2.612   4.937  0.00  0.00    -0.270 OA
ATOM     24  H   UNL     1       3.749   1.383   2.914  0.00  0.00    +0.149 HD
BRANCH  21  25
ATOM     25  C   UNL     1       1.651   1.185   2.651  0.00  0.00    +0.108 C 
BRANCH  25  31
ATOM     26  C   UNL     1      -0.201   2.014   0.064  0.00  0.00    +0.011 C 
ATOM     27  C   UNL     1      -0.070   0.515  -0.192  0.00  0.00    -0.029 C 
ATOM     28  C   UNL     1       1.031   0.119  -1.191  0.00  0.00    -0.005 C 
ATOM     29  C   UNL     1       2.270   1.009  -1.083  0.00  0.00    +0.004 C 
ATOM     30  C   UNL     1       2.676   1.288   0.358  0.00  0.00    +0.005 C 
ATOM     31  C   UNL     1       1.989   0.398   1.381  0.00  0.00    +0.010 C 
ATOM     32  C   UNL     1       0.747  -0.291   0.820  0.00  0.00    -0.000 C 
ATOM     33  C   UNL     1       1.167  -1.180  -0.378  0.00  0.00    +0.008 C 
ATOM     34  C   UNL     1      -1.435  -0.116  -0.519  0.00  0.00    +0.011 C 
ENDBRANCH  25  31
ENDBRANCH  21  25
ENDBRANCH   1  22
TORSDOF 4
