REMARK  Name = ZINC39938515
REMARK  7 active torsions:
REMARK  status: ('A' for Active; 'I' for Inactive)
REMARK    1  A    between atoms: C_1  and  C_2
REMARK    2  A    between atoms: C_3  and  C_27
REMARK    3  A    between atoms: C_4  and  N_15
REMARK    4  A    between atoms: C_7  and  C_9
REMARK    5  A    between atoms: C_16  and  C_18
REMARK    6  A    between atoms: C_18  and  S_19
REMARK    7  A    between atoms: S_19  and  C_20
REMARK                            x       y       z     vdW  Elec       q    Type
REMARK                         _______ _______ _______ _____ _____    ______ ____
ROOT
ATOM      1  C   UNL     1       0.262   1.498  -0.027  0.00  0.00    +0.041 C 
ATOM      2  C   UNL     1       0.130  -0.003  -0.013  0.00  0.00    -0.045 C 
ATOM      3  C   UNL     1      -0.092  -0.667  -1.119  0.00  0.00    +0.045 C 
ATOM      4  C   UNL     1      -0.214  -2.178  -1.041  0.00  0.00    +0.167 C 
ATOM      5  S   UNL     1      -0.431  -2.420   0.775  0.00  0.00    -0.121 S 
ATOM      6  C   UNL     1       0.259  -0.783   1.283  0.00  0.00    +0.104 C 
ENDROOT
BRANCH   3   7
ATOM      7  C   UNL     1      -0.221   0.035  -2.406  0.00  0.00    +0.245 C 
ATOM      8  O   UNL     1      -1.322   0.227  -2.886  0.00  0.00    -0.270 OA
ATOM      9  N   UNL     1       0.880   0.464  -3.053  0.00  0.00    -0.298 N 
ATOM     10  C   UNL     1       2.221   0.136  -2.548  0.00  0.00    +0.108 C 
ATOM     11  C   UNL     1       3.026  -0.518  -3.675  0.00  0.00    +0.019 C 
ATOM     12  C   UNL     1       3.023   0.402  -4.898  0.00  0.00    +0.003 C 
ATOM     13  C   UNL     1       1.586   0.602  -5.385  0.00  0.00    +0.019 C 
ATOM     14  C   UNL     1       0.764   1.263  -4.280  0.00  0.00    +0.108 C 
ENDBRANCH   3   7
BRANCH   6  15
ATOM     15  C   UNL     1      -0.570  -0.161   2.376  0.00  0.00    -0.030 A 
ATOM     16  C   UNL     1      -1.940  -0.046   2.225  0.00  0.00    +0.005 A 
ATOM     17  C   UNL     1      -2.700   0.524   3.228  0.00  0.00    +0.000 A 
ATOM     18  C   UNL     1      -2.092   0.980   4.382  0.00  0.00    +0.000 A 
ATOM     19  C   UNL     1      -0.723   0.864   4.534  0.00  0.00    +0.000 A 
ATOM     20  C   UNL     1       0.037   0.290   3.533  0.00  0.00    +0.005 A 
ENDBRANCH   6  15
BRANCH   4  21
ATOM     21  N   UNL     1       1.006  -2.832  -1.520  0.00  0.00    -0.299 N 
ATOM     22  C   UNL     1       1.539  -3.857  -0.825  0.00  0.00    +0.224 C 
ATOM     23  O   UNL     1       1.008  -4.237   0.197  0.00  0.00    -0.275 OA
ATOM     24  H   UNL     1       1.431  -2.527  -2.337  0.00  0.00    +0.150 HD
BRANCH  22  25
ATOM     25  C   UNL     1       2.794  -4.529  -1.317  0.00  0.00    +0.173 C 
BRANCH  25  26
ATOM     26  S   UNL     1       3.256  -5.860  -0.174  0.00  0.00    -0.075 S 
BRANCH  26  27
ATOM     27  C   UNL     1       4.721  -6.538  -0.879  0.00  0.00    +0.210 A 
ATOM     28  N   UNL     1       5.300  -6.124  -1.981  0.00  0.00    -0.144 NA
ATOM     29  H   UNL     1       7.066  -6.873  -2.909  0.00  0.00    +0.192 HD
ATOM     30  N   UNL     1       6.430  -6.933  -2.179  0.00  0.00    -0.246 N 
ATOM     31  C   UNL     1       6.459  -7.808  -1.152  0.00  0.00    +0.209 A 
ATOM     32  N   UNL     1       5.428  -7.556  -0.374  0.00  0.00    -0.188 NA
ATOM     33  N   UNL     1       7.409  -8.792  -0.950  0.00  0.00    -0.328 N 
ATOM     34  H   UNL     1       8.139  -8.899  -1.579  0.00  0.00    +0.145 HD
ATOM     35  H   UNL     1       7.345  -9.376  -0.178  0.00  0.00    +0.145 HD
ENDBRANCH  26  27
ENDBRANCH  25  26
ENDBRANCH  22  25
ENDBRANCH   4  21
TORSDOF 6
