REMARK  Name = ZINC09980859
REMARK  12 active torsions:
REMARK  status: ('A' for Active; 'I' for Inactive)
REMARK    1  A    between atoms: C_1  and  C_2
REMARK    2  A    between atoms: C_2  and  C_3
REMARK    3  A    between atoms: C_8  and  N_9
REMARK    4  A    between atoms: C_10  and  C_12
REMARK    5  A    between atoms: C_12  and  S_13
REMARK    6  A    between atoms: S_13  and  C_14
REMARK    7  A    between atoms: C_15  and  C_35
REMARK    8  A    between atoms: C_16  and  C_28
REMARK    9  A    between atoms: C_18  and  C_23
REMARK   10  A    between atoms: C_23  and  O_25
REMARK   11  A    between atoms: O_25  and  C_26
REMARK   12  A    between atoms: C_26  and  C_27
REMARK                            x       y       z     vdW  Elec       q    Type
REMARK                         _______ _______ _______ _____ _____    ______ ____
ROOT
ATOM      1  C   UNL     1      -2.950   0.668  -1.198  0.00  0.00    +0.082 C 
ATOM      2  C   UNL     1      -2.150   1.767  -1.198  0.00  0.00    +0.066 C 
ATOM      3  C   UNL     1      -1.369   2.141   0.036  0.00  0.00    +0.086 C 
ATOM      4  C   UNL     1      -2.167   1.755   1.283  0.00  0.00    +0.196 C 
ATOM      5  C   UNL     1      -2.684   0.347   1.133  0.00  0.00    +0.232 C 
ATOM      6  O   UNL     1      -2.731  -0.383   2.100  0.00  0.00    -0.275 OA
ATOM      7  N   UNL     1      -3.094  -0.103  -0.065  0.00  0.00    -0.279 N 
ATOM      8  H   UNL     1      -3.496  -0.984  -0.134  0.00  0.00    +0.155 HD
ENDROOT
BRANCH   3   9
ATOM      9  C   UNL     1      -0.052   1.409   0.037  0.00  0.00    -0.020 A 
ATOM     10  C   UNL     1      -0.028   0.027   0.034  0.00  0.00    +0.006 A 
ATOM     11  C   UNL     1       1.180  -0.643   0.029  0.00  0.00    +0.000 A 
ATOM     12  C   UNL     1       2.366   0.067   0.026  0.00  0.00    +0.001 A 
ATOM     13  C   UNL     1       2.344   1.449   0.029  0.00  0.00    +0.020 A 
ATOM     14  C   UNL     1       1.135   2.121   0.035  0.00  0.00    +0.045 A 
ATOM     15 CL   UNL     1       1.106   3.857   0.038  0.00  0.00    -0.083 Cl
ENDBRANCH   3   9
BRANCH   4  16
ATOM     16  C   UNL     1      -1.275   1.836   2.495  0.00  0.00    +0.320 C 
ATOM     17  O   UNL     1      -0.120   2.169   2.373  0.00  0.00    -0.250 OA
BRANCH  16  18
ATOM     18  O   UNL     1      -1.764   1.539   3.709  0.00  0.00    -0.464 OA
BRANCH  18  19
ATOM     19  C   UNL     1      -0.848   1.639   4.831  0.00  0.00    +0.229 C 
ATOM     20  C   UNL     1      -1.580   1.265   6.122  0.00  0.00    +0.048 C 
ENDBRANCH  18  19
ENDBRANCH  16  18
ENDBRANCH   4  16
BRANCH   2  21
ATOM     21  C   UNL     1      -2.049   2.574  -2.376  0.00  0.00    +0.098 C 
ATOM     22  N   UNL     1      -1.968   3.215  -3.311  0.00  0.00    -0.191 NA
ENDBRANCH   2  21
BRANCH   1  23
ATOM     23  S   UNL     1      -3.816   0.224  -2.667  0.00  0.00    -0.100 S 
BRANCH  23  24
ATOM     24  C   UNL     1      -4.681  -1.257  -2.087  0.00  0.00    +0.171 C 
BRANCH  24  26
ATOM     25  N   UNL     1      -6.245  -2.938  -3.007  0.00  0.00    -0.285 N 
ATOM     26  C   UNL     1      -5.510  -1.827  -3.209  0.00  0.00    +0.227 C 
ATOM     27  O   UNL     1      -5.516  -1.285  -4.294  0.00  0.00    -0.275 OA
ATOM     28  H   UNL     1      -6.178  -3.417  -2.166  0.00  0.00    +0.155 HD
BRANCH  25  34
ATOM     29  C   UNL     1      -7.461  -4.742  -4.054  0.00  0.00    -0.026 A 
ATOM     30  C   UNL     1      -8.309  -5.197  -5.046  0.00  0.00    +0.005 A 
ATOM     31  C   UNL     1      -8.801  -4.318  -5.993  0.00  0.00    +0.000 A 
ATOM     32  C   UNL     1      -8.446  -2.982  -5.951  0.00  0.00    +0.002 A 
ATOM     33  C   UNL     1      -7.603  -2.520  -4.960  0.00  0.00    +0.023 A 
ATOM     34  C   UNL     1      -7.103  -3.402  -4.010  0.00  0.00    +0.037 A 
BRANCH  29  36
ATOM     35  C   UNL     1      -7.814  -5.657  -1.777  0.00  0.00    +0.009 C 
ATOM     36  C   UNL     1      -6.926  -5.701  -3.022  0.00  0.00    +0.033 C 
ENDBRANCH  29  36
ENDBRANCH  25  34
ENDBRANCH  24  26
ENDBRANCH  23  24
ENDBRANCH   1  23
TORSDOF 10
