REMARK  Name = ZINC40013034
REMARK  7 active torsions:
REMARK  status: ('A' for Active; 'I' for Inactive)
REMARK    1  A    between atoms: C_1  and  C_2
REMARK    2  A    between atoms: C_2  and  N_3
REMARK    3  A    between atoms: N_3  and  C_4
REMARK    4  A    between atoms: C_12  and  C_14
REMARK    5  A    between atoms: C_14  and  S_15
REMARK    6  A    between atoms: S_15  and  C_16
REMARK    7  A    between atoms: C_20  and  C_22
REMARK                            x       y       z     vdW  Elec       q    Type
REMARK                         _______ _______ _______ _____ _____    ______ ____
ROOT
ATOM      1  C   UNL     1      -1.365  -0.556   5.341  0.00  0.00    +0.339 C 
ATOM      2  N   UNL     1      -0.937   0.854   5.342  0.00  0.00    -0.219 N 
ATOM      3  N   UNL     1       0.464   0.821   5.308  0.00  0.00    -0.145 NA
ATOM      4  C   UNL     1       0.885  -0.416   5.288  0.00  0.00    +0.238 C 
ATOM      5  O   UNL     1      -0.142  -1.305   5.307  0.00  0.00    -0.443 OA
ATOM      6  H   UNL     1      -1.506   1.639   5.362  0.00  0.00    +0.173 HD
ENDROOT
BRANCH   4   7
ATOM      7  C   UNL     1       2.237  -0.783   5.253  0.00  0.00    +0.043 C 
ATOM      8  C   UNL     1       3.343   0.069   5.240  0.00  0.00    +0.008 A 
ATOM      9  C   UNL     1       3.463   1.474   5.255  0.00  0.00    +0.010 A 
ATOM     10  C   UNL     1       4.695   2.045   5.236  0.00  0.00    +0.001 A 
ATOM     11  C   UNL     1       5.858   1.273   5.200  0.00  0.00    +0.002 A 
ATOM     12  C   UNL     1       5.817  -0.082   5.183  0.00  0.00    +0.026 A 
ATOM     13  C   UNL     1       4.566  -0.750   5.202  0.00  0.00    +0.043 A 
ATOM     14  N   UNL     1       4.261  -2.033   5.192  0.00  0.00    -0.380 N 
ATOM     15  C   UNL     1       2.804  -2.186   5.228  0.00  0.00    +0.154 C 
ATOM     16  H   UNL     1       4.902  -2.761   5.168  0.00  0.00    +0.160 HD
ENDBRANCH   4   7
BRANCH   1  17
ATOM     17  S   UNL     1      -2.367  -0.912   3.871  0.00  0.00    -0.087 S 
BRANCH  17  18
ATOM     18  C   UNL     1      -1.274  -0.497   2.484  0.00  0.00    +0.170 C 
BRANCH  18  20
ATOM     19  N   UNL     1      -1.372  -0.511   0.012  0.00  0.00    -0.296 N 
ATOM     20  C   UNL     1      -1.993  -0.751   1.184  0.00  0.00    +0.226 C 
ATOM     21  O   UNL     1      -3.131  -1.171   1.193  0.00  0.00    -0.275 OA
BRANCH  19  22
ATOM     22  C   UNL     1      -2.072  -0.758  -1.251  0.00  0.00    +0.098 C 
ATOM     23  C   UNL     1      -3.356   0.086  -1.307  0.00  0.00    +0.046 C 
ATOM     24  C   UNL     1      -4.255  -0.397  -2.471  0.00  0.00    +0.168 C 
ATOM     25  S   UNL     1      -3.798  -2.172  -2.623  0.00  0.00    -0.029 S 
ATOM     26  O   UNL     1      -3.220  -2.393  -3.903  0.00  0.00    -0.174 OA
ATOM     27  O   UNL     1      -4.897  -2.970  -2.205  0.00  0.00    -0.174 OA
ATOM     28  C   UNL     1      -2.474  -2.257  -1.345  0.00  0.00    +0.188 C 
ENDBRANCH  19  22
BRANCH  19  30
ATOM     29  C   UNL     1      -0.019   1.526   0.010  0.00  0.00    +0.024 C 
ATOM     30  C   UNL     1       0.002  -0.004   0.002  0.00  0.00    +0.105 C 
ENDBRANCH  19  30
ENDBRANCH  18  20
ENDBRANCH  17  18
ENDBRANCH   1  17
TORSDOF 6
