REMARK  Name = ZINC05772999
REMARK  7 active torsions:
REMARK  status: ('A' for Active; 'I' for Inactive)
REMARK    1  A    between atoms: C_1  and  C_2
REMARK    2  A    between atoms: C_9  and  C_11
REMARK    3  A    between atoms: C_11  and  O_13
REMARK    4  A    between atoms: O_13  and  C_14
REMARK    5  A    between atoms: C_14  and  C_15
REMARK    6  A    between atoms: N_17  and  C_18
REMARK    7  A    between atoms: C_19  and  C_26
REMARK                            x       y       z     vdW  Elec       q    Type
REMARK                         _______ _______ _______ _____ _____    ______ ____
ROOT
ATOM      1  C   UNL     1      -2.257   2.497  -3.496  0.00  0.00    +0.255 C 
ATOM      2  O   UNL     1      -3.300   3.079  -3.285  0.00  0.00    -0.272 OA
ATOM      3  N   UNL     1      -1.504   2.067  -2.463  0.00  0.00    -0.277 N 
ATOM      4  H   UNL     1      -0.670   1.602  -2.632  0.00  0.00    +0.155 HD
ENDROOT
BRANCH   3   5
ATOM      5  C   UNL     1      -1.923   2.290  -1.160  0.00  0.00    +0.084 A 
ATOM      6  C   UNL     1      -1.294   1.929   0.019  0.00  0.00    +0.068 A 
ATOM      7  C   UNL     1      -1.949   2.292   1.275  0.00  0.00    -0.023 A 
ATOM      8  C   UNL     1      -3.116   2.947   1.141  0.00  0.00    -0.004 A 
ATOM      9  S   UNL     1      -3.359   3.086  -0.613  0.00  0.00    -0.077 S 
ATOM     10  C   UNL     1      -3.727   3.290   2.473  0.00  0.00    +0.043 C 
ATOM     11  C   UNL     1      -2.568   3.137   3.483  0.00  0.00    +0.010 C 
ATOM     12  C   UNL     1      -1.659   2.119   2.766  0.00  0.00    +0.037 C 
BRANCH   6  13
ATOM     13  C   UNL     1      -0.014   1.213   0.009  0.00  0.00    +0.244 C 
ATOM     14  O   UNL     1       0.002  -0.004   0.002  0.00  0.00    -0.270 OA
ATOM     15  N   UNL     1       1.143   1.903   0.001  0.00  0.00    -0.325 N 
ATOM     16  H   UNL     1       1.990   1.429  -0.009  0.00  0.00    +0.145 HD
ATOM     17  H   UNL     1       1.130   2.873   0.007  0.00  0.00    +0.145 HD
ENDBRANCH   6  13
ENDBRANCH   3   5
BRANCH   1  18
ATOM     18  C   UNL     1      -1.803   2.255  -4.912  0.00  0.00    +0.328 C 
BRANCH  18  19
ATOM     19  O   UNL     1      -2.778   2.808  -5.835  0.00  0.00    -0.451 OA
BRANCH  19  20
ATOM     20  C   UNL     1      -2.519   2.675  -7.152  0.00  0.00    +0.346 C 
ATOM     21  O   UNL     1      -1.506   2.111  -7.518  0.00  0.00    -0.244 OA
BRANCH  20  29
ATOM     22  C   UNL     1      -5.872   4.263 -13.754  0.00  0.00    +0.008 C 
ATOM     23  C   UNL     1      -5.863   4.060 -12.238  0.00  0.00    -0.009 C 
ATOM     24  C   UNL     1      -6.402   5.319 -11.553  0.00  0.00    +0.009 C 
ATOM     25  C   UNL     1      -6.643   5.010 -10.069  0.00  0.00    +0.043 C 
ATOM     26  C   UNL     1      -5.427   4.323  -9.527  0.00  0.00    -0.006 A 
ATOM     27  C   UNL     1      -4.410   3.760 -10.245  0.00  0.00    -0.036 A 
ATOM     28  C   UNL     1      -3.380   3.183  -9.521  0.00  0.00    +0.026 A 
ATOM     29  C   UNL     1      -3.458   3.208  -8.140  0.00  0.00    +0.097 A 
ATOM     30  S   UNL     1      -5.000   4.069  -7.878  0.00  0.00    -0.086 S 
ATOM     31  C   UNL     1      -4.433   3.785 -11.771  0.00  0.00    +0.039 C 
ENDBRANCH  20  29
ENDBRANCH  19  20
ENDBRANCH  18  19
ENDBRANCH   1  18
TORSDOF 6
