REMARK  Name = ZINC09300509
REMARK  11 active torsions:
REMARK  status: ('A' for Active; 'I' for Inactive)
REMARK    1  A    between atoms: C_1  and  C_2
REMARK    2  A    between atoms: C_2  and  C_3
REMARK    3  A    between atoms: C_6  and  C_9
REMARK    4  A    between atoms: C_11  and  C_15
REMARK    5  A    between atoms: C_12  and  C_14
REMARK    6  A    between atoms: C_15  and  N_65
REMARK    7  A    between atoms: C_18  and  C_21
REMARK    8  A    between atoms: N_23  and  C_24
REMARK    9  A    between atoms: C_24  and  C_26
REMARK   10  A    between atoms: C_24  and  C_27
REMARK   11  A    between atoms: C_27  and  C_28
REMARK                            x       y       z     vdW  Elec       q    Type
REMARK                         _______ _______ _______ _____ _____    ______ ____
ROOT
ATOM      1  C   UNL     1      -0.019   1.526   0.010  0.00  0.00    -0.078 C 
ATOM      2  C   UNL     1       0.002  -0.004   0.002  0.00  0.00    -0.006 C 
ATOM      3  C   UNL     1       0.738  -0.493  -1.249  0.00  0.00    +0.071 C 
ATOM      4  C   UNL     1       2.153   0.091  -1.260  0.00  0.00    -0.006 C 
ATOM      5  C   UNL     1       2.070   1.619  -1.215  0.00  0.00    -0.078 C 
ATOM      6  N   UNL     1       1.373   2.025   0.024  0.00  0.00    +0.383 N 
ATOM      7  H   UNL     1       1.864   1.620   0.830  0.00  0.00    -0.081 HD
ENDROOT
BRANCH   3   8
ATOM      8  C   UNL     1       0.814  -1.998  -1.233  0.00  0.00    +0.216 C 
ATOM      9  O   UNL     1       0.328  -2.620  -0.312  0.00  0.00    -0.276 OA
ATOM     10  N   UNL     1       1.421  -2.653  -2.241  0.00  0.00    -0.312 N 
ATOM     11  H   UNL     1       1.810  -2.155  -2.978  0.00  0.00    +0.149 HD
BRANCH  10  12
ATOM     12  C   UNL     1       1.496  -4.116  -2.226  0.00  0.00    +0.077 C 
ATOM     13  C   UNL     1       2.709  -4.556  -1.404  0.00  0.00    +0.028 C 
BRANCH  12  14
ATOM     14  C   UNL     1       1.634  -4.635  -3.658  0.00  0.00    +0.096 C 
BRANCH  14  15
ATOM     15  C   UNL     1       0.385  -4.307  -4.434  0.00  0.00    +0.107 A 
ATOM     16  C   UNL     1       0.168  -3.182  -5.138  0.00  0.00    +0.045 A 
ATOM     17  C   UNL     1      -1.123  -3.294  -5.703  0.00  0.00    +0.041 A 
ATOM     18  C   UNL     1      -1.621  -4.478  -5.304  0.00  0.00    +0.195 A 
ATOM     19  O   UNL     1      -0.704  -5.087  -4.536  0.00  0.00    -0.468 OA
ENDBRANCH  14  15
ENDBRANCH  12  14
ENDBRANCH  10  12
ENDBRANCH   3   8
BRANCH   6  20
ATOM     20  C   UNL     1       1.380   3.497   0.147  0.00  0.00    -0.019 C 
BRANCH  20  23
ATOM     21  C   UNL     1       4.805   4.649   0.009  0.00  0.00    +0.228 A 
ATOM     22  N   UNL     1       3.679   4.305  -0.571  0.00  0.00    -0.216 NA
ATOM     23  C   UNL     1       2.796   3.958   0.378  0.00  0.00    +0.066 A 
ATOM     24  C   UNL     1       3.399   4.099   1.573  0.00  0.00    +0.124 A 
ATOM     25  O   UNL     1       4.655   4.526   1.340  0.00  0.00    -0.440 OA
ATOM     26  C   UNL     1       2.783   3.827   2.922  0.00  0.00    +0.088 C 
BRANCH  21  30
ATOM     27  C   UNL     1       8.329   5.935  -1.982  0.00  0.00    -0.048 A 
ATOM     28  C   UNL     1       8.309   5.853  -0.601  0.00  0.00    +0.004 A 
ATOM     29  C   UNL     1       7.168   5.436   0.052  0.00  0.00    +0.013 A 
ATOM     30  C   UNL     1       6.031   5.097  -0.684  0.00  0.00    +0.037 A 
ATOM     31  C   UNL     1       6.059   5.177  -2.077  0.00  0.00    +0.013 A 
ATOM     32  C   UNL     1       7.206   5.600  -2.717  0.00  0.00    +0.004 A 
BRANCH  27  34
ATOM     33  C   UNL     1      10.459   5.178  -3.003  0.00  0.00    +0.009 C 
ATOM     34  C   UNL     1       9.580   6.391  -2.689  0.00  0.00    +0.032 C 
ENDBRANCH  27  34
ENDBRANCH  21  30
ENDBRANCH  20  23
ENDBRANCH   6  20
TORSDOF 8
