REMARK  Name = ZINC13033751
REMARK  8 active torsions:
REMARK  status: ('A' for Active; 'I' for Inactive)
REMARK    1  A    between atoms: C_12  and  C_13
REMARK    2  A    between atoms: C_13  and  N_65
REMARK    3  A    between atoms: C_14  and  C_15
REMARK    4  A    between atoms: C_14  and  N_65
REMARK    5  A    between atoms: N_19  and  C_20
REMARK    6  A    between atoms: C_20  and  C_21
REMARK    7  A    between atoms: C_27  and  C_28
REMARK    8  A    between atoms: C_27  and  N_65
REMARK                            x       y       z     vdW  Elec       q    Type
REMARK                         _______ _______ _______ _____ _____    ______ ____
ROOT
ATOM      1  N   UNL     1       3.801  -0.926   1.361  0.00  0.00    +0.389 N 
ATOM      2  H   UNL     1       3.735  -0.119   1.992  0.00  0.00    -0.081 HD
ENDROOT
BRANCH   1   3
ATOM      3  C   UNL     1       3.476  -0.489  -0.013  0.00  0.00    -0.037 C 
BRANCH   3  15
ATOM      4  C   UNL     1       2.147   1.600   0.123  0.00  0.00    +0.017 A 
ATOM      5  C   UNL     1       0.855   2.286   0.143  0.00  0.00    +0.002 A 
ATOM      6  C   UNL     1       0.778   3.679   0.258  0.00  0.00    +0.059 A 
ATOM      7  C   UNL     1      -0.454   4.298   0.275  0.00  0.00    +0.163 A 
ATOM      8  C   UNL     1      -1.624   3.539   0.175  0.00  0.00    +0.164 A 
ATOM      9  C   UNL     1      -1.558   2.161   0.067  0.00  0.00    +0.075 A 
ATOM     10  C   UNL     1      -0.325   1.523   0.043  0.00  0.00    +0.053 A 
ATOM     11  N   UNL     1      -0.240   0.150  -0.070  0.00  0.00    -0.322 N 
ATOM     12  H   UNL     1      -1.052  -0.375  -0.139  0.00  0.00    +0.169 HD
ATOM     13  C   UNL     1       0.953  -0.471  -0.087  0.00  0.00    +0.251 A 
ATOM     14  O   UNL     1       0.990  -1.685  -0.188  0.00  0.00    -0.268 OA
ATOM     15  C   UNL     1       2.162   0.247   0.010  0.00  0.00    +0.001 A 
ATOM     16  O   UNL     1      -2.844   4.143   0.186  0.00  0.00    -0.485 OA
ATOM     17  C   UNL     1      -2.893   5.486   0.679  0.00  0.00    +0.270 C 
ATOM     18  C   UNL     1      -1.749   6.278   0.032  0.00  0.00    +0.270 C 
ATOM     19  O   UNL     1      -0.512   5.654   0.391  0.00  0.00    -0.485 OA
ENDBRANCH   3  15
ENDBRANCH   1   3
BRANCH   1  20
ATOM     20  C   UNL     1       5.179  -1.460   1.409  0.00  0.00    +0.001 C 
BRANCH  20  21
ATOM     21  C   UNL     1       6.147  -0.307   1.343  0.00  0.00    +0.135 A 
ATOM     22  N   UNL     1       6.734   0.161   0.269  0.00  0.00    -0.115 NA
ATOM     23  N   UNL     1       7.484   1.148   0.623  0.00  0.00    -0.023 NA
ATOM     24  N   UNL     1       7.396   1.316   1.896  0.00  0.00    -0.044 NA
ATOM     25  N   UNL     1       6.581   0.439   2.376  0.00  0.00    -0.229 N 
BRANCH  25  26
ATOM     26  C   UNL     1       6.200   0.283   3.782  0.00  0.00    +0.178 C 
BRANCH  26  27
ATOM     27  C   UNL     1       7.235  -0.587   4.498  0.00  0.00    +0.140 C 
ATOM     28  C   UNL     1       6.782  -0.852   5.950  0.00  0.00    +0.035 C 
ATOM     29  C   UNL     1       8.120  -0.759   6.734  0.00  0.00    +0.031 C 
ATOM     30  C   UNL     1       8.861   0.333   5.923  0.00  0.00    +0.160 C 
ATOM     31  O   UNL     1       8.491   0.101   4.555  0.00  0.00    -0.375 OA
ENDBRANCH  26  27
ENDBRANCH  25  26
ENDBRANCH  20  21
ENDBRANCH   1  20
BRANCH   1  32
ATOM     32  C   UNL     1       2.843  -1.961   1.802  0.00  0.00    -0.046 C 
BRANCH  32  33
ATOM     33  C   UNL     1       3.086  -2.260   3.283  0.00  0.00    +0.102 C 
ATOM     34  C   UNL     1       2.061  -3.302   3.782  0.00  0.00    +0.032 C 
ATOM     35  C   UNL     1       1.722  -2.773   5.204  0.00  0.00    +0.030 C 
ATOM     36  C   UNL     1       1.821  -1.243   4.982  0.00  0.00    +0.160 C 
ATOM     37  O   UNL     1       2.905  -1.068   4.056  0.00  0.00    -0.378 OA
ENDBRANCH  32  33
ENDBRANCH   1  32
TORSDOF 8
