REMARK  Name = ZINC38193368
REMARK  7 active torsions:
REMARK  status: ('A' for Active; 'I' for Inactive)
REMARK    1  A    between atoms: C_1  and  O_2
REMARK    2  A    between atoms: O_2  and  C_3
REMARK    3  A    between atoms: C_3  and  C_5
REMARK    4  A    between atoms: C_7  and  C_17
REMARK    5  A    between atoms: C_9  and  C_15
REMARK    6  A    between atoms: C_10  and  N_14
REMARK    7  A    between atoms: C_12  and  N_13
REMARK                            x       y       z     vdW  Elec       q    Type
REMARK                         _______ _______ _______ _____ _____    ______ ____
ROOT
ATOM      1  C   UNL     1      -1.247  -2.033   0.009  0.00  0.00    +0.076 C 
ATOM      2  C   UNL     1       0.043  -2.762  -0.121  0.00  0.00    +0.101 C 
ATOM      3  C   UNL     1       0.033  -4.160   0.386  0.00  0.00    +0.069 C 
ATOM      4  C   UNL     1      -1.053  -4.943   0.531  0.00  0.00    +0.079 C 
ATOM      5  S   UNL     1      -2.667  -4.359   0.139  0.00  0.00    -0.058 S 
ATOM      6  C   UNL     1      -2.476  -2.609   0.123  0.00  0.00    +0.076 C 
ENDROOT
BRANCH   2   7
ATOM      7  C   UNL     1       0.424  -2.794  -1.579  0.00  0.00    -0.034 A 
ATOM      8  C   UNL     1      -0.417  -3.390  -2.500  0.00  0.00    +0.007 A 
ATOM      9  C   UNL     1      -0.068  -3.419  -3.837  0.00  0.00    +0.038 A 
ATOM     10  C   UNL     1       1.124  -2.850  -4.254  0.00  0.00    +0.123 A 
ATOM     11  C   UNL     1       1.965  -2.253  -3.330  0.00  0.00    +0.038 A 
ATOM     12  C   UNL     1       1.612  -2.221  -1.994  0.00  0.00    +0.007 A 
ATOM     13  F   UNL     1       1.466  -2.878  -5.561  0.00  0.00    -0.205 F 
ENDBRANCH   2   7
BRANCH   6  15
ATOM     14  H   UNL     1      -3.502  -0.848   0.133  0.00  0.00    +0.143 HD
ATOM     15  N   UNL     1      -3.587  -1.810   0.221  0.00  0.00    -0.352 N 
ATOM     16  H   UNL     1      -4.457  -2.207   0.380  0.00  0.00    +0.143 HD
ENDBRANCH   6  15
BRANCH   4  17
ATOM     17  N   UNL     1      -0.898  -6.228   0.994  0.00  0.00    -0.352 N 
ATOM     18  H   UNL     1      -0.014  -6.561   1.214  0.00  0.00    +0.143 HD
ATOM     19  H   UNL     1      -1.673  -6.802   1.103  0.00  0.00    +0.143 HD
ENDBRANCH   4  17
BRANCH   1  20
ATOM     20  C   UNL     1      -1.192  -0.634   0.022  0.00  0.00    +0.338 C 
ATOM     21  O   UNL     1      -0.869  -0.046   1.040  0.00  0.00    -0.245 OA
BRANCH  20  23
ATOM     22  C   UNL     1      -1.420   1.489  -1.008  0.00  0.00    +0.280 C 
ATOM     23  O   UNL     1      -1.497   0.065  -1.093  0.00  0.00    -0.465 OA
ENDBRANCH  20  23
ENDBRANCH   1  20
BRANCH   3  24
ATOM     24  C   UNL     1       1.296  -4.725   0.756  0.00  0.00    +0.098 C 
ATOM     25  N   UNL     1       2.298  -5.173   1.049  0.00  0.00    -0.191 NA
ENDBRANCH   3  24
TORSDOF 6
