REMARK  Name = ZINC12017263
REMARK  8 active torsions:
REMARK  status: ('A' for Active; 'I' for Inactive)
REMARK    1  A    between atoms: C_1  and  C_2
REMARK    2  A    between atoms: C_2  and  O_3
REMARK    3  A    between atoms: O_3  and  C_4
REMARK    4  A    between atoms: C_4  and  C_6
REMARK    5  A    between atoms: C_10  and  N_11
REMARK    6  A    between atoms: C_16  and  C_30
REMARK    7  A    between atoms: N_18  and  C_24
REMARK    8  A    between atoms: C_33  and  C_36
REMARK                            x       y       z     vdW  Elec       q    Type
REMARK                         _______ _______ _______ _____ _____    ______ ____
ROOT
ATOM      1  N   UNL     1      -3.032  -2.522   2.502  0.00  0.00    -0.201 N 
ATOM      2  C   UNL     1      -3.790  -2.756   3.621  0.00  0.00    +0.235 C 
ATOM      3  O   UNL     1      -4.848  -3.345   3.686  0.00  0.00    -0.274 OA
ATOM      4  C   UNL     1      -3.053  -2.148   4.702  0.00  0.00    +0.145 C 
ATOM      5  C   UNL     1      -2.930  -2.228   6.166  0.00  0.00    +0.157 C 
ATOM      6  N   UNL     1      -1.555  -1.681   6.401  0.00  0.00    -0.244 N 
ATOM      7  O   UNL     1      -0.967  -1.411   5.108  0.00  0.00    -0.257 OA
ATOM      8  C   UNL     1      -1.558  -2.407   4.255  0.00  0.00    +0.249 C 
ATOM      9  C   UNL     1      -1.771  -2.091   2.800  0.00  0.00    +0.259 C 
ATOM     10  O   UNL     1      -0.984  -1.560   2.047  0.00  0.00    -0.272 OA
ENDROOT
BRANCH   1  15
ATOM     11  C   UNL     1      -3.373  -3.837   0.410  0.00  0.00    +0.091 A 
ATOM     12  C   UNL     1      -3.954  -3.780  -0.920  0.00  0.00    -0.021 A 
ATOM     13  C   UNL     1      -4.545  -2.602  -1.214  0.00  0.00    -0.004 A 
ATOM     14  S   UNL     1      -4.329  -1.616   0.238  0.00  0.00    -0.077 S 
ATOM     15  C   UNL     1      -3.495  -2.708   1.204  0.00  0.00    +0.096 A 
ATOM     16  C   UNL     1      -5.228  -2.233  -2.495  0.00  0.00    +0.043 C 
ATOM     17  C   UNL     1      -4.829  -3.259  -3.567  0.00  0.00    +0.005 C 
ATOM     18  C   UNL     1      -4.992  -4.668  -2.990  0.00  0.00    +0.005 C 
ATOM     19  C   UNL     1      -3.923  -4.922  -1.925  0.00  0.00    +0.037 C 
BRANCH  11  20
ATOM     20  C   UNL     1      -2.692  -5.041   0.894  0.00  0.00    +0.342 C 
ATOM     21  O   UNL     1      -3.322  -5.905   1.474  0.00  0.00    -0.245 OA
BRANCH  20  22
ATOM     22  O   UNL     1      -1.366  -5.191   0.697  0.00  0.00    -0.461 OA
BRANCH  22  24
ATOM     23  C   UNL     1       0.730  -6.380   0.880  0.00  0.00    +0.048 C 
ATOM     24  C   UNL     1      -0.767  -6.389   1.195  0.00  0.00    +0.229 C 
ENDBRANCH  22  24
ENDBRANCH  20  22
ENDBRANCH  11  20
ENDBRANCH   1  15
BRANCH   5  25
ATOM     25  C   UNL     1      -3.973  -1.375   6.840  0.00  0.00    -0.022 A 
ATOM     26  C   UNL     1      -3.786  -0.009   6.945  0.00  0.00    +0.006 A 
ATOM     27  C   UNL     1      -4.743   0.774   7.563  0.00  0.00    +0.004 A 
ATOM     28  C   UNL     1      -5.888   0.192   8.075  0.00  0.00    -0.050 A 
ATOM     29  C   UNL     1      -6.075  -1.174   7.968  0.00  0.00    +0.004 A 
ATOM     30  C   UNL     1      -5.120  -1.956   7.347  0.00  0.00    +0.006 A 
ATOM     31  C   UNL     1      -6.931   1.045   8.749  0.00  0.00    +0.044 C 
ENDBRANCH   5  25
BRANCH   6  32
ATOM     32  C   UNL     1      -0.951  -1.471   7.643  0.00  0.00    +0.065 A 
ATOM     33  C   UNL     1      -1.635  -1.782   8.811  0.00  0.00    +0.028 A 
ATOM     34  C   UNL     1      -1.035  -1.573  10.037  0.00  0.00    +0.002 A 
ATOM     35  C   UNL     1       0.245  -1.054  10.102  0.00  0.00    +0.000 A 
ATOM     36  C   UNL     1       0.929  -0.742   8.941  0.00  0.00    +0.002 A 
ATOM     37  C   UNL     1       0.337  -0.954   7.712  0.00  0.00    +0.028 A 
ENDBRANCH   6  32
TORSDOF 6
