REMARK  Name = ZINC22015680
REMARK  7 active torsions:
REMARK  status: ('A' for Active; 'I' for Inactive)
REMARK    1  A    between atoms: C_2  and  C_3
REMARK    2  A    between atoms: C_3  and  N_4
REMARK    3  A    between atoms: C_5  and  C_7
REMARK    4  A    between atoms: C_7  and  N_8
REMARK    5  A    between atoms: N_11  and  C_14
REMARK    6  A    between atoms: C_17  and  C_23
REMARK    7  A    between atoms: C_19  and  N_20
REMARK                            x       y       z     vdW  Elec       q    Type
REMARK                         _______ _______ _______ _____ _____    ______ ____
ROOT
ATOM      1  N   UNL     1      -0.493   1.611   1.094  0.00  0.00    +0.387 N 
ATOM      2  C   UNL     1       0.509   1.549   0.021  0.00  0.00    -0.059 C 
ATOM      3  C   UNL     1      -0.062   2.193  -1.245  0.00  0.00    +0.086 C 
ATOM      4  N   UNL     1      -0.436   3.585  -0.958  0.00  0.00    -0.332 N 
ATOM      5  C   UNL     1      -1.438   3.647   0.115  0.00  0.00    +0.086 C 
ATOM      6  C   UNL     1      -0.868   3.003   1.381  0.00  0.00    -0.059 C 
ATOM      7  H   UNL     1      -1.394   1.081   0.749  0.00  0.00    -0.081 HD
ENDROOT
BRANCH   4   8
ATOM      8  C   UNL     1      -0.895   4.228  -2.110  0.00  0.00    +0.062 A 
ATOM      9  C   UNL     1      -2.070   3.808  -2.720  0.00  0.00    +0.046 A 
ATOM     10  C   UNL     1      -2.521   4.447  -3.859  0.00  0.00    +0.054 A 
ATOM     11  C   UNL     1      -1.803   5.503  -4.392  0.00  0.00    +0.075 A 
ATOM     12  C   UNL     1      -0.633   5.922  -3.787  0.00  0.00    +0.048 A 
ATOM     13  C   UNL     1      -0.180   5.292  -2.644  0.00  0.00    +0.148 A 
ATOM     14 CL   UNL     1      -3.990   3.924  -4.623  0.00  0.00    -0.083 Cl
BRANCH  11  15
ATOM     15  C   UNL     1      -2.297   6.198  -5.635  0.00  0.00    +0.419 C 
ATOM     16  F   UNL     1      -1.411   7.224  -5.979  0.00  0.00    -0.166 F 
ATOM     17  F   UNL     1      -2.373   5.276  -6.685  0.00  0.00    -0.166 F 
ATOM     18  F   UNL     1      -3.565   6.737  -5.394  0.00  0.00    -0.166 F 
ENDBRANCH  11  15
BRANCH  13  19
ATOM     19  N   UNL     1       1.069   5.747  -1.993  0.00  0.00    +0.058 N 
ATOM     20  O   UNL     1       1.747   6.614  -2.515  0.00  0.00    -0.126 OA
ATOM     21  O   UNL     1       1.419   5.253  -0.936  0.00  0.00    -0.126 OA
ENDBRANCH  13  19
ENDBRANCH   4   8
BRANCH   1  22
ATOM     22  C   UNL     1      -0.010   0.935   2.305  0.00  0.00    +0.019 C 
BRANCH  22  24
ATOM     23  N   UNL     1       0.584  -1.363   3.001  0.00  0.00    -0.313 N 
ATOM     24  C   UNL     1       0.128  -0.541   2.035  0.00  0.00    +0.197 C 
ATOM     25  O   UNL     1      -0.171  -0.990   0.948  0.00  0.00    -0.278 OA
ATOM     26  H   UNL     1       0.855  -0.957   3.986  0.00  0.00    +0.149 HD
BRANCH  23  27
ATOM     27  C   UNL     1       0.719  -2.798   2.738  0.00  0.00    +0.131 C 
BRANCH  27  29
ATOM     28  C   UNL     1       0.586  -4.494   4.490  0.00  0.00    +0.005 C 
ATOM     29  C   UNL     1       1.245  -3.487   3.971  0.00  0.00    -0.016 C 
ENDBRANCH  27  29
ENDBRANCH  23  27
ENDBRANCH  22  24
ENDBRANCH   1  22
TORSDOF 7
