REMARK  Name = ZINC59795164
REMARK  11 active torsions:
REMARK  status: ('A' for Active; 'I' for Inactive)
REMARK    1  A    between atoms: C_1  and  C_2
REMARK    2  A    between atoms: C_2  and  O_3
REMARK    3  A    between atoms: O_3  and  C_4
REMARK    4  A    between atoms: C_4  and  C_6
REMARK    5  A    between atoms: C_10  and  N_11
REMARK    6  A    between atoms: C_12  and  C_14
REMARK    7  A    between atoms: C_14  and  C_15
REMARK    8  A    between atoms: C_15  and  S_16
REMARK    9  A    between atoms: S_16  and  C_17
REMARK   10  A    between atoms: C_20  and  C_23
REMARK   11  A    between atoms: N_21  and  N_22
REMARK                            x       y       z     vdW  Elec       q    Type
REMARK                         _______ _______ _______ _____ _____    ______ ____
ROOT
ATOM      1  N   UNL     1      -3.033  -2.524   2.498  0.00  0.00    -0.279 N 
ATOM      2  C   UNL     1      -3.808  -2.867   3.546  0.00  0.00    +0.218 C 
ATOM      3  O   UNL     1      -4.910  -3.337   3.357  0.00  0.00    -0.275 OA
ATOM      4  H   UNL     1      -2.152  -2.147   2.650  0.00  0.00    +0.155 HD
ENDROOT
BRANCH   1   9
ATOM      5  C   UNL     1      -2.842  -2.416   0.016  0.00  0.00    +0.091 A 
ATOM      6  C   UNL     1      -3.548  -2.714  -1.219  0.00  0.00    -0.021 A 
ATOM      7  C   UNL     1      -4.777  -3.242  -1.039  0.00  0.00    -0.004 A 
ATOM      8  S   UNL     1      -4.974  -3.335   0.716  0.00  0.00    -0.077 S 
ATOM      9  C   UNL     1      -3.495  -2.708   1.205  0.00  0.00    +0.086 A 
ATOM     10  C   UNL     1      -5.745  -3.651  -2.106  0.00  0.00    +0.043 C 
ATOM     11  C   UNL     1      -5.287  -3.033  -3.435  0.00  0.00    +0.005 C 
ATOM     12  C   UNL     1      -3.790  -3.300  -3.616  0.00  0.00    +0.005 C 
ATOM     13  C   UNL     1      -2.988  -2.468  -2.612  0.00  0.00    +0.037 C 
BRANCH   5  14
ATOM     14  C   UNL     1      -1.497  -1.838   0.006  0.00  0.00    +0.342 C 
ATOM     15  O   UNL     1      -0.523  -2.566  -0.007  0.00  0.00    -0.245 OA
BRANCH  14  16
ATOM     16  O   UNL     1      -1.339  -0.499   0.012  0.00  0.00    -0.461 OA
BRANCH  16  18
ATOM     17  C   UNL     1      -0.019   1.526   0.010  0.00  0.00    +0.048 C 
ATOM     18  C   UNL     1       0.002  -0.004   0.002  0.00  0.00    +0.229 C 
ENDBRANCH  16  18
ENDBRANCH  14  16
ENDBRANCH   5  14
ENDBRANCH   1   9
BRANCH   2  19
ATOM     19  C   UNL     1      -3.306  -2.666   4.953  0.00  0.00    +0.107 C 
BRANCH  19  20
ATOM     20  C   UNL     1      -4.372  -3.133   5.946  0.00  0.00    +0.086 C 
BRANCH  20  21
ATOM     21  S   UNL     1      -3.767  -2.891   7.639  0.00  0.00    -0.084 S 
BRANCH  21  22
ATOM     22  C   UNL     1      -5.090  -3.469   8.651  0.00  0.00    +0.209 A 
ATOM     23  N   UNL     1      -6.234  -3.962   8.232  0.00  0.00    -0.121 NA
ATOM     24  N   UNL     1      -6.968  -4.286   9.235  0.00  0.00    -0.127 NA
ATOM     25  C   UNL     1      -6.339  -4.020  10.356  0.00  0.00    +0.182 A 
ATOM     26  N   UNL     1      -5.114  -3.494  10.016  0.00  0.00    -0.224 N 
BRANCH  25  27
ATOM     27  C   UNL     1      -6.848  -4.249  11.725  0.00  0.00    +0.021 A 
ATOM     28  C   UNL     1      -6.225  -3.639  12.815  0.00  0.00    +0.013 A 
ATOM     29  C   UNL     1      -6.705  -3.856  14.090  0.00  0.00    +0.021 A 
ATOM     30  C   UNL     1      -7.801  -4.677  14.290  0.00  0.00    +0.041 A 
ATOM     31  C   UNL     1      -8.423  -5.286  13.212  0.00  0.00    +0.021 A 
ATOM     32  C   UNL     1      -7.957  -5.071  11.932  0.00  0.00    +0.013 A 
ATOM     33 CL   UNL     1      -8.399  -4.946  15.897  0.00  0.00    -0.084 Cl
ENDBRANCH  25  27
BRANCH  26  34
ATOM     34  N   UNL     1      -4.129  -3.079  10.867  0.00  0.00    -0.295 N 
ATOM     35  H   UNL     1      -4.240  -2.104  11.101  0.00  0.00    +0.163 HD
ATOM     36  H   UNL     1      -4.106  -3.651  11.698  0.00  0.00    +0.163 HD
ENDBRANCH  26  34
ENDBRANCH  21  22
ENDBRANCH  20  21
ENDBRANCH  19  20
ENDBRANCH   2  19
TORSDOF 10
