REMARK  Name = ZINC03900817
REMARK  8 active torsions:
REMARK  status: ('A' for Active; 'I' for Inactive)
REMARK    1  A    between atoms: C_1  and  C_2
REMARK    2  A    between atoms: C_17  and  C_28
REMARK    3  A    between atoms: C_22  and  C_23
REMARK    4  A    between atoms: C_22  and  O_27
REMARK    5  A    between atoms: C_23  and  N_63
REMARK    6  A    between atoms: C_24  and  C_25
REMARK    7  A    between atoms: C_24  and  N_63
REMARK    8  A    between atoms: C_25  and  O_26
REMARK                            x       y       z     vdW  Elec       q    Type
REMARK                         _______ _______ _______ _____ _____    ______ ____
ROOT
ATOM      1  C   UNL     1      -0.670   1.766  -1.433  0.00  0.00    +0.012 C 
ATOM      2  C   UNL     1      -0.096   1.448  -0.044  0.00  0.00    -0.026 C 
ATOM      3  C   UNL     1      -0.101  -0.063  -0.047  0.00  0.00    +0.007 C 
ATOM      4  C   UNL     1       1.214  -0.691   0.391  0.00  0.00    +0.001 C 
ATOM      5  C   UNL     1       2.312  -0.067  -0.488  0.00  0.00    +0.000 C 
ATOM      6  C   UNL     1       2.484   1.365  -0.008  0.00  0.00    +0.004 C 
ATOM      7  C   UNL     1       1.201   2.184  -0.081  0.00  0.00    -0.005 C 
ATOM      8  C   UNL     1       1.405   3.399   0.805  0.00  0.00    +0.004 C 
ATOM      9  C   UNL     1       0.161   3.934   1.500  0.00  0.00    +0.004 C 
ATOM     10  C   UNL     1      -0.560   2.708   2.072  0.00  0.00    -0.004 C 
ATOM     11  C   UNL     1      -1.185   2.019   0.851  0.00  0.00    -0.001 C 
ATOM     12  C   UNL     1      -2.213   1.004   1.326  0.00  0.00    +0.005 C 
ATOM     13  C   UNL     1      -3.437   1.734   1.910  0.00  0.00    +0.010 C 
ATOM     14  C   UNL     1      -3.035   3.023   2.577  0.00  0.00    -0.002 C 
ATOM     15  C   UNL     1      -1.591   2.994   3.103  0.00  0.00    +0.001 C 
ATOM     16  C   UNL     1      -1.491   4.293   3.904  0.00  0.00    +0.007 C 
ATOM     17  C   UNL     1      -2.898   4.447   4.542  0.00  0.00    +0.034 C 
ATOM     18  C   UNL     1      -3.809   3.390   3.860  0.00  0.00    +0.057 C 
ATOM     19  C   UNL     1      -3.236   4.197   1.599  0.00  0.00    +0.014 C 
ENDROOT
BRANCH  18  20
ATOM     20  O   UNL     1      -5.063   3.973   3.509  0.00  0.00    -0.390 OA
ATOM     21  H   UNL     1      -5.604   4.229   4.268  0.00  0.00    +0.210 HD
ENDBRANCH  18  20
BRANCH  18  22
ATOM     22  C   UNL     1      -4.003   2.193   4.784  0.00  0.00    -0.047 C 
BRANCH  22  23
ATOM     23  N   UNL     1      -4.748   2.623   5.982  0.00  0.00    +0.382 N 
ATOM     24  H   UNL     1      -5.662   2.995   5.697  0.00  0.00    -0.086 HD
ATOM     25  H   UNL     1      -4.216   3.355   6.467  0.00  0.00    -0.086 HD
BRANCH  23  26
ATOM     26  C   UNL     1      -4.951   1.483   6.896  0.00  0.00    -0.054 C 
BRANCH  26  27
ATOM     27  C   UNL     1      -5.725   1.958   8.127  0.00  0.00    +0.137 C 
BRANCH  27  28
ATOM     28  O   UNL     1      -7.036   2.371   7.736  0.00  0.00    -0.397 OA
ATOM     29  H   UNL     1      -7.584   2.686   8.467  0.00  0.00    +0.209 HD
ENDBRANCH  27  28
ENDBRANCH  26  27
ENDBRANCH  23  26
ENDBRANCH  22  23
ENDBRANCH  18  22
TORSDOF 6
