REMARK  Name = ZINC13023766
REMARK  11 active torsions:
REMARK  status: ('A' for Active; 'I' for Inactive)
REMARK    1  A    between atoms: C_1  and  C_2
REMARK    2  A    between atoms: C_2  and  C_3
REMARK    3  A    between atoms: C_3  and  C_4
REMARK    4  A    between atoms: C_3  and  C_5
REMARK    5  A    between atoms: C_3  and  N_6
REMARK    6  A    between atoms: C_7  and  C_9
REMARK    7  A    between atoms: C_9  and  C_11
REMARK    8  A    between atoms: C_9  and  N_17
REMARK    9  A    between atoms: N_17  and  C_18
REMARK   10  A    between atoms: C_26  and  C_28
REMARK   11  A    between atoms: C_28  and  N_29
REMARK                            x       y       z     vdW  Elec       q    Type
REMARK                         _______ _______ _______ _____ _____    ______ ____
ROOT
ATOM      1  N   UNL     1      -2.573   3.064   1.972  0.00  0.00    -0.254 N 
ATOM      2  C   UNL     1      -1.269   3.168   1.647  0.00  0.00    +0.242 C 
ATOM      3  O   UNL     1      -0.543   3.904   2.280  0.00  0.00    -0.273 OA
ENDROOT
BRANCH   1   4
ATOM      4  C   UNL     1      -3.388   2.138   1.311  0.00  0.00    +0.039 A 
ATOM      5  C   UNL     1      -3.719   2.332  -0.024  0.00  0.00    +0.026 A 
ATOM      6  C   UNL     1      -4.523   1.417  -0.676  0.00  0.00    +0.041 A 
ATOM      7  C   UNL     1      -4.999   0.306   0.001  0.00  0.00    +0.142 A 
ATOM      8  C   UNL     1      -4.670   0.110   1.332  0.00  0.00    +0.078 A 
ATOM      9  C   UNL     1      -3.862   1.021   1.986  0.00  0.00    +0.046 A 
ATOM     10 CL   UNL     1      -5.268  -1.283   2.178  0.00  0.00    -0.081 Cl
ATOM     11  F   UNL     1      -5.785  -0.588  -0.639  0.00  0.00    -0.204 F 
ENDBRANCH   1   4
BRANCH   1  12
ATOM     12  C   UNL     1      -3.137   3.920   3.018  0.00  0.00    +0.197 C 
BRANCH  12  13
ATOM     13  C   UNL     1      -4.563   3.512   3.287  0.00  0.00    -0.015 A 
ATOM     14  C   UNL     1      -5.494   3.468   2.261  0.00  0.00    +0.025 A 
ATOM     15  C   UNL     1      -6.791   3.085   2.545  0.00  0.00    +0.111 A 
ATOM     16  N   UNL     1      -7.149   2.773   3.775  0.00  0.00    -0.263 NA
ATOM     17  C   UNL     1      -6.291   2.808   4.777  0.00  0.00    +0.111 A 
ATOM     18  C   UNL     1      -4.976   3.177   4.568  0.00  0.00    +0.025 A 
ENDBRANCH  12  13
BRANCH  12  20
ATOM     19  N   UNL     1      -3.574   6.330   3.370  0.00  0.00    -0.308 N 
ATOM     20  C   UNL     1      -3.103   5.357   2.564  0.00  0.00    +0.239 C 
ATOM     21  O   UNL     1      -2.652   5.638   1.474  0.00  0.00    -0.273 OA
ATOM     22  H   UNL     1      -3.934   6.105   4.242  0.00  0.00    +0.149 HD
BRANCH  19  23
ATOM     23  C   UNL     1      -3.541   7.726   2.928  0.00  0.00    +0.029 C 
ATOM     24  C   UNL     1      -2.093   8.140   2.655  0.00  0.00    +0.031 C 
ATOM     25  C   UNL     1      -4.364   7.876   1.647  0.00  0.00    +0.031 C 
BRANCH  23  27
ATOM     26  C   UNL     1      -4.095  10.079   3.560  0.00  0.00    +0.006 C 
ATOM     27  C   UNL     1      -4.130   8.621   4.021  0.00  0.00    +0.022 C 
ENDBRANCH  23  27
ENDBRANCH  19  23
ENDBRANCH  12  20
ENDBRANCH   1  12
BRANCH   2  28
ATOM     28  C   UNL     1      -0.714   2.369   0.495  0.00  0.00    +0.242 C 
BRANCH  28  29
ATOM     29  N   UNL     1       0.687   2.737   0.276  0.00  0.00    -0.235 N 
ATOM     30  C   UNL     1       1.157   3.729  -0.551  0.00  0.00    +0.090 A 
ATOM     31  C   UNL     1       0.548   4.655  -1.392  0.00  0.00    +0.029 A 
ATOM     32  C   UNL     1       1.316   5.535  -2.102  0.00  0.00    +0.002 A 
ATOM     33  C   UNL     1       2.700   5.513  -1.993  0.00  0.00    +0.002 A 
ATOM     34  C   UNL     1       3.321   4.615  -1.175  0.00  0.00    +0.032 A 
ATOM     35  C   UNL     1       2.557   3.702  -0.436  0.00  0.00    +0.113 A 
ATOM     36  N   UNL     1       2.877   2.723   0.433  0.00  0.00    -0.129 NA
ATOM     37  N   UNL     1       1.813   2.143   0.864  0.00  0.00    -0.064 NA
ENDBRANCH  28  29
ENDBRANCH   2  28
TORSDOF 8
