REMARK  Name = ZINC58886957
REMARK  8 active torsions:
REMARK  status: ('A' for Active; 'I' for Inactive)
REMARK    1  A    between atoms: C_4  and  C_7
REMARK    2  A    between atoms: C_7  and  C_9
REMARK    3  A    between atoms: C_7  and  O_25
REMARK    4  A    between atoms: C_9  and  C_10
REMARK    5  A    between atoms: C_10  and  C_11
REMARK    6  A    between atoms: N_13  and  N_14
REMARK    7  A    between atoms: C_15  and  C_16
REMARK    8  A    between atoms: C_21  and  O_22
REMARK                            x       y       z     vdW  Elec       q    Type
REMARK                         _______ _______ _______ _____ _____    ______ ____
ROOT
ATOM      1  C   UNL     1       6.434  -1.039  -3.172  0.00  0.00    +0.232 C 
ATOM      2  O   UNL     1       5.493  -1.035  -3.938  0.00  0.00    -0.274 OA
ATOM      3  N   UNL     1       7.514  -1.800  -3.437  0.00  0.00    -0.207 N 
ATOM      4  H   UNL     1       8.267  -1.803  -2.825  0.00  0.00    +0.177 HD
ENDROOT
BRANCH   3   5
ATOM      5  N   UNL     1       7.551  -2.586  -4.596  0.00  0.00    -0.188 NA
ATOM      6  C   UNL     1       8.542  -3.399  -4.798  0.00  0.00    +0.142 C 
BRANCH   6   7
ATOM      7  C   UNL     1       9.491  -3.689  -3.708  0.00  0.00    +0.038 A 
ATOM      8  C   UNL     1       9.088  -3.568  -2.375  0.00  0.00    +0.028 A 
ATOM      9  C   UNL     1       9.980  -3.842  -1.359  0.00  0.00    +0.020 A 
ATOM     10  C   UNL     1      11.275  -4.236  -1.655  0.00  0.00    +0.034 A 
ATOM     11  C   UNL     1      11.685  -4.360  -2.969  0.00  0.00    +0.061 A 
ATOM     12  C   UNL     1      10.799  -4.094  -4.002  0.00  0.00    +0.139 A 
ATOM     13 BR   UNL     1      13.455  -4.900  -3.359  0.00  0.00    -0.046 Br
ATOM     14 BR   UNL     1       9.434  -3.676   0.444  0.00  0.00    -0.050 Br
BRANCH  12  15
ATOM     15  O   UNL     1      11.200  -4.221  -5.293  0.00  0.00    -0.505 OA
ATOM     16  H   UNL     1      11.506  -3.395  -5.693  0.00  0.00    +0.292 HD
ENDBRANCH  12  15
ENDBRANCH   6   7
ENDBRANCH   3   5
BRANCH   1  17
ATOM     17  C   UNL     1       6.394  -0.194  -1.925  0.00  0.00    +0.100 C 
BRANCH  17  18
ATOM     18  C   UNL     1       5.067   0.565  -1.866  0.00  0.00    +0.045 C 
BRANCH  18  19
ATOM     19  C   UNL     1       5.027   1.424  -0.600  0.00  0.00    +0.145 C 
BRANCH  19  23
ATOM     20  C   UNL     1       1.480   3.804  -0.607  0.00  0.00    +0.000 A 
ATOM     21  C   UNL     1       2.666   4.330  -1.084  0.00  0.00    +0.000 A 
ATOM     22  C   UNL     1       3.814   3.559  -1.081  0.00  0.00    +0.006 A 
ATOM     23  C   UNL     1       3.776   2.264  -0.602  0.00  0.00    -0.019 A 
ATOM     24  C   UNL     1       2.590   1.738  -0.124  0.00  0.00    +0.006 A 
ATOM     25  C   UNL     1       1.442   2.508  -0.128  0.00  0.00    +0.000 A 
ENDBRANCH  19  23
BRANCH  19  26
ATOM     26  O   UNL     1       5.030   0.576   0.551  0.00  0.00    -0.387 OA
ATOM     27  H   UNL     1       4.278  -0.031   0.594  0.00  0.00    +0.210 HD
ENDBRANCH  19  26
ENDBRANCH  18  19
ENDBRANCH  17  18
ENDBRANCH   1  17
TORSDOF 8
