REMARK  Name = ZINC03306633
REMARK  8 active torsions:
REMARK  status: ('A' for Active; 'I' for Inactive)
REMARK    1  A    between atoms: C_1  and  C_2
REMARK    2  A    between atoms: C_7  and  N_12
REMARK    3  A    between atoms: C_9  and  C_11
REMARK    4  A    between atoms: N_12  and  S_13
REMARK    5  A    between atoms: S_13  and  C_16
REMARK    6  A    between atoms: C_16  and  C_17
REMARK    7  A    between atoms: C_22  and  C_23
REMARK    8  A    between atoms: C_22  and  C_24
REMARK                            x       y       z     vdW  Elec       q    Type
REMARK                         _______ _______ _______ _____ _____    ______ ____
ROOT
ATOM      1  S   UNL     1      -2.791   5.874   3.165  0.00  0.00    +0.031 S 
ATOM      2  O   UNL     1      -2.483   7.251   2.990  0.00  0.00    -0.158 OA
ATOM      3  O   UNL     1      -3.917   5.295   2.520  0.00  0.00    -0.158 OA
ENDROOT
BRANCH   1   4
ATOM      4  N   UNL     1      -1.486   5.067   2.542  0.00  0.00    -0.191 NA
ATOM      5  H   UNL     1      -0.734   5.565   2.183  0.00  0.00    +0.148 HD
BRANCH   4  11
ATOM      6  C   UNL     1      -0.013   1.086   0.008  0.00  0.00    +0.008 C 
ATOM      7  C   UNL     1      -0.729   1.579   1.267  0.00  0.00    -0.010 C 
ATOM      8  C   UNL     1       0.011   1.072   2.506  0.00  0.00    +0.003 C 
ATOM      9  C   UNL     1      -0.705   1.566   3.765  0.00  0.00    +0.002 C 
ATOM     10  C   UNL     1      -0.726   3.096   3.774  0.00  0.00    +0.020 C 
ATOM     11  C   UNL     1      -1.466   3.603   2.534  0.00  0.00    +0.079 C 
ATOM     12  C   UNL     1      -0.750   3.109   1.275  0.00  0.00    +0.007 C 
ATOM     13  C   UNL     1      -1.490   3.616   0.036  0.00  0.00    +0.009 C 
ENDBRANCH   4  11
ENDBRANCH   1   4
BRANCH   1  14
ATOM     14  C   UNL     1      -2.798   5.456   4.930  0.00  0.00    +0.200 C 
BRANCH  14  15
ATOM     15  C   UNL     1      -3.975   6.154   5.615  0.00  0.00    +0.055 C 
ATOM     16  C   UNL     1      -5.392   5.769   5.091  0.00  0.00    +0.017 C 
ATOM     17  C   UNL     1      -6.353   6.175   6.232  0.00  0.00    +0.005 C 
ATOM     18  C   UNL     1      -5.421   6.774   7.331  0.00  0.00    +0.003 C 
ATOM     19  C   UNL     1      -4.146   5.876   7.149  0.00  0.00    -0.018 C 
ATOM     20  C   UNL     1      -4.435   4.402   7.439  0.00  0.00    +0.012 C 
ATOM     21  C   UNL     1      -2.958   6.393   7.964  0.00  0.00    +0.012 C 
ATOM     22  C   UNL     1      -4.909   8.111   6.713  0.00  0.00    +0.079 C 
ATOM     23  C   UNL     1      -3.955   7.689   5.579  0.00  0.00    +0.142 C 
ATOM     24  O   UNL     1      -3.332   8.396   4.824  0.00  0.00    -0.297 OA
ENDBRANCH  14  15
ENDBRANCH   1  14
TORSDOF 4
