REMARK  Name = ZINC38626959
REMARK  6 active torsions:
REMARK  status: ('A' for Active; 'I' for Inactive)
REMARK    1  A    between atoms: C_7  and  C_10
REMARK    2  A    between atoms: N_11  and  N_12
REMARK    3  A    between atoms: C_23  and  C_28
REMARK    4  A    between atoms: C_25  and  N_27
REMARK    5  A    between atoms: N_30  and  C_31
REMARK    6  A    between atoms: C_31  and  C_32
REMARK                            x       y       z     vdW  Elec       q    Type
REMARK                         _______ _______ _______ _____ _____    ______ ____
ROOT
ATOM      1  N   UNL     1       0.311  -5.268  -0.162  0.00  0.00    -0.219 N 
ATOM      2  C   UNL     1      -1.067  -5.163  -0.277  0.00  0.00    +0.162 A 
ATOM      3  C   UNL     1      -1.677  -6.427  -0.318  0.00  0.00    +0.095 A 
ATOM      4  N   UNL     1      -2.979  -6.548  -0.424  0.00  0.00    -0.246 NA
ATOM      5  C   UNL     1      -3.749  -5.456  -0.495  0.00  0.00    +0.090 A 
ATOM      6  C   UNL     1      -5.145  -5.557  -0.609  0.00  0.00    +0.030 A 
ATOM      7  C   UNL     1      -5.901  -4.427  -0.679  0.00  0.00    +0.002 A 
ATOM      8  C   UNL     1      -5.308  -3.166  -0.640  0.00  0.00    +0.002 A 
ATOM      9  C   UNL     1      -3.958  -3.029  -0.530  0.00  0.00    +0.030 A 
ATOM     10  C   UNL     1      -3.145  -4.174  -0.456  0.00  0.00    +0.091 A 
ATOM     11  N   UNL     1      -1.818  -4.070  -0.348  0.00  0.00    -0.227 NA
ATOM     12  C   UNL     1      -0.594  -7.479  -0.220  0.00  0.00    +0.131 C 
ATOM     13  C   UNL     1       0.714  -6.676  -0.123  0.00  0.00    +0.058 C 
ENDROOT
BRANCH  13  14
ATOM     14  N   UNL     1       1.398  -6.974   1.142  0.00  0.00    +0.392 N 
ATOM     15  H   UNL     1       0.794  -6.739   1.915  0.00  0.00    -0.087 HD
ATOM     16  H   UNL     1       1.625  -7.956   1.178  0.00  0.00    -0.087 HD
ATOM     17  H   UNL     1       2.247  -6.431   1.201  0.00  0.00    -0.087 HD
ENDBRANCH  13  14
BRANCH  12  18
ATOM     18  C   UNL     1      -0.791  -8.325   1.011  0.00  0.00    +0.222 C 
ATOM     19  O   UNL     1      -1.342  -7.858   1.986  0.00  0.00    -0.275 OA
ATOM     20  N   UNL     1      -0.356  -9.601   1.029  0.00  0.00    -0.312 N 
ATOM     21  H   UNL     1       0.084  -9.974   0.250  0.00  0.00    +0.149 HD
BRANCH  20  22
ATOM     22  C   UNL     1      -0.549 -10.423   2.226  0.00  0.00    +0.135 C 
BRANCH  22  23
ATOM     23  C   UNL     1       0.031 -11.819   1.984  0.00  0.00    +0.135 C 
ATOM     24  C   UNL     1      -0.274 -12.729   3.193  0.00  0.00    +0.035 C 
ATOM     25  C   UNL     1       1.041 -13.544   3.332  0.00  0.00    +0.031 C 
ATOM     26  C   UNL     1       2.089 -12.487   2.900  0.00  0.00    +0.160 C 
ATOM     27  O   UNL     1       1.455 -11.736   1.850  0.00  0.00    -0.375 OA
ENDBRANCH  22  23
ENDBRANCH  20  22
ENDBRANCH  12  18
BRANCH   1  29
ATOM     28  C   UNL     1       2.419  -4.474  -0.106  0.00  0.00    +0.136 C 
ATOM     29  N   UNL     1       1.123  -4.268  -0.103  0.00  0.00    -0.188 NA
BRANCH  28  36
ATOM     30  C   UNL     1       6.946  -4.256   0.031  0.00  0.00    +0.001 A 
ATOM     31  C   UNL     1       7.436  -2.966   0.245  0.00  0.00    +0.002 A 
ATOM     32  C   UNL     1       6.609  -1.902   0.394  0.00  0.00    +0.026 A 
ATOM     33  C   UNL     1       5.204  -2.087   0.332  0.00  0.00    +0.043 A 
ATOM     34  N   UNL     1       4.206  -1.233   0.445  0.00  0.00    -0.380 N 
ATOM     35  C   UNL     1       2.935  -1.950   0.303  0.00  0.00    +0.150 C 
ATOM     36  C   UNL     1       3.297  -3.403   0.082  0.00  0.00    +0.000 C 
ATOM     37  C   UNL     1       4.692  -3.449   0.106  0.00  0.00    +0.004 A 
ATOM     38  C   UNL     1       5.614  -4.508  -0.039  0.00  0.00    +0.010 A 
ATOM     39  H   UNL     1       4.298  -0.279   0.597  0.00  0.00    +0.160 HD
ENDBRANCH  28  36
ENDBRANCH   1  29
TORSDOF 6
