REMARK  Name = ZINC10001797
REMARK  11 active torsions:
REMARK  status: ('A' for Active; 'I' for Inactive)
REMARK    1  A    between atoms: C_1  and  C_2
REMARK    2  A    between atoms: C_2  and  C_3
REMARK    3  A    between atoms: C_2  and  C_4
REMARK    4  A    between atoms: C_4  and  C_6
REMARK    5  A    between atoms: C_4  and  N_21
REMARK    6  A    between atoms: N_8  and  N_9
REMARK    7  A    between atoms: C_10  and  C_11
REMARK    8  A    between atoms: C_13  and  O_19
REMARK    9  A    between atoms: C_14  and  O_18
REMARK   10  A    between atoms: O_19  and  C_20
REMARK   11  A    between atoms: C_22  and  C_24
REMARK                            x       y       z     vdW  Elec       q    Type
REMARK                         _______ _______ _______ _____ _____    ______ ____
ROOT
ATOM      1  C   UNL     1       3.353  -4.868  -0.872  0.00  0.00    +0.253 C 
ATOM      2  O   UNL     1       4.242  -4.118  -1.216  0.00  0.00    -0.272 OA
ATOM      3  N   UNL     1       3.381  -6.162  -1.247  0.00  0.00    -0.205 N 
ATOM      4  H   UNL     1       2.635  -6.745  -1.034  0.00  0.00    +0.177 HD
ENDROOT
BRANCH   3   5
ATOM      5  N   UNL     1       4.486  -6.666  -1.946  0.00  0.00    -0.188 NA
ATOM      6  C   UNL     1       4.512  -7.912  -2.307  0.00  0.00    +0.138 C 
BRANCH   6   7
ATOM      7  C   UNL     1       5.675  -8.442  -3.043  0.00  0.00    -0.001 A 
ATOM      8  C   UNL     1       5.708  -9.785  -3.428  0.00  0.00    +0.059 A 
ATOM      9  C   UNL     1       6.798 -10.276  -4.121  0.00  0.00    +0.163 A 
ATOM     10  C   UNL     1       7.866  -9.435  -4.426  0.00  0.00    +0.173 A 
ATOM     11  C   UNL     1       7.837  -8.102  -4.039  0.00  0.00    +0.063 A 
ATOM     12  C   UNL     1       6.749  -7.604  -3.351  0.00  0.00    +0.028 A 
ATOM     13 BR   UNL     1       9.290  -6.967  -4.457  0.00  0.00    -0.046 Br
BRANCH  10  14
ATOM     14  O   UNL     1       8.940  -9.921  -5.103  0.00  0.00    -0.503 OA
ATOM     15  H   UNL     1       9.637 -10.275  -4.534  0.00  0.00    +0.292 HD
ENDBRANCH  10  14
BRANCH   9  16
ATOM     16  O   UNL     1       6.830 -11.581  -4.502  0.00  0.00    -0.491 OA
ATOM     17  C   UNL     1       5.700 -12.385  -4.157  0.00  0.00    +0.277 C 
ENDBRANCH   9  16
ENDBRANCH   6   7
ENDBRANCH   3   5
BRANCH   1  18
ATOM     18  C   UNL     1       2.219  -4.353  -0.024  0.00  0.00    +0.163 C 
BRANCH  18  19
ATOM     19  N   UNL     1       2.038  -2.920  -0.268  0.00  0.00    -0.300 N 
ATOM     20  C   UNL     1       0.839  -2.345  -0.051  0.00  0.00    +0.245 C 
ATOM     21  O   UNL     1      -0.093  -3.016   0.348  0.00  0.00    -0.270 OA
ATOM     22  H   UNL     1       2.782  -2.385  -0.586  0.00  0.00    +0.150 HD
BRANCH  20  23
ATOM     23  C   UNL     1       0.657  -0.900  -0.296  0.00  0.00    +0.037 A 
ATOM     24  C   UNL     1      -0.584  -0.301  -0.072  0.00  0.00    +0.016 A 
ATOM     25  C   UNL     1      -0.749   1.047  -0.303  0.00  0.00    +0.039 A 
ATOM     26  C   UNL     1       0.316   1.810  -0.758  0.00  0.00    +0.123 A 
ATOM     27  C   UNL     1       1.551   1.221  -0.983  0.00  0.00    +0.039 A 
ATOM     28  C   UNL     1       1.726  -0.127  -0.755  0.00  0.00    +0.016 A 
ATOM     29  F   UNL     1       0.150   3.132  -0.984  0.00  0.00    -0.205 F 
ENDBRANCH  20  23
ENDBRANCH  18  19
BRANCH  18  31
ATOM     30  C   UNL     1       1.368  -4.105   2.312  0.00  0.00    +0.009 C 
ATOM     31  C   UNL     1       2.541  -4.582   1.454  0.00  0.00    +0.012 C 
ATOM     32  C   UNL     1       2.779  -6.074   1.698  0.00  0.00    +0.009 C 
ENDBRANCH  18  31
ENDBRANCH   1  18
TORSDOF 8
