REMARK  Name = ZINC55132904
REMARK  7 active torsions:
REMARK  status: ('A' for Active; 'I' for Inactive)
REMARK    1  A    between atoms: C_1  and  C_2
REMARK    2  A    between atoms: C_2  and  C_3
REMARK    3  A    between atoms: C_6  and  C_9
REMARK    4  A    between atoms: C_9  and  N_10
REMARK    5  A    between atoms: C_11  and  C_13
REMARK    6  A    between atoms: C_13  and  C_14
REMARK    7  A    between atoms: C_17  and  N_20
REMARK                            x       y       z     vdW  Elec       q    Type
REMARK                         _______ _______ _______ _____ _____    ______ ____
ROOT
ATOM      1  N   UNL     1      -4.966  -4.181  -1.155  0.00  0.00    -0.315 N 
ATOM      2  C   UNL     1      -6.124  -4.870  -1.147  0.00  0.00    +0.213 C 
ATOM      3  O   UNL     1      -7.182  -4.278  -1.134  0.00  0.00    -0.276 OA
ATOM      4  H   UNL     1      -4.120  -4.654  -1.165  0.00  0.00    +0.149 HD
ENDROOT
BRANCH   1   5
ATOM      5  C   UNL     1      -4.986  -2.716  -1.147  0.00  0.00    +0.107 C 
BRANCH   5   9
ATOM      6  C   UNL     1      -1.433  -0.534   0.013  0.00  0.00    -0.011 C 
ATOM      7  C   UNL     1      -2.135  -0.131  -1.286  0.00  0.00    +0.004 C 
ATOM      8  C   UNL     1      -3.571  -0.661  -1.275  0.00  0.00    +0.005 C 
ATOM      9  C   UNL     1      -3.551  -2.186  -1.157  0.00  0.00    +0.006 C 
ATOM     10  C   UNL     1      -2.849  -2.589   0.141  0.00  0.00    +0.005 C 
ATOM     11  C   UNL     1      -1.413  -2.059   0.130  0.00  0.00    +0.004 C 
BRANCH   6  13
ATOM     12  C   UNL     1      -0.019   1.526   0.010  0.00  0.00    +0.004 C 
ATOM     13  C   UNL     1       0.002  -0.004   0.002  0.00  0.00    -0.000 C 
ENDBRANCH   6  13
ENDBRANCH   5   9
ENDBRANCH   1   5
BRANCH   2  14
ATOM     14  C   UNL     1      -6.104  -6.377  -1.156  0.00  0.00    +0.099 C 
BRANCH  14  15
ATOM     15  C   UNL     1      -7.539  -6.907  -1.145  0.00  0.00    -0.002 C 
ATOM     16  C   UNL     1      -8.216  -6.518   0.171  0.00  0.00    +0.002 C 
ATOM     17  C   UNL     1      -9.651  -7.048   0.182  0.00  0.00    -0.016 C 
ATOM     18  C   UNL     1      -9.634  -8.572   0.048  0.00  0.00    -0.075 C 
ATOM     19  C   UNL     1      -8.957  -8.960  -1.268  0.00  0.00    -0.016 C 
ATOM     20  C   UNL     1      -7.521  -8.431  -1.279  0.00  0.00    +0.002 C 
BRANCH  18  21
ATOM     21  N   UNL     1     -11.012  -9.080   0.058  0.00  0.00    +0.380 N 
ATOM     22  H   UNL     1     -11.524  -8.681  -0.714  0.00  0.00    -0.090 HD
ATOM     23  H   UNL     1     -11.000 -10.085  -0.030  0.00  0.00    -0.090 HD
ATOM     24  H   UNL     1     -11.458  -8.824   0.926  0.00  0.00    -0.090 HD
ENDBRANCH  18  21
ENDBRANCH  14  15
ENDBRANCH   2  14
TORSDOF 6
