REMARK  Name = ZINC38979504
REMARK  6 active torsions:
REMARK  status: ('A' for Active; 'I' for Inactive)
REMARK    1  A    between atoms: C_1  and  C_2
REMARK    2  A    between atoms: N_4  and  C_5
REMARK    3  A    between atoms: C_8  and  N_11
REMARK    4  A    between atoms: N_11  and  C_12
REMARK    5  A    between atoms: N_15  and  S_16
REMARK    6  A    between atoms: S_16  and  C_19
REMARK                            x       y       z     vdW  Elec       q    Type
REMARK                         _______ _______ _______ _____ _____    ______ ____
ROOT
ATOM      1  C   UNL     1      -2.579  -6.934  -0.586  0.00  0.00    +0.237 C 
ATOM      2  C   UNL     1      -2.618  -8.128   0.341  0.00  0.00    +0.192 C 
ATOM      3  N   UNL     1      -2.493  -7.970   1.626  0.00  0.00    -0.110 NA
ATOM      4  N   UNL     1      -2.784  -9.354  -0.181  0.00  0.00    -0.226 NA
ATOM      5  C   UNL     1      -2.914  -9.540  -1.478  0.00  0.00    +0.089 A 
ATOM      6  C   UNL     1      -3.088 -10.848  -1.996  0.00  0.00    +0.030 A 
ATOM      7  C   UNL     1      -3.220 -11.045  -3.325  0.00  0.00    +0.002 A 
ATOM      8  C   UNL     1      -3.196  -9.992  -4.255  0.00  0.00    +0.002 A 
ATOM      9  C   UNL     1      -3.035  -8.707  -3.870  0.00  0.00    +0.027 A 
ATOM     10  C   UNL     1      -2.884  -8.408  -2.438  0.00  0.00    +0.063 A 
ATOM     11  N   UNL     1      -2.727  -7.181  -2.029  0.00  0.00    -0.359 N 
ATOM     12  H   UNL     1      -2.708  -6.446  -2.662  0.00  0.00    +0.162 HD
ENDROOT
BRANCH   3  13
ATOM     13  S   UNL     1      -2.537  -9.286   2.630  0.00  0.00    +0.103 S 
ATOM     14  O   UNL     1      -3.853  -9.817   2.546  0.00  0.00    -0.146 OA
ATOM     15  O   UNL     1      -1.383 -10.061   2.336  0.00  0.00    -0.146 OA
BRANCH  13  16
ATOM     16  C   UNL     1      -2.338  -8.692   4.277  0.00  0.00    +0.141 A 
ATOM     17  C   UNL     1      -3.345  -8.829   5.171  0.00  0.00    +0.031 A 
ATOM     18  C   UNL     1      -3.222  -8.371   6.483  0.00  0.00    +0.004 A 
ATOM     19  C   UNL     1      -2.091  -7.769   6.919  0.00  0.00    +0.031 A 
ATOM     20  C   UNL     1      -0.992  -7.590   6.035  0.00  0.00    +0.102 A 
ATOM     21  C   UNL     1      -1.118  -8.075   4.665  0.00  0.00    +0.127 A 
ATOM     22  N   UNL     1      -0.026  -7.859   3.930  0.00  0.00    -0.189 NA
ATOM     23  S   UNL     1       1.020  -7.128   4.910  0.00  0.00    +0.117 S 
ATOM     24  N   UNL     1       0.190  -7.025   6.285  0.00  0.00    -0.191 NA
ENDBRANCH  13  16
ENDBRANCH   3  13
BRANCH   1  25
ATOM     25  N   UNL     1      -1.302  -6.248  -0.378  0.00  0.00    -0.318 N 
ATOM     26  H   UNL     1      -0.471  -6.747  -0.415  0.00  0.00    +0.148 HD
BRANCH  25  30
ATOM     27  C   UNL     1      -1.237  -2.149   0.377  0.00  0.00    +0.033 A 
ATOM     28  C   UNL     1      -2.425  -2.769   0.014  0.00  0.00    +0.025 A 
ATOM     29  C   UNL     1      -2.447  -4.127  -0.236  0.00  0.00    +0.025 A 
ATOM     30  C   UNL     1      -1.280  -4.872  -0.125  0.00  0.00    +0.029 A 
ATOM     31  C   UNL     1      -0.092  -4.252   0.239  0.00  0.00    +0.025 A 
ATOM     32  C   UNL     1      -0.070  -2.893   0.484  0.00  0.00    +0.025 A 
BRANCH  27  36
ATOM     33  C   UNL     1      -0.185   1.467   0.411  0.00  0.00    +0.109 C 
ATOM     34  C   UNL     1      -0.163  -0.029   0.232  0.00  0.00    +0.214 C 
ATOM     35  O   UNL     1       0.801  -0.566  -0.271  0.00  0.00    -0.276 OA
ATOM     36  N   UNL     1      -1.215  -0.771   0.631  0.00  0.00    -0.286 N 
ATOM     37  H   UNL     1      -1.958  -0.351   1.093  0.00  0.00    +0.155 HD
ENDBRANCH  27  36
ENDBRANCH  25  30
ENDBRANCH   1  25
TORSDOF 5
