REMARK  Name = ZINC20688654
REMARK  5 active torsions:
REMARK  status: ('A' for Active; 'I' for Inactive)
REMARK    1  A    between atoms: C_1  and  C_2
REMARK    2  A    between atoms: C_2  and  C_4
REMARK    3  A    between atoms: C_2  and  N_20
REMARK    4  A    between atoms: N_9  and  C_10
REMARK    5  A    between atoms: C_24  and  C_26
REMARK                            x       y       z     vdW  Elec       q    Type
REMARK                         _______ _______ _______ _____ _____    ______ ____
ROOT
ATOM      1  C   UNL     1       2.320   1.243  -0.013  0.00  0.00    +0.207 C 
ATOM      2  O   UNL     1       2.336   0.031  -0.020  0.00  0.00    -0.277 OA
ATOM      3  N   UNL     1       1.143   1.901   0.001  0.00  0.00    -0.242 N 
ATOM      4  C   UNL     1      -0.014   1.211   0.009  0.00  0.00    +0.306 C 
ATOM      5  O   UNL     1       0.002  -0.004   0.002  0.00  0.00    -0.252 OA
ATOM      6  N   UNL     1      -1.191   1.869   0.018  0.00  0.00    -0.294 N 
ATOM      7  H   UNL     1       1.129   3.001   0.007  0.00  0.00    +0.159 HD
ATOM      8  H   UNL     1      -1.206   2.969   0.024  0.00  0.00    +0.151 HD
ENDROOT
BRANCH   6   9
ATOM      9  C   UNL     1      -2.449   1.119   0.020  0.00  0.00    +0.037 C 
ATOM     10  C   UNL     1      -2.524   0.246  -1.234  0.00  0.00    +0.029 C 
ATOM     11  C   UNL     1      -3.839  -0.537  -1.232  0.00  0.00    -0.008 C 
ATOM     12  C   UNL     1      -5.015   0.441  -1.221  0.00  0.00    +0.007 C 
ATOM     13  C   UNL     1      -4.940   1.315   0.033  0.00  0.00    -0.008 C 
ATOM     14  C   UNL     1      -3.626   2.098   0.031  0.00  0.00    +0.029 C 
ATOM     15  C   UNL     1      -5.003   0.427   1.277  0.00  0.00    +0.007 C 
ATOM     16  C   UNL     1      -3.827  -0.551   1.266  0.00  0.00    -0.008 C 
ATOM     17  C   UNL     1      -3.902  -1.425   0.013  0.00  0.00    +0.007 C 
ATOM     18  C   UNL     1      -2.513   0.232   1.264  0.00  0.00    +0.029 C 
ENDBRANCH   6   9
BRANCH   1  20
ATOM     19  C   UNL     1       3.695   2.888   1.232  0.00  0.00    -0.004 C 
ATOM     20  C   UNL     1       3.614   2.014  -0.022  0.00  0.00    +0.017 C 
BRANCH  20  21
ATOM     21  N   UNL     1       4.744   1.075  -0.037  0.00  0.00    +0.392 N 
ATOM     22  C   UNL     1       4.697   0.212  -1.232  0.00  0.00    -0.077 C 
ATOM     23  C   UNL     1       6.034   0.396  -1.981  0.00  0.00    -0.020 C 
ATOM     24  C   UNL     1       6.987   0.915  -0.873  0.00  0.00    -0.012 C 
ATOM     25  C   UNL     1       6.034   1.797  -0.029  0.00  0.00    -0.030 C 
ATOM     26  H   UNL     1       4.656   0.456   0.868  0.00  0.00    -0.080 HD
BRANCH  25  27
ATOM     27  C   UNL     1       6.551   1.929   1.381  0.00  0.00    -0.024 A 
ATOM     28  C   UNL     1       7.168   2.983   1.968  0.00  0.00    +0.009 A 
ATOM     29  C   UNL     1       7.559   2.880   3.290  0.00  0.00    +0.008 A 
ATOM     30  C   UNL     1       7.323   1.724   3.957  0.00  0.00    +0.045 A 
ATOM     31  S   UNL     1       6.519   0.734   2.707  0.00  0.00    -0.103 S 
ENDBRANCH  25  27
ENDBRANCH  20  21
ENDBRANCH   1  20
TORSDOF 4
