REMARK  Name = ZINC12906813
REMARK  10 active torsions:
REMARK  status: ('A' for Active; 'I' for Inactive)
REMARK    1  A    between atoms: C_1  and  C_2
REMARK    2  A    between atoms: C_2  and  C_26
REMARK    3  A    between atoms: N_5  and  C_9
REMARK    4  A    between atoms: C_9  and  C_10
REMARK    5  A    between atoms: N_15  and  C_18
REMARK    6  A    between atoms: C_18  and  C_19
REMARK    7  A    between atoms: N_21  and  C_22
REMARK    8  A    between atoms: C_22  and  C_23
REMARK    9  A    between atoms: C_22  and  C_24
REMARK   10  A    between atoms: C_22  and  C_25
REMARK                            x       y       z     vdW  Elec       q    Type
REMARK                         _______ _______ _______ _____ _____    ______ ____
ROOT
ATOM      1  C   UNL     1       0.073   1.524   0.050  0.00  0.00    +0.047 C 
ATOM      2  C   UNL     1       0.002  -0.004   0.002  0.00  0.00    +0.136 C 
ATOM      3  C   UNL     1      -1.422  -0.478   0.215  0.00  0.00    +0.251 C 
ATOM      4  O   UNL     1      -2.386  -0.238  -0.479  0.00  0.00    -0.272 OA
ATOM      5  N   UNL     1      -1.393  -1.224   1.338  0.00  0.00    -0.215 N 
ATOM      6  C   UNL     1      -0.162  -1.286   1.858  0.00  0.00    +0.310 C 
ATOM      7  O   UNL     1       0.114  -1.900   2.869  0.00  0.00    -0.252 OA
ATOM      8  N   UNL     1       0.737  -0.593   1.135  0.00  0.00    -0.281 N 
ATOM      9  H   UNL     1       1.683  -0.499   1.324  0.00  0.00    +0.152 HD
ENDROOT
BRANCH   2  10
ATOM     10  C   UNL     1       0.545  -0.518  -1.306  0.00  0.00    -0.008 A 
ATOM     11  C   UNL     1       1.602  -1.376  -1.319  0.00  0.00    +0.007 A 
ATOM     12  C   UNL     1       2.118  -1.862  -2.518  0.00  0.00    +0.001 A 
ATOM     13  C   UNL     1       1.580  -1.492  -3.713  0.00  0.00    +0.008 A 
ATOM     14  C   UNL     1       0.488  -0.609  -3.740  0.00  0.00    -0.018 A 
ATOM     15  C   UNL     1      -0.040  -0.119  -2.520  0.00  0.00    -0.012 A 
ATOM     16  C   UNL     1      -1.136   0.760  -2.547  0.00  0.00    +0.009 A 
ATOM     17  C   UNL     1      -1.677   1.125  -3.741  0.00  0.00    +0.001 A 
ATOM     18  C   UNL     1      -1.161   0.639  -4.941  0.00  0.00    +0.001 A 
ATOM     19  C   UNL     1      -0.093  -0.204  -4.954  0.00  0.00    +0.008 A 
ENDBRANCH   2  10
BRANCH   5  20
ATOM     20  C   UNL     1      -2.565  -1.884   1.917  0.00  0.00    +0.213 C 
BRANCH  20  21
ATOM     21  C   UNL     1      -2.698  -3.270   1.339  0.00  0.00    +0.234 C 
ATOM     22  O   UNL     1      -1.893  -3.667   0.524  0.00  0.00    -0.274 OA
ATOM     23  N   UNL     1      -3.712  -4.068   1.729  0.00  0.00    -0.298 N 
ATOM     24  C   UNL     1      -4.703  -3.605   2.712  0.00  0.00    +0.123 C 
ATOM     25  C   UNL     1      -4.819  -4.658   3.819  0.00  0.00    +0.104 C 
ATOM     26  N   UNL     1      -5.107  -5.966   3.217  0.00  0.00    -0.291 NA
ATOM     27  C   UNL     1      -4.007  -6.407   2.349  0.00  0.00    +0.104 C 
ATOM     28  C   UNL     1      -3.860  -5.423   1.177  0.00  0.00    +0.123 C 
BRANCH  26  29
ATOM     29  C   UNL     1      -5.396  -6.970   4.251  0.00  0.00    +0.180 C 
BRANCH  29  30
ATOM     30  C   UNL     1      -5.922  -8.223   3.601  0.00  0.00    +0.227 C 
ATOM     31  O   UNL     1      -6.045  -8.276   2.396  0.00  0.00    -0.274 OA
ATOM     32  N   UNL     1      -6.257  -9.286   4.360  0.00  0.00    -0.310 N 
ATOM     33  H   UNL     1      -6.159  -9.243   5.324  0.00  0.00    +0.149 HD
BRANCH  32  34
ATOM     34  C   UNL     1      -6.769 -10.505   3.728  0.00  0.00    +0.026 C 
ATOM     35  C   UNL     1      -5.720 -11.057   2.761  0.00  0.00    +0.031 C 
ATOM     36  C   UNL     1      -7.070 -11.549   4.805  0.00  0.00    +0.031 C 
ATOM     37  C   UNL     1      -8.051 -10.181   2.959  0.00  0.00    +0.031 C 
ENDBRANCH  32  34
ENDBRANCH  29  30
ENDBRANCH  26  29
ENDBRANCH  20  21
ENDBRANCH   5  20
TORSDOF 6
