REMARK  Name = ZINC13303589
REMARK  11 active torsions:
REMARK  status: ('A' for Active; 'I' for Inactive)
REMARK    1  A    between atoms: C_1  and  C_2
REMARK    2  A    between atoms: C_2  and  C_3
REMARK    3  A    between atoms: C_3  and  C_4
REMARK    4  A    between atoms: C_4  and  O_5
REMARK    5  A    between atoms: O_5  and  C_6
REMARK    6  A    between atoms: C_9  and  N_12
REMARK    7  A    between atoms: C_16  and  S_20
REMARK    8  A    between atoms: S_20  and  C_21
REMARK    9  A    between atoms: N_23  and  N_24
REMARK   10  A    between atoms: C_25  and  C_26
REMARK   11  A    between atoms: C_30  and  N_32
REMARK                            x       y       z     vdW  Elec       q    Type
REMARK                         _______ _______ _______ _____ _____    ______ ____
ROOT
ATOM      1  N   UNL     1       1.897  -7.996   2.984  0.00  0.00    -0.209 N 
ATOM      2  C   UNL     1       1.317  -8.864   2.147  0.00  0.00    +0.228 C 
ATOM      3  O   UNL     1       0.642  -8.568   1.185  0.00  0.00    -0.275 OA
ATOM      4  C   UNL     1       1.636 -10.275   2.594  0.00  0.00    +0.120 C 
ATOM      5  C   UNL     1       2.511 -10.068   3.847  0.00  0.00    +0.149 C 
ATOM      6  C   UNL     1       2.599  -8.563   3.974  0.00  0.00    +0.240 C 
ATOM      7  O   UNL     1       3.206  -7.965   4.836  0.00  0.00    -0.274 OA
ENDROOT
BRANCH   1  11
ATOM      8  C   UNL     1       1.563  -3.861   2.535  0.00  0.00    +0.121 A 
ATOM      9  C   UNL     1       2.789  -4.483   2.347  0.00  0.00    +0.047 A 
ATOM     10  C   UNL     1       2.901  -5.851   2.495  0.00  0.00    +0.027 A 
ATOM     11  C   UNL     1       1.785  -6.605   2.834  0.00  0.00    +0.044 A 
ATOM     12  C   UNL     1       0.559  -5.983   3.022  0.00  0.00    +0.027 A 
ATOM     13  C   UNL     1       0.450  -4.614   2.879  0.00  0.00    +0.047 A 
BRANCH   8  14
ATOM     14  O   UNL     1       1.455  -2.514   2.389  0.00  0.00    -0.492 OA
BRANCH  14  15
ATOM     15  C   UNL     1       2.642  -1.802   2.035  0.00  0.00    +0.229 C 
BRANCH  15  16
ATOM     16  C   UNL     1       2.325  -0.310   1.917  0.00  0.00    +0.041 C 
BRANCH  16  18
ATOM     17  C   UNL     1       3.280   1.945   1.419  0.00  0.00    +0.004 C 
ATOM     18  C   UNL     1       3.596   0.453   1.537  0.00  0.00    -0.000 C 
ENDBRANCH  16  18
ENDBRANCH  15  16
ENDBRANCH  14  15
ENDBRANCH   8  14
ENDBRANCH   1  11
BRANCH   5  19
ATOM     19  S   UNL     1       4.159 -10.784   3.599  0.00  0.00    -0.078 S 
BRANCH  19  20
ATOM     20  C   UNL     1       4.949 -10.586   5.162  0.00  0.00    +0.146 C 
ATOM     21  N   UNL     1       4.309 -10.021   6.149  0.00  0.00    -0.380 N 
ATOM     22  N   UNL     1       6.241 -11.027   5.341  0.00  0.00    -0.217 N 
ATOM     23  H   UNL     1       4.744  -9.912   7.009  0.00  0.00    +0.158 HD
ATOM     24  H   UNL     1       6.716 -11.447   4.607  0.00  0.00    +0.176 HD
ATOM     25  H   UNL     1       3.399  -9.711   6.023  0.00  0.00    +0.158 HD
BRANCH  22  26
ATOM     26  N   UNL     1       6.869 -10.869   6.583  0.00  0.00    -0.188 NA
ATOM     27  C   UNL     1       8.087 -11.285   6.752  0.00  0.00    +0.138 C 
BRANCH  27  28
ATOM     28  C   UNL     1       8.748 -11.119   8.060  0.00  0.00    -0.003 A 
ATOM     29  C   UNL     1       8.064 -10.520   9.121  0.00  0.00    +0.009 A 
ATOM     30  C   UNL     1       8.688 -10.368  10.341  0.00  0.00    +0.003 A 
ATOM     31  C   UNL     1       9.989 -10.807  10.516  0.00  0.00    +0.033 A 
ATOM     32  C   UNL     1      10.672 -11.401   9.470  0.00  0.00    +0.127 A 
ATOM     33  C   UNL     1      10.058 -11.565   8.246  0.00  0.00    +0.042 A 
BRANCH  32  34
ATOM     34  N   UNL     1      12.063 -11.867   9.667  0.00  0.00    +0.056 N 
ATOM     35  O   UNL     1      12.601 -11.729  10.741  0.00  0.00    -0.126 OA
ATOM     36  O   UNL     1      12.662 -12.386   8.753  0.00  0.00    -0.126 OA
ENDBRANCH  32  34
ENDBRANCH  27  28
ENDBRANCH  22  26
ENDBRANCH  19  20
ENDBRANCH   5  19
TORSDOF 10
