REMARK  Name = ZINC39991901
REMARK  8 active torsions:
REMARK  status: ('A' for Active; 'I' for Inactive)
REMARK    1  A    between atoms: C_1  and  C_2
REMARK    2  A    between atoms: C_7  and  N_8
REMARK    3  A    between atoms: C_9  and  S_20
REMARK    4  A    between atoms: S_20  and  C_21
REMARK    5  A    between atoms: C_21  and  C_22
REMARK    6  A    between atoms: N_24  and  C_25
REMARK    7  A    between atoms: C_29  and  C_35
REMARK    8  A    between atoms: C_36  and  C_39
REMARK                            x       y       z     vdW  Elec       q    Type
REMARK                         _______ _______ _______ _____ _____    ______ ____
ROOT
ATOM      1  N   UNL     1       0.027  -0.071   2.449  0.00  0.00    -0.244 N 
ATOM      2  C   UNL     1      -1.153   0.363   3.217  0.00  0.00    +0.240 C 
ATOM      3  N   UNL     1      -0.582   1.114   4.348  0.00  0.00    -0.259 N 
ATOM      4  N   UNL     1       0.808   1.074   4.181  0.00  0.00    -0.283 N 
ATOM      5  C   UNL     1       1.138   0.408   3.127  0.00  0.00    +0.183 C 
ATOM      6  N   UNL     1       2.448   0.200   2.717  0.00  0.00    -0.299 N 
ATOM      7  C   UNL     1       3.471   1.244   2.889  0.00  0.00    +0.136 C 
ATOM      8  C   UNL     1       4.690   0.618   3.576  0.00  0.00    +0.179 C 
ATOM      9  O   UNL     1       5.090  -0.549   2.855  0.00  0.00    -0.377 OA
ATOM     10  C   UNL     1       4.104  -1.585   2.825  0.00  0.00    +0.179 C 
ATOM     11  C   UNL     1       2.857  -1.074   2.103  0.00  0.00    +0.136 C 
ATOM     12  H   UNL     1      -1.070   1.549   5.064  0.00  0.00    +0.169 HD
ATOM     13  H   UNL     1       1.443   1.491   4.784  0.00  0.00    +0.187 HD
ENDROOT
BRANCH   1  20
ATOM     14  C   UNL     1      -0.061   1.317  -0.033  0.00  0.00    +0.045 C 
ATOM     15  C   UNL     1      -0.016  -0.188   0.038  0.00  0.00    -0.029 A 
ATOM     16  C   UNL     1      -0.010  -0.935  -1.123  0.00  0.00    +0.005 A 
ATOM     17  C   UNL     1       0.032  -2.315  -1.059  0.00  0.00    +0.000 A 
ATOM     18  C   UNL     1       0.069  -2.953   0.168  0.00  0.00    +0.002 A 
ATOM     19  C   UNL     1       0.064  -2.212   1.333  0.00  0.00    +0.024 A 
ATOM     20  C   UNL     1       0.026  -0.824   1.272  0.00  0.00    +0.042 A 
ENDBRANCH   1  20
BRANCH   2  21
ATOM     21  S   UNL     1      -2.090  -1.072   3.810  0.00  0.00    -0.108 S 
BRANCH  21  22
ATOM     22  C   UNL     1      -0.907  -1.970   4.851  0.00  0.00    +0.168 C 
BRANCH  22  23
ATOM     23  C   UNL     1      -1.567  -3.202   5.414  0.00  0.00    +0.225 C 
ATOM     24  O   UNL     1      -2.722  -3.450   5.141  0.00  0.00    -0.275 OA
ATOM     25  N   UNL     1      -0.874  -4.028   6.222  0.00  0.00    -0.285 N 
ATOM     26  H   UNL     1       0.050  -3.830   6.441  0.00  0.00    +0.151 HD
BRANCH  25  27
ATOM     27  C   UNL     1      -1.515  -5.226   6.770  0.00  0.00    +0.243 C 
ATOM     28  C   UNL     1      -0.519  -6.333   6.895  0.00  0.00    +0.065 C 
ATOM     29  C   UNL     1      -0.680  -6.918   8.095  0.00  0.00    -0.011 C 
ATOM     30  C   UNL     1       0.190  -8.069   8.524  0.00  0.00    +0.099 C 
ATOM     31  N   UNL     1       0.668  -8.772   7.326  0.00  0.00    -0.233 NA
ATOM     32  N   UNL     1       1.141  -7.970   6.338  0.00  0.00    -0.247 N 
ATOM     33  C   UNL     1       0.522  -6.819   5.976  0.00  0.00    +0.258 C 
ATOM     34  O   UNL     1       0.810  -6.225   4.954  0.00  0.00    -0.269 OA
ATOM     35  C   UNL     1       1.384  -7.540   9.322  0.00  0.00    +0.030 C 
ATOM     36  C   UNL     1      -1.799  -6.221   8.806  0.00  0.00    +0.146 C 
ATOM     37  O   UNL     1      -1.989  -4.968   8.110  0.00  0.00    -0.347 OA
ATOM     38  C   UNL     1      -3.075  -7.063   8.736  0.00  0.00    +0.043 C 
ATOM     39  H   UNL     1      -0.034  -9.405   6.974  0.00  0.00    +0.145 HD
ATOM     40  H   UNL     1       1.952  -8.230   5.873  0.00  0.00    +0.169 HD
ENDBRANCH  25  27
ENDBRANCH  22  23
ENDBRANCH  21  22
ENDBRANCH   2  21
TORSDOF 5
