REMARK  Name = ZINC03384989
REMARK  7 active torsions:
REMARK  status: ('A' for Active; 'I' for Inactive)
REMARK    1  A    between atoms: C_1  and  C_2
REMARK    2  A    between atoms: C_2  and  C_23
REMARK    3  A    between atoms: N_5  and  N_9
REMARK    4  A    between atoms: C_10  and  C_11
REMARK    5  A    between atoms: C_14  and  C_17
REMARK    6  A    between atoms: C_26  and  O_29
REMARK    7  A    between atoms: O_29  and  C_30
REMARK                            x       y       z     vdW  Elec       q    Type
REMARK                         _______ _______ _______ _____ _____    ______ ____
ROOT
ATOM      1  C   UNL     1      -0.005   1.081   0.013  0.00  0.00    +0.047 C 
ATOM      2  C   UNL     1      -0.728   1.578   1.266  0.00  0.00    +0.137 C 
ATOM      3  C   UNL     1      -2.110   0.963   1.365  0.00  0.00    +0.271 C 
ATOM      4  O   UNL     1      -3.024   1.085   0.577  0.00  0.00    -0.271 OA
ATOM      5  N   UNL     1      -2.112   0.253   2.510  0.00  0.00    -0.109 N 
ATOM      6  C   UNL     1      -0.936   0.333   3.142  0.00  0.00    +0.330 C 
ATOM      7  O   UNL     1      -0.696  -0.224   4.196  0.00  0.00    -0.250 OA
ATOM      8  N   UNL     1      -0.048   1.098   2.482  0.00  0.00    -0.280 N 
ATOM      9  H   UNL     1       0.862   1.295   2.753  0.00  0.00    +0.152 HD
ENDROOT
BRANCH   2  10
ATOM     10  C   UNL     1      -0.813   3.083   1.266  0.00  0.00    -0.015 A 
ATOM     11  C   UNL     1      -1.903   3.712   0.693  0.00  0.00    +0.010 A 
ATOM     12  C   UNL     1      -1.985   5.091   0.696  0.00  0.00    +0.046 A 
ATOM     13  C   UNL     1      -0.968   5.845   1.264  0.00  0.00    +0.127 A 
ATOM     14  C   UNL     1       0.127   5.211   1.833  0.00  0.00    +0.046 A 
ATOM     15  C   UNL     1       0.202   3.831   1.832  0.00  0.00    +0.010 A 
BRANCH  13  16
ATOM     16  O   UNL     1      -1.045   7.202   1.264  0.00  0.00    -0.434 OA
BRANCH  16  17
ATOM     17  C   UNL     1      -2.201   7.786   0.661  0.00  0.00    +0.541 C 
ATOM     18  F   UNL     1      -2.268   7.405  -0.684  0.00  0.00    -0.166 F 
ATOM     19  F   UNL     1      -3.348   7.345   1.328  0.00  0.00    -0.166 F 
ENDBRANCH  16  17
ENDBRANCH  13  16
ENDBRANCH   2  10
BRANCH   5  20
ATOM     20  N   UNL     1      -3.210  -0.479   2.980  0.00  0.00    -0.176 NA
ATOM     21  C   UNL     1      -4.347  -0.417   2.357  0.00  0.00    +0.139 C 
BRANCH  21  22
ATOM     22  C   UNL     1      -5.530  -1.097   2.912  0.00  0.00    -0.005 A 
ATOM     23  C   UNL     1      -5.428  -1.815   4.108  0.00  0.00    +0.010 A 
ATOM     24  C   UNL     1      -6.535  -2.446   4.627  0.00  0.00    +0.009 A 
ATOM     25  C   UNL     1      -7.757  -2.378   3.957  0.00  0.00    -0.018 A 
ATOM     26  C   UNL     1      -7.859  -1.666   2.761  0.00  0.00    +0.009 A 
ATOM     27  C   UNL     1      -6.755  -1.030   2.241  0.00  0.00    +0.010 A 
BRANCH  25  28
ATOM     28  C   UNL     1      -8.948  -3.063   4.515  0.00  0.00    -0.018 A 
ATOM     29  C   UNL     1     -10.171  -2.992   3.851  0.00  0.00    +0.008 A 
ATOM     30  C   UNL     1     -11.275  -3.636   4.373  0.00  0.00    +0.001 A 
ATOM     31  C   UNL     1     -11.171  -4.341   5.558  0.00  0.00    +0.000 A 
ATOM     32  C   UNL     1      -9.960  -4.410   6.224  0.00  0.00    +0.001 A 
ATOM     33  C   UNL     1      -8.849  -3.775   5.709  0.00  0.00    +0.008 A 
ENDBRANCH  25  28
ENDBRANCH  21  22
ENDBRANCH   5  20
TORSDOF 6
