REMARK  Name = ZINC59404995
REMARK  9 active torsions:
REMARK  status: ('A' for Active; 'I' for Inactive)
REMARK    1  A    between atoms: C_1  and  C_2
REMARK    2  A    between atoms: C_2  and  C_3
REMARK    3  A    between atoms: C_3  and  N_4
REMARK    4  A    between atoms: N_4  and  C_5
REMARK    5  A    between atoms: N_4  and  C_19
REMARK    6  A    between atoms: C_5  and  C_6
REMARK    7  A    between atoms: C_14  and  C_16
REMARK    8  A    between atoms: C_19  and  C_21
REMARK    9  A    between atoms: C_19  and  C_22
REMARK                            x       y       z     vdW  Elec       q    Type
REMARK                         _______ _______ _______ _____ _____    ______ ____
ROOT
ATOM      1  N   UNL     1       0.625  -1.939  -1.228  0.00  0.00    +0.390 N 
ATOM      2  H   UNL     1       0.940  -2.150  -0.293  0.00  0.00    -0.080 HD
ENDROOT
BRANCH   1   3
ATOM      3  C   UNL     1       1.470  -2.643  -2.201  0.00  0.00    -0.040 C 
ATOM      4  C   UNL     1       2.922  -2.189  -2.038  0.00  0.00    -0.008 C 
BRANCH   3   5
ATOM      5  C   UNL     1       1.379  -4.128  -1.964  0.00  0.00    -0.060 A 
ATOM      6  C   UNL     1       1.346  -4.621  -0.672  0.00  0.00    +0.003 A 
ATOM      7  C   UNL     1       1.263  -5.983  -0.453  0.00  0.00    +0.021 A 
ATOM      8  C   UNL     1       1.212  -6.854  -1.526  0.00  0.00    +0.059 A 
ATOM      9  C   UNL     1       1.244  -6.361  -2.819  0.00  0.00    +0.059 A 
ATOM     10  C   UNL     1       1.323  -4.997  -3.037  0.00  0.00    +0.023 A 
ATOM     11 CL   UNL     1       1.181  -7.454  -4.167  0.00  0.00    -0.082 Cl
ATOM     12 CL   UNL     1       1.108  -8.565  -1.251  0.00  0.00    -0.082 Cl
ENDBRANCH   3   5
ENDBRANCH   1   3
BRANCH   1  13
ATOM     13  C   UNL     1       0.714  -0.491  -1.460  0.00  0.00    -0.078 C 
BRANCH  13  15
ATOM     14  C   UNL     1       0.414   1.327  -3.148  0.00  0.00    +0.002 C 
ATOM     15  C   UNL     1       0.366  -0.185  -2.918  0.00  0.00    -0.022 C 
ENDBRANCH  13  15
ENDBRANCH   1  13
BRANCH   1  16
ATOM     16  C   UNL     1      -0.769  -2.375  -1.385  0.00  0.00    +0.020 C 
BRANCH  16  17
ATOM     17  C   UNL     1      -1.607  -1.787  -0.279  0.00  0.00    +0.199 C 
ATOM     18  O   UNL     1      -1.077  -1.169   0.620  0.00  0.00    -0.278 OA
ATOM     19  N   UNL     1      -2.945  -1.947  -0.289  0.00  0.00    -0.300 N 
ATOM     20  C   UNL     1      -3.600  -2.699  -1.369  0.00  0.00    +0.126 C 
ATOM     21  C   UNL     1      -4.440  -3.821  -0.745  0.00  0.00    +0.126 C 
ATOM     22  N   UNL     1      -5.270  -3.248   0.324  0.00  0.00    -0.298 N 
ATOM     23  C   UNL     1      -4.615  -2.497   1.403  0.00  0.00    +0.126 C 
ATOM     24  C   UNL     1      -3.775  -1.379   0.783  0.00  0.00    +0.126 C 
ATOM     25  C   UNL     1      -6.608  -3.409   0.314  0.00  0.00    +0.219 C 
ATOM     26  O   UNL     1      -7.137  -4.031  -0.583  0.00  0.00    -0.275 OA
BRANCH  25  27
ATOM     27  C   UNL     1      -7.446  -2.816   1.417  0.00  0.00    +0.075 C 
ATOM     28  C   UNL     1      -8.124  -3.784   2.388  0.00  0.00    +0.013 C 
ATOM     29  C   UNL     1      -8.959  -3.033   1.349  0.00  0.00    +0.013 C 
ENDBRANCH  25  27
ENDBRANCH  16  17
ENDBRANCH   1  16
TORSDOF 7
