REMARK  Name = ZINC31820029
REMARK  7 active torsions:
REMARK  status: ('A' for Active; 'I' for Inactive)
REMARK    1  A    between atoms: C_1  and  C_2
REMARK    2  A    between atoms: C_2  and  C_34
REMARK    3  A    between atoms: C_6  and  C_21
REMARK    4  A    between atoms: C_8  and  C_19
REMARK    5  A    between atoms: C_9  and  N_18
REMARK    6  A    between atoms: C_14  and  S_16
REMARK    7  A    between atoms: S_16  and  C_17
REMARK                            x       y       z     vdW  Elec       q    Type
REMARK                         _______ _______ _______ _____ _____    ______ ____
ROOT
ATOM      1  C   UNL     1      -3.420  -6.309  -2.704  0.00  0.00    +0.011 C 
ATOM      2  C   UNL     1      -2.097  -5.973  -3.395  0.00  0.00    -0.023 C 
ATOM      3  C   UNL     1      -0.931  -6.289  -2.455  0.00  0.00    +0.058 C 
ATOM      4  C   UNL     1      -1.040  -5.443  -1.211  0.00  0.00    +0.027 C 
ATOM      5  C   UNL     1      -1.594  -4.212  -1.253  0.00  0.00    +0.025 C 
ATOM      6  C   UNL     1      -1.689  -3.362  -0.011  0.00  0.00    +0.097 C 
ATOM      7  C   UNL     1      -1.527  -4.194   1.227  0.00  0.00    +0.077 C 
ATOM      8  C   UNL     1      -0.978  -5.434   1.174  0.00  0.00    +0.108 C 
ATOM      9  N   UNL     1      -0.564  -5.954  -0.032  0.00  0.00    -0.237 N 
ATOM     10  C   UNL     1       0.345  -7.009  -0.053  0.00  0.00    +0.194 A 
ATOM     11  N   UNL     1       0.137  -8.313   0.029  0.00  0.00    -0.124 NA
ATOM     12  N   UNL     1       1.084  -9.145  -0.006  0.00  0.00    -0.133 NA
ATOM     13  C   UNL     1       2.348  -8.763  -0.129  0.00  0.00    +0.160 A 
ATOM     14  S   UNL     1       2.129  -6.988  -0.208  0.00  0.00    -0.024 S 
ATOM     15  C   UNL     1      -2.101  -3.687  -2.455  0.00  0.00    +0.162 C 
ATOM     16  O   UNL     1      -2.584  -2.572  -2.461  0.00  0.00    -0.292 OA
ATOM     17  C   UNL     1      -2.057  -4.479  -3.733  0.00  0.00    +0.086 C 
ATOM     18  C   UNL     1      -1.965  -6.794  -4.679  0.00  0.00    +0.011 C 
ENDROOT
BRANCH   6  19
ATOM     19  C   UNL     1      -0.608  -2.313  -0.047  0.00  0.00    -0.034 A 
ATOM     20  C   UNL     1       0.725  -2.699  -0.081  0.00  0.00    +0.006 A 
ATOM     21  C   UNL     1       1.729  -1.756  -0.115  0.00  0.00    +0.026 A 
ATOM     22  C   UNL     1       1.406  -0.403  -0.114  0.00  0.00    +0.046 A 
ATOM     23  C   UNL     1       0.054  -0.017  -0.080  0.00  0.00    -0.000 A 
ATOM     24  C   UNL     1      -0.948  -0.990  -0.046  0.00  0.00    +0.014 A 
ATOM     25  C   UNL     1       0.050   1.448  -0.088  0.00  0.00    +0.027 A 
ATOM     26  C   UNL     1       1.333   1.843  -0.126  0.00  0.00    +0.083 A 
ATOM     27  N   UNL     1       2.157   0.751  -0.142  0.00  0.00    -0.361 N 
ATOM     28  H   UNL     1       3.255   0.692  -0.172  0.00  0.00    +0.165 HD
ENDBRANCH   6  19
BRANCH   8  29
ATOM     29  N   UNL     1      -0.834  -6.170   2.325  0.00  0.00    -0.345 N 
ATOM     30  H   UNL     1      -0.389  -7.175   2.283  0.00  0.00    +0.144 HD
ATOM     31  H   UNL     1      -1.164  -5.755   3.289  0.00  0.00    +0.144 HD
ENDBRANCH   8  29
BRANCH  13  32
ATOM     32  S   UNL     1       3.821  -9.728  -0.201  0.00  0.00    -0.100 S 
ATOM     33  C   UNL     1       3.233 -11.438  -0.066  0.00  0.00    +0.092 C 
ENDBRANCH  13  32
BRANCH   7  34
ATOM     34  C   UNL     1      -1.958  -3.670   2.488  0.00  0.00    +0.099 C 
ATOM     35  N   UNL     1      -2.301  -3.255   3.488  0.00  0.00    -0.191 NA
ENDBRANCH   7  34
TORSDOF 4
