REMARK  Name = ZINC66941945
REMARK  8 active torsions:
REMARK  status: ('A' for Active; 'I' for Inactive)
REMARK    1  A    between atoms: C_1  and  C_2
REMARK    2  A    between atoms: C_2  and  C_3
REMARK    3  A    between atoms: C_3  and  C_5
REMARK    4  A    between atoms: C_3  and  C_6
REMARK    5  A    between atoms: C_6  and  C_8
REMARK    6  A    between atoms: C_6  and  N_20
REMARK    7  A    between atoms: N_10  and  C_11
REMARK    8  A    between atoms: C_11  and  C_12
REMARK                            x       y       z     vdW  Elec       q    Type
REMARK                         _______ _______ _______ _____ _____    ______ ____
ROOT
ATOM      1  C   UNL     1       1.555  -2.507  -2.445  0.00  0.00    +0.234 C 
ATOM      2  O   UNL     1       2.736  -2.780  -2.403  0.00  0.00    -0.274 OA
ATOM      3  N   UNL     1       0.873  -2.639  -3.600  0.00  0.00    -0.310 N 
ATOM      4  H   UNL     1      -0.071  -2.421  -3.633  0.00  0.00    +0.149 HD
ENDROOT
BRANCH   1   5
ATOM      5  C   UNL     1       0.849  -2.021  -1.205  0.00  0.00    +0.163 C 
BRANCH   5   6
ATOM      6  N   UNL     1       1.622  -2.405  -0.021  0.00  0.00    -0.288 N 
ATOM      7  C   UNL     1       2.887  -1.964   0.130  0.00  0.00    +0.298 C 
ATOM      8  O   UNL     1       3.386  -1.248  -0.717  0.00  0.00    -0.253 OA
ATOM      9  N   UNL     1       3.598  -2.317   1.219  0.00  0.00    -0.313 N 
ATOM     10  H   UNL     1       1.224  -2.976   0.654  0.00  0.00    +0.151 HD
ATOM     11  H   UNL     1       3.200  -2.888   1.894  0.00  0.00    +0.146 HD
ATOM     12  H   UNL     1       4.508  -1.999   1.327  0.00  0.00    +0.146 HD
ENDBRANCH   5   6
BRANCH   5  13
ATOM     13  C   UNL     1       0.718  -0.497  -1.257  0.00  0.00    +0.015 C 
ATOM     14  C   UNL     1      -0.089  -0.097  -2.493  0.00  0.00    +0.010 C 
BRANCH  13  16
ATOM     15  C   UNL     1      -0.019   1.526   0.010  0.00  0.00    +0.004 C 
ATOM     16  C   UNL     1       0.002  -0.004   0.002  0.00  0.00    +0.002 C 
ENDBRANCH  13  16
ENDBRANCH   5  13
ENDBRANCH   1   5
BRANCH   3  17
ATOM     17  C   UNL     1       1.559  -3.111  -4.805  0.00  0.00    +0.141 C 
BRANCH  17  18
ATOM     18  C   UNL     1       0.580  -3.169  -5.950  0.00  0.00    -0.012 A 
ATOM     19  C   UNL     1       0.011  -4.375  -6.313  0.00  0.00    +0.008 A 
ATOM     20  C   UNL     1      -0.886  -4.429  -7.362  0.00  0.00    +0.016 A 
ATOM     21  C   UNL     1      -1.216  -3.275  -8.051  0.00  0.00    +0.019 A 
ATOM     22  C   UNL     1      -0.647  -2.067  -7.688  0.00  0.00    +0.035 A 
ATOM     23  C   UNL     1       0.247  -2.013  -6.634  0.00  0.00    +0.047 A 
ATOM     24 CL   UNL     1       0.957  -0.497  -6.175  0.00  0.00    -0.083 Cl
ATOM     25 BR   UNL     1      -2.443  -3.349  -9.488  0.00  0.00    -0.050 Br
ENDBRANCH  17  18
ENDBRANCH   3  17
TORSDOF 6
