REMARK  Name = ZINC36202566
REMARK  13 active torsions:
REMARK  status: ('A' for Active; 'I' for Inactive)
REMARK    1  A    between atoms: C_1  and  C_2
REMARK    2  A    between atoms: C_5  and  C_7
REMARK    3  A    between atoms: C_7  and  N_8
REMARK    4  A    between atoms: N_8  and  C_9
REMARK    5  A    between atoms: N_8  and  C_31
REMARK    6  A    between atoms: C_9  and  C_10
REMARK    7  A    between atoms: C_13  and  C_15
REMARK    8  A    between atoms: C_15  and  C_16
REMARK    9  A    between atoms: C_15  and  C_23
REMARK   10  A    between atoms: C_15  and  O_30
REMARK   11  A    between atoms: C_31  and  C_32
REMARK   12  A    between atoms: C_32  and  C_33
REMARK   13  A    between atoms: C_32  and  C_34
REMARK                            x       y       z     vdW  Elec       q    Type
REMARK                         _______ _______ _______ _____ _____    ______ ____
ROOT
ATOM      1  C   UNL     1       3.289  -4.683  -3.537  0.00  0.00    +0.089 A 
ATOM      2  C   UNL     1       3.809  -4.525  -4.767  0.00  0.00    +0.043 A 
ATOM      3  C   UNL     1       2.969  -5.228  -5.660  0.00  0.00    +0.048 A 
ATOM      4  C   UNL     1       1.986  -5.774  -4.922  0.00  0.00    +0.146 A 
ATOM      5  O   UNL     1       2.188  -5.445  -3.636  0.00  0.00    -0.463 OA
ENDROOT
BRANCH   1   6
ATOM      6  C   UNL     1       3.850  -4.107  -2.262  0.00  0.00    -0.003 C 
BRANCH   6   7
ATOM      7  N   UNL     1       3.255  -2.787  -2.017  0.00  0.00    +0.389 N 
ATOM      8  H   UNL     1       3.386  -2.203  -2.829  0.00  0.00    -0.081 HD
BRANCH   7   9
ATOM      9  C   UNL     1       1.818  -2.940  -1.751  0.00  0.00    -0.003 C 
BRANCH   9  14
ATOM     10  C   UNL     1       0.108   1.353   0.271  0.00  0.00    +0.086 C 
ATOM     11  C   UNL     1       0.440   0.287  -0.742  0.00  0.00    +0.102 A 
ATOM     12  C   UNL     1       0.173   0.344  -2.059  0.00  0.00    +0.044 A 
ATOM     13  C   UNL     1       0.653  -0.860  -2.626  0.00  0.00    +0.043 A 
ATOM     14  C   UNL     1       1.184  -1.579  -1.621  0.00  0.00    +0.089 A 
ATOM     15  O   UNL     1       1.057  -0.877  -0.483  0.00  0.00    -0.467 OA
ENDBRANCH   9  14
ENDBRANCH   7   9
BRANCH   7  16
ATOM     16  C   UNL     1       3.904  -2.165  -0.856  0.00  0.00    -0.075 C 
BRANCH  16  17
ATOM     17  C   UNL     1       5.370  -1.876  -1.185  0.00  0.00    -0.034 C 
ATOM     18  C   UNL     1       5.447  -0.854  -2.321  0.00  0.00    +0.005 C 
ATOM     19  C   UNL     1       6.071  -1.315   0.054  0.00  0.00    +0.005 C 
ENDBRANCH  16  17
ENDBRANCH   7  16
ENDBRANCH   6   7
ENDBRANCH   1   6
BRANCH   4  20
ATOM     20  C   UNL     1       0.853  -6.617  -5.449  0.00  0.00    +0.174 C 
BRANCH  20  21
ATOM     21  C   UNL     1       0.426  -7.602  -4.392  0.00  0.00    -0.002 A 
ATOM     22  C   UNL     1       0.537  -8.960  -4.628  0.00  0.00    +0.007 A 
ATOM     23  C   UNL     1       0.146  -9.865  -3.659  0.00  0.00    +0.003 A 
ATOM     24  C   UNL     1      -0.357  -9.414  -2.453  0.00  0.00    +0.038 A 
ATOM     25  C   UNL     1      -0.468  -8.054  -2.216  0.00  0.00    +0.124 A 
ATOM     26  C   UNL     1      -0.071  -7.148  -3.185  0.00  0.00    +0.045 A 
ATOM     27  F   UNL     1      -0.960  -7.612  -1.038  0.00  0.00    -0.205 F 
ENDBRANCH  20  21
BRANCH  20  28
ATOM     28  C   UNL     1      -0.310  -5.728  -5.806  0.00  0.00    -0.002 A 
ATOM     29  C   UNL     1      -0.659  -4.679  -4.975  0.00  0.00    +0.007 A 
ATOM     30  C   UNL     1      -1.726  -3.863  -5.301  0.00  0.00    +0.003 A 
ATOM     31  C   UNL     1      -2.446  -4.094  -6.458  0.00  0.00    +0.038 A 
ATOM     32  C   UNL     1      -2.098  -5.144  -7.291  0.00  0.00    +0.124 A 
ATOM     33  C   UNL     1      -1.025  -5.957  -6.966  0.00  0.00    +0.045 A 
ATOM     34  F   UNL     1      -2.801  -5.372  -8.422  0.00  0.00    -0.205 F 
ENDBRANCH  20  28
BRANCH  20  35
ATOM     35  O   UNL     1       1.286  -7.324  -6.612  0.00  0.00    -0.372 OA
ATOM     36  H   UNL     1       2.034  -7.917  -6.457  0.00  0.00    +0.212 HD
ENDBRANCH  20  35
ENDBRANCH   4  20
TORSDOF 10
