REMARK  Name = ZINC39686118
REMARK  11 active torsions:
REMARK  status: ('A' for Active; 'I' for Inactive)
REMARK    1  A    between atoms: C_1  and  C_2
REMARK    2  A    between atoms: C_2  and  C_3
REMARK    3  A    between atoms: C_2  and  C_4
REMARK    4  A    between atoms: C_4  and  C_6
REMARK    5  A    between atoms: C_4  and  O_33
REMARK    6  A    between atoms: C_10  and  C_19
REMARK    7  A    between atoms: N_21  and  C_22
REMARK    8  A    between atoms: C_28  and  C_30
REMARK    9  A    between atoms: C_30  and  C_31
REMARK   10  A    between atoms: C_30  and  C_32
REMARK   11  A    between atoms: O_33  and  C_34
REMARK                            x       y       z     vdW  Elec       q    Type
REMARK                         _______ _______ _______ _____ _____    ______ ____
ROOT
ATOM      1  C   UNL     1      -2.483  -0.055  -0.236  0.00  0.00    +0.257 C 
ATOM      2  O   UNL     1      -3.139  -0.711  -1.017  0.00  0.00    -0.272 OA
ATOM      3  N   UNL     1      -2.129   1.208  -0.547  0.00  0.00    -0.297 N 
ATOM      4  C   UNL     1      -1.257   2.123   0.226  0.00  0.00    +0.121 C 
ATOM      5  C   UNL     1      -0.414   2.855  -0.843  0.00  0.00    +0.100 C 
ATOM      6  C   UNL     1      -1.253   2.769  -2.130  0.00  0.00    -0.004 C 
ATOM      7  C   UNL     1      -2.520   1.993  -1.743  0.00  0.00    +0.115 C 
ATOM      8  C   UNL     1      -1.617   4.168  -2.617  0.00  0.00    -0.010 C 
ATOM      9  C   UNL     1      -2.400   4.058  -3.928  0.00  0.00    -0.082 C 
ATOM     10  N   UNL     1      -1.583   3.366  -4.932  0.00  0.00    +0.379 N 
ATOM     11  C   UNL     1      -1.315   1.990  -4.497  0.00  0.00    -0.082 C 
ATOM     12  C   UNL     1      -0.486   2.012  -3.210  0.00  0.00    -0.010 C 
ATOM     13  H   UNL     1      -2.077   3.349  -5.812  0.00  0.00    -0.086 HD
ATOM     14  H   UNL     1      -0.710   3.857  -5.049  0.00  0.00    -0.086 HD
ENDROOT
BRANCH   5  15
ATOM     15  C   UNL     1       0.911   2.163  -1.030  0.00  0.00    +0.218 C 
ATOM     16  O   UNL     1       0.989   0.959  -0.908  0.00  0.00    -0.275 OA
ATOM     17  N   UNL     1       2.010   2.882  -1.334  0.00  0.00    -0.312 N 
ATOM     18  H   UNL     1       1.963   3.851  -1.360  0.00  0.00    +0.149 HD
BRANCH  17  19
ATOM     19  C   UNL     1       3.274   2.201  -1.624  0.00  0.00    +0.076 C 
ATOM     20  C   UNL     1       3.976   1.848  -0.310  0.00  0.00    +0.041 C 
ATOM     21  C   UNL     1       5.280   1.106  -0.617  0.00  0.00    +0.109 C 
ATOM     22  N   UNL     1       6.088   1.926  -1.530  0.00  0.00    -0.301 N 
ATOM     23  C   UNL     1       5.479   2.396  -2.782  0.00  0.00    +0.109 C 
ATOM     24  C   UNL     1       4.172   3.124  -2.451  0.00  0.00    +0.041 C 
ATOM     25  C   UNL     1       7.362   2.240  -1.226  0.00  0.00    +0.218 C 
ATOM     26  O   UNL     1       7.888   1.759  -0.244  0.00  0.00    -0.275 OA
BRANCH  25  27
ATOM     27  C   UNL     1       8.134   3.190  -2.105  0.00  0.00    +0.069 C 
ATOM     28  C   UNL     1       9.467   3.535  -1.436  0.00  0.00    +0.017 C 
ATOM     29  C   UNL     1       8.399   2.531  -3.459  0.00  0.00    +0.017 C 
ENDBRANCH  25  27
ENDBRANCH  17  19
ENDBRANCH   5  15
BRANCH   1  30
ATOM     30  C   UNL     1      -2.061  -0.653   1.081  0.00  0.00    +0.261 C 
BRANCH  30  32
ATOM     31  C   UNL     1      -4.413  -0.731   1.922  0.00  0.00    +0.011 C 
ATOM     32  C   UNL     1      -3.010  -0.178   2.183  0.00  0.00    +0.033 C 
ATOM     33  C   UNL     1      -2.509  -0.680   3.539  0.00  0.00    +0.011 C 
ENDBRANCH  30  32
BRANCH  30  34
ATOM     34  O   UNL     1      -0.729  -0.238   1.389  0.00  0.00    -0.479 OA
BRANCH  34  35
ATOM     35  C   UNL     1       0.071  -1.143   2.010  0.00  0.00    +0.122 A 
ATOM     36  C   UNL     1      -0.416  -2.405   2.320  0.00  0.00    +0.045 A 
ATOM     37  C   UNL     1       0.400  -3.323   2.952  0.00  0.00    +0.004 A 
ATOM     38  C   UNL     1       1.701  -2.987   3.275  0.00  0.00    +0.000 A 
ATOM     39  C   UNL     1       2.189  -1.730   2.967  0.00  0.00    +0.004 A 
ATOM     40  C   UNL     1       1.379  -0.810   2.330  0.00  0.00    +0.045 A 
ENDBRANCH  34  35
ENDBRANCH  30  34
ENDBRANCH   1  30
TORSDOF 7
