REMARK  Name = ZINC40003997
REMARK  10 active torsions:
REMARK  status: ('A' for Active; 'I' for Inactive)
REMARK    1  A    between atoms: C_1  and  C_2
REMARK    2  A    between atoms: C_9  and  C_37
REMARK    3  A    between atoms: C_10  and  C_11
REMARK    4  A    between atoms: C_11  and  C_13
REMARK    5  A    between atoms: N_17  and  C_30
REMARK    6  A    between atoms: C_18  and  C_20
REMARK    7  A    between atoms: C_23  and  C_26
REMARK    8  A    between atoms: C_26  and  O_28
REMARK    9  A    between atoms: O_28  and  C_29
REMARK   10  A    between atoms: C_30  and  C_31
REMARK                            x       y       z     vdW  Elec       q    Type
REMARK                         _______ _______ _______ _____ _____    ______ ____
ROOT
ATOM      1  C   UNL     1       0.162  -3.520   4.309  0.00  0.00    +0.078 C 
ATOM      2  C   UNL     1       0.104  -4.642   5.061  0.00  0.00    +0.249 C 
ATOM      3  C   UNL     1       0.081  -4.271   6.489  0.00  0.00    +0.288 C 
ATOM      4  O   UNL     1       0.030  -5.058   7.413  0.00  0.00    -0.266 OA
ATOM      5  N   UNL     1       0.124  -2.932   6.616  0.00  0.00    -0.276 N 
ATOM      6  C   UNL     1       0.184  -2.353   5.269  0.00  0.00    +0.145 C 
ATOM      7  O   UNL     1       0.072  -5.908   4.579  0.00  0.00    -0.282 OA
ENDROOT
BRANCH   6   8
ATOM      8  C   UNL     1      -1.012  -1.467   5.035  0.00  0.00    -0.022 A 
ATOM      9  C   UNL     1      -2.266  -1.877   5.454  0.00  0.00    +0.006 A 
ATOM     10  C   UNL     1      -3.365  -1.071   5.242  0.00  0.00    +0.015 A 
ATOM     11  C   UNL     1      -3.211   0.161   4.604  0.00  0.00    +0.059 A 
ATOM     12  C   UNL     1      -1.943   0.569   4.184  0.00  0.00    +0.015 A 
ATOM     13  C   UNL     1      -0.852  -0.244   4.407  0.00  0.00    +0.006 A 
BRANCH  11  14
ATOM     14  C   UNL     1      -4.384   1.030   4.374  0.00  0.00    +0.339 C 
ATOM     15  O   UNL     1      -5.485   0.672   4.741  0.00  0.00    -0.245 OA
BRANCH  14  16
ATOM     16  O   UNL     1      -4.232   2.218   3.759  0.00  0.00    -0.464 OA
ATOM     17  C   UNL     1      -5.409   3.006   3.569  0.00  0.00    +0.280 C 
ENDBRANCH  14  16
ENDBRANCH  11  14
ENDBRANCH   6   8
BRANCH   1  18
ATOM     18  C   UNL     1       0.203  -3.449   2.843  0.00  0.00    +0.213 C 
ATOM     19  O   UNL     1      -0.836  -3.404   2.206  0.00  0.00    -0.285 OA
BRANCH  18  29
ATOM     20  C   UNL     1       4.993  -3.297  -0.954  0.00  0.00    +0.047 C 
ATOM     21  C   UNL     1       3.506  -3.279  -0.710  0.00  0.00    -0.008 A 
ATOM     22  C   UNL     1       2.638  -3.183  -1.758  0.00  0.00    +0.008 A 
ATOM     23  C   UNL     1       1.258  -3.166  -1.514  0.00  0.00    +0.018 A 
ATOM     24  C   UNL     1       0.792  -3.246  -0.246  0.00  0.00    +0.093 A 
ATOM     25  N   UNL     1       1.651  -3.341   0.803  0.00  0.00    -0.296 N 
ATOM     26  C   UNL     1       3.001  -3.366   0.599  0.00  0.00    +0.141 A 
ATOM     27  N   UNL     1       3.610  -3.471   1.780  0.00  0.00    -0.232 NA
ATOM     28  C   UNL     1       2.709  -3.521   2.746  0.00  0.00    +0.068 A 
ATOM     29  C   UNL     1       1.449  -3.432   2.169  0.00  0.00    +0.116 A 
ATOM     30  C   UNL     1       2.999  -3.641   4.220  0.00  0.00    +0.068 C 
ENDBRANCH  18  29
ENDBRANCH   1  18
BRANCH   5  31
ATOM     31  C   UNL     1       0.118  -2.185   7.876  0.00  0.00    +0.183 C 
BRANCH  31  32
ATOM     32  C   UNL     1       1.535  -1.977   8.344  0.00  0.00    +0.122 A 
ATOM     33  C   UNL     1       2.319  -0.928   8.037  0.00  0.00    +0.046 A 
ATOM     34  C   UNL     1       3.558  -1.140   8.684  0.00  0.00    +0.041 A 
ATOM     35  C   UNL     1       3.458  -2.305   9.348  0.00  0.00    +0.195 A 
ATOM     36  O   UNL     1       2.228  -2.805   9.143  0.00  0.00    -0.466 OA
ENDBRANCH  31  32
ENDBRANCH   5  31
TORSDOF 7
