REMARK  Name = ZINC04690459
REMARK  10 active torsions:
REMARK  status: ('A' for Active; 'I' for Inactive)
REMARK    1  A    between atoms: C_1  and  C_2
REMARK    2  A    between atoms: C_2  and  C_4
REMARK    3  A    between atoms: C_2  and  N_10
REMARK    4  A    between atoms: C_11  and  C_13
REMARK    5  A    between atoms: C_13  and  C_14
REMARK    6  A    between atoms: C_14  and  C_27
REMARK    7  A    between atoms: N_15  and  N_16
REMARK    8  A    between atoms: C_17  and  C_19
REMARK    9  A    between atoms: C_22  and  O_26
REMARK   10  A    between atoms: C_24  and  O_25
REMARK                            x       y       z     vdW  Elec       q    Type
REMARK                         _______ _______ _______ _____ _____    ______ ____
ROOT
ATOM      1  C   UNL     1       1.083   2.052   0.003  0.00  0.00    +0.043 C 
ATOM      2  N   UNL     1      -0.017   1.397   0.010  0.00  0.00    -0.189 NA
ATOM      3  C   UNL     1       2.398   1.316  -0.014  0.00  0.00    +0.063 C 
ENDROOT
BRANCH   2   4
ATOM      4  N   UNL     1       0.002  -0.004   0.002  0.00  0.00    -0.203 N 
ATOM      5  C   UNL     1      -1.156  -0.694   0.009  0.00  0.00    +0.267 C 
ATOM      6  O   UNL     1      -2.217  -0.100   0.023  0.00  0.00    -0.268 OA
ATOM      7  H   UNL     1       0.849  -0.478  -0.009  0.00  0.00    +0.178 HD
BRANCH   5   8
ATOM      8  C   UNL     1      -1.136  -2.166   0.001  0.00  0.00    +0.080 A 
ATOM      9  C   UNL     1       0.083  -2.852  -0.014  0.00  0.00    +0.020 A 
ATOM     10  C   UNL     1       0.098  -4.227  -0.022  0.00  0.00    +0.046 A 
ATOM     11  C   UNL     1      -1.097  -4.941  -0.014  0.00  0.00    +0.120 A 
ATOM     12  C   UNL     1      -2.312  -4.271   0.002  0.00  0.00    +0.091 A 
ATOM     13  C   UNL     1      -2.340  -2.887   0.015  0.00  0.00    +0.132 A 
BRANCH  13  14
ATOM     14  O   UNL     1      -3.526  -2.230   0.035  0.00  0.00    -0.506 OA
ATOM     15  H   UNL     1      -3.883  -2.035  -0.842  0.00  0.00    +0.292 HD
ENDBRANCH  13  14
BRANCH  11  16
ATOM     16  O   UNL     1      -1.074  -6.298  -0.020  0.00  0.00    -0.507 OA
ATOM     17  H   UNL     1      -1.059  -6.695   0.861  0.00  0.00    +0.292 HD
ENDBRANCH  11  16
ENDBRANCH   5   8
ENDBRANCH   2   4
BRANCH   1  18
ATOM     18  C   UNL     1       1.062   3.559   0.011  0.00  0.00    +0.147 C 
BRANCH  18  20
ATOM     19  N   UNL     1       1.756   5.387   1.525  0.00  0.00    -0.308 N 
ATOM     20  C   UNL     1       1.668   4.062   1.296  0.00  0.00    +0.219 C 
ATOM     21  O   UNL     1       2.076   3.275   2.123  0.00  0.00    -0.275 OA
ATOM     22  H   UNL     1       1.430   6.017   0.864  0.00  0.00    +0.149 HD
BRANCH  19  24
ATOM     23  C   UNL     1       1.274   5.908   3.866  0.00  0.00    +0.033 C 
ATOM     24  C   UNL     1       2.345   5.877   2.774  0.00  0.00    +0.100 C 
BRANCH  24  25
ATOM     25  C   UNL     1       2.888   7.267   2.563  0.00  0.00    -0.027 A 
ATOM     26  C   UNL     1       2.184   8.173   1.791  0.00  0.00    +0.005 A 
ATOM     27  C   UNL     1       2.680   9.450   1.601  0.00  0.00    +0.000 A 
ATOM     28  C   UNL     1       3.882   9.817   2.175  0.00  0.00    +0.000 A 
ATOM     29  C   UNL     1       4.588   8.909   2.942  0.00  0.00    +0.000 A 
ATOM     30  C   UNL     1       4.091   7.634   3.136  0.00  0.00    +0.005 A 
ENDBRANCH  24  25
ENDBRANCH  19  24
ENDBRANCH  18  20
ENDBRANCH   1  18
TORSDOF 8
