REMARK  Name = ZINC39664611
REMARK  10 active torsions:
REMARK  status: ('A' for Active; 'I' for Inactive)
REMARK    1  A    between atoms: C_1  and  N_2
REMARK    2  A    between atoms: N_2  and  C_3
REMARK    3  A    between atoms: N_2  and  C_4
REMARK    4  A    between atoms: C_4  and  C_5
REMARK    5  A    between atoms: C_5  and  C_7
REMARK    6  A    between atoms: C_5  and  N_13
REMARK    7  A    between atoms: C_14  and  C_16
REMARK    8  A    between atoms: C_27  and  C_29
REMARK    9  A    between atoms: C_29  and  C_30
REMARK   10  A    between atoms: C_30  and  C_31
REMARK                            x       y       z     vdW  Elec       q    Type
REMARK                         _______ _______ _______ _____ _____    ______ ____
ROOT
ATOM      1  C   UNL     1       1.413  -2.636  -2.486  0.00  0.00    +0.100 C 
ATOM      2  C   UNL     1       0.897  -3.959  -3.095  0.00  0.00    +0.121 C 
ATOM      3  N   UNL     1       2.095  -4.585  -3.702  0.00  0.00    -0.300 N 
ATOM      4  C   UNL     1       3.185  -4.307  -2.737  0.00  0.00    +0.115 C 
ATOM      5  C   UNL     1       2.915  -2.868  -2.252  0.00  0.00    -0.004 C 
ATOM      6  C   UNL     1       3.736  -1.874  -3.067  0.00  0.00    -0.010 C 
ATOM      7  C   UNL     1       5.224  -2.087  -2.775  0.00  0.00    -0.082 C 
ATOM      8  N   UNL     1       5.474  -1.900  -1.340  0.00  0.00    +0.379 N 
ATOM      9  C   UNL     1       4.753  -2.919  -0.569  0.00  0.00    -0.082 C 
ATOM     10  C   UNL     1       3.245  -2.741  -0.768  0.00  0.00    -0.010 C 
ATOM     11  C   UNL     1       2.175  -5.255  -4.869  0.00  0.00    +0.216 C 
ATOM     12  O   UNL     1       3.238  -5.713  -5.233  0.00  0.00    -0.276 OA
ATOM     13  H   UNL     1       6.464  -1.981  -1.159  0.00  0.00    -0.086 HD
ATOM     14  H   UNL     1       5.158  -0.983  -1.062  0.00  0.00    -0.086 HD
ENDROOT
BRANCH   1  16
ATOM     15  N   UNL     1       0.642  -3.308  -0.234  0.00  0.00    -0.310 N 
ATOM     16  C   UNL     1       0.716  -2.352  -1.181  0.00  0.00    +0.219 C 
ATOM     17  O   UNL     1       0.223  -1.262  -0.981  0.00  0.00    -0.275 OA
ATOM     18  H   UNL     1       1.083  -4.161  -0.371  0.00  0.00    +0.149 HD
BRANCH  15  19
ATOM     19  C   UNL     1      -0.106  -3.060   1.001  0.00  0.00    +0.087 C 
BRANCH  19  20
ATOM     20  C   UNL     1       0.673  -3.595   2.175  0.00  0.00    -0.029 A 
ATOM     21  C   UNL     1       1.347  -4.797   2.068  0.00  0.00    +0.005 A 
ATOM     22  C   UNL     1       2.062  -5.287   3.145  0.00  0.00    +0.000 A 
ATOM     23  C   UNL     1       2.102  -4.575   4.329  0.00  0.00    +0.000 A 
ATOM     24  C   UNL     1       1.429  -3.372   4.436  0.00  0.00    +0.000 A 
ATOM     25  C   UNL     1       0.718  -2.880   3.358  0.00  0.00    +0.005 A 
ENDBRANCH  19  20
BRANCH  19  26
ATOM     26  C   UNL     1      -1.462  -3.764   0.926  0.00  0.00    -0.052 C 
BRANCH  26  28
ATOM     27  C   UNL     1      -3.427  -4.067  -0.416  0.00  0.00    -0.097 C 
ATOM     28  N   UNL     1      -2.208  -3.268  -0.238  0.00  0.00    +0.377 N 
ATOM     29  C   UNL     1      -2.571  -1.860  -0.024  0.00  0.00    -0.097 C 
ATOM     30  H   UNL     1      -1.632  -3.345  -1.064  0.00  0.00    -0.083 HD
ENDBRANCH  26  28
ENDBRANCH  19  26
ENDBRANCH  15  19
ENDBRANCH   1  16
BRANCH  11  31
ATOM     31  C   UNL     1       0.945  -5.435  -5.720  0.00  0.00    +0.096 C 
BRANCH  31  32
ATOM     32  C   UNL     1       1.308  -6.225  -6.979  0.00  0.00    +0.013 C 
BRANCH  32  33
ATOM     33  C   UNL     1       0.059  -6.408  -7.844  0.00  0.00    -0.011 C 
ATOM     34  C   UNL     1      -0.942  -7.343  -7.134  0.00  0.00    +0.003 C 
ATOM     35  C   UNL     1      -1.563  -8.177  -8.283  0.00  0.00    +0.000 C 
ATOM     36  C   UNL     1      -0.355  -8.417  -9.222  0.00  0.00    +0.000 C 
ATOM     37  C   UNL     1       0.433  -7.091  -9.171  0.00  0.00    +0.003 C 
ENDBRANCH  32  33
ENDBRANCH  31  32
ENDBRANCH  11  31
TORSDOF 8
