REMARK  Name = ZINC64417077
REMARK  10 active torsions:
REMARK  status: ('A' for Active; 'I' for Inactive)
REMARK    1  A    between atoms: C_1  and  C_2
REMARK    2  A    between atoms: C_3  and  C_36
REMARK    3  A    between atoms: C_14  and  C_19
REMARK    4  A    between atoms: C_16  and  C_18
REMARK    5  A    between atoms: C_19  and  C_20
REMARK    6  A    between atoms: N_22  and  C_23
REMARK    7  A    between atoms: C_23  and  C_24
REMARK    8  A    between atoms: C_24  and  C_25
REMARK    9  A    between atoms: C_29  and  O_34
REMARK   10  A    between atoms: O_34  and  C_35
REMARK                            x       y       z     vdW  Elec       q    Type
REMARK                         _______ _______ _______ _____ _____    ______ ____
ROOT
ATOM      1  C   UNL     1       2.098  -2.806   5.497  0.00  0.00    +0.111 C 
ENDROOT
BRANCH   1  15
ATOM      2  C   UNL     1      -0.018   1.503   0.010  0.00  0.00    +0.048 C 
ATOM      3  C   UNL     1       0.002  -0.004   0.002  0.00  0.00    -0.002 A 
ATOM      4  C   UNL     1       0.009  -0.802  -1.074  0.00  0.00    +0.106 A 
ATOM      5  O   UNL     1       0.028  -2.092  -0.694  0.00  0.00    -0.460 OA
ATOM      6  C   UNL     1       0.037  -2.197   0.651  0.00  0.00    +0.139 A 
ATOM      7  C   UNL     1       0.025  -0.892   1.171  0.00  0.00    +0.024 A 
ATOM      8  C   UNL     1       0.032  -0.690   2.549  0.00  0.00    +0.019 A 
ATOM      9  C   UNL     1       0.058  -1.762   3.403  0.00  0.00    -0.001 A 
ATOM     10  C   UNL     1       0.080  -3.055   2.897  0.00  0.00    +0.139 A 
ATOM     11  C   UNL     1       0.059  -3.272   1.526  0.00  0.00    +0.093 A 
ATOM     12  O   UNL     1       0.126  -4.144   3.715  0.00  0.00    -0.425 OA
ATOM     13  C   UNL     1      -0.071  -3.942   5.032  0.00  0.00    +0.316 C 
ATOM     14  O   UNL     1      -0.736  -4.702   5.696  0.00  0.00    -0.250 OA
ATOM     15  C   UNL     1       0.578  -2.715   5.642  0.00  0.00    +0.114 C 
ATOM     16  C   UNL     1       0.054  -1.490   4.887  0.00  0.00    +0.034 C 
ATOM     17  C   UNL     1      -1.373  -1.183   5.344  0.00  0.00    +0.013 C 
ATOM     18  C   UNL     1      -0.004  -0.325  -2.503  0.00  0.00    +0.086 C 
ENDBRANCH   1  15
BRANCH   1  19
ATOM     19  C   UNL     1       2.612  -3.968   6.307  0.00  0.00    +0.214 C 
ATOM     20  O   UNL     1       1.838  -4.656   6.938  0.00  0.00    -0.276 OA
ATOM     21  N   UNL     1       3.931  -4.243   6.329  0.00  0.00    -0.315 N 
ATOM     22  H   UNL     1       4.550  -3.693   5.824  0.00  0.00    +0.149 HD
BRANCH  21  23
ATOM     23  C   UNL     1       4.430  -5.373   7.117  0.00  0.00    +0.108 C 
BRANCH  23  24
ATOM     24  C   UNL     1       5.951  -5.464   6.971  0.00  0.00    +0.052 C 
BRANCH  24  25
ATOM     25  C   UNL     1       6.464  -6.626   7.781  0.00  0.00    -0.040 C 
ATOM     26  C   UNL     1       6.714  -7.878   7.337  0.00  0.00    -0.001 A 
ATOM     27  C   UNL     1       6.586  -8.506   6.016  0.00  0.00    +0.013 A 
ATOM     28  C   UNL     1       6.919  -9.807   5.872  0.00  0.00    +0.046 A 
ATOM     29  C   UNL     1       7.384 -10.574   6.958  0.00  0.00    +0.122 A 
ATOM     30  C   UNL     1       7.527 -10.060   8.206  0.00  0.00    +0.071 A 
ATOM     31  C   UNL     1       7.206  -8.704   8.463  0.00  0.00    +0.046 A 
ATOM     32  N   UNL     1       7.258  -7.988   9.563  0.00  0.00    -0.380 N 
ATOM     33  C   UNL     1       6.811  -6.625   9.253  0.00  0.00    +0.144 C 
ATOM     34  H   UNL     1       7.548  -8.305  10.432  0.00  0.00    +0.160 HD
BRANCH  29  35
ATOM     35  O   UNL     1       7.701 -11.876   6.748  0.00  0.00    -0.495 OA
ATOM     36  C   UNL     1       7.535 -12.378   5.421  0.00  0.00    +0.277 C 
ENDBRANCH  29  35
ENDBRANCH  24  25
ENDBRANCH  23  24
ENDBRANCH  21  23
ENDBRANCH   1  19
TORSDOF 6
