REMARK  Name = ZINC39914013
REMARK  15 active torsions:
REMARK  status: ('A' for Active; 'I' for Inactive)
REMARK    1  A    between atoms: C_1  and  C_2
REMARK    2  A    between atoms: C_2  and  C_3
REMARK    3  A    between atoms: C_3  and  O_4
REMARK    4  A    between atoms: O_4  and  C_5
REMARK    5  A    between atoms: C_8  and  C_14
REMARK    6  A    between atoms: C_10  and  O_11
REMARK    7  A    between atoms: O_11  and  C_12
REMARK    8  A    between atoms: C_12  and  C_13
REMARK    9  A    between atoms: C_17  and  C_29
REMARK   10  A    between atoms: N_24  and  C_25
REMARK   11  A    between atoms: C_25  and  C_26
REMARK   12  A    between atoms: C_26  and  C_27
REMARK   13  A    between atoms: C_27  and  O_28
REMARK   14  A    between atoms: C_32  and  C_36
REMARK   15  A    between atoms: C_34  and  O_35
REMARK                            x       y       z     vdW  Elec       q    Type
REMARK                         _______ _______ _______ _____ _____    ______ ____
ROOT
ATOM      1  C   UNL     1       4.072  -4.304   5.032  0.00  0.00    +0.141 C 
ATOM      2  C   UNL     1       5.511  -4.212   4.601  0.00  0.00    +0.035 A 
ATOM      3  C   UNL     1       6.478  -4.537   3.644  0.00  0.00    +0.102 A 
ATOM      4  N   UNL     1       7.624  -4.029   4.053  0.00  0.00    -0.173 NA
ATOM      5  N   UNL     1       7.476  -3.414   5.173  0.00  0.00    -0.272 N 
ATOM      6  H   UNL     1       8.184  -2.965   5.659  0.00  0.00    +0.189 HD
ATOM      7  C   UNL     1       6.172  -3.490   5.575  0.00  0.00    +0.126 A 
ATOM      8  C   UNL     1       5.207  -3.116   6.615  0.00  0.00    +0.265 C 
ATOM      9  O   UNL     1       5.476  -2.474   7.613  0.00  0.00    -0.268 OA
ATOM     10  N   UNL     1       3.983  -3.585   6.309  0.00  0.00    -0.285 N 
ENDROOT
BRANCH   3  11
ATOM     11  C   UNL     1       6.256  -5.313   2.398  0.00  0.00    +0.045 A 
ATOM     12  C   UNL     1       5.019  -5.903   2.153  0.00  0.00    +0.034 A 
ATOM     13  C   UNL     1       4.817  -6.624   0.993  0.00  0.00    +0.045 A 
ATOM     14  C   UNL     1       5.841  -6.762   0.071  0.00  0.00    -0.029 A 
ATOM     15  C   UNL     1       7.073  -6.181   0.306  0.00  0.00    +0.050 A 
ATOM     16  C   UNL     1       7.286  -5.450   1.464  0.00  0.00    +0.126 A 
ATOM     17  C   UNL     1       5.613  -7.551  -1.192  0.00  0.00    +0.045 C 
ATOM     18 CL   UNL     1       3.274  -7.359   0.688  0.00  0.00    -0.083 Cl
BRANCH  16  19
ATOM     19  O   UNL     1       8.495  -4.873   1.693  0.00  0.00    -0.506 OA
ATOM     20  H   UNL     1       9.118  -5.440   2.168  0.00  0.00    +0.292 HD
ENDBRANCH  16  19
ENDBRANCH   3  11
BRANCH   1  24
ATOM     21  C   UNL     1       1.541  -2.458   2.121  0.00  0.00    +0.162 A 
ATOM     22  C   UNL     1       1.513  -3.833   2.296  0.00  0.00    +0.050 A 
ATOM     23  C   UNL     1       2.333  -4.426   3.237  0.00  0.00    +0.009 A 
ATOM     24  C   UNL     1       3.181  -3.651   4.006  0.00  0.00    -0.019 A 
ATOM     25  C   UNL     1       3.213  -2.280   3.837  0.00  0.00    +0.055 A 
ATOM     26  C   UNL     1       2.399  -1.679   2.890  0.00  0.00    +0.162 A 
BRANCH  21  27
ATOM     27  O   UNL     1       0.735  -1.873   1.194  0.00  0.00    -0.488 OA
BRANCH  27  28
ATOM     28  C   UNL     1      -0.120  -2.735   0.441  0.00  0.00    +0.229 C 
BRANCH  28  30
ATOM     29  C   UNL     1      -1.860  -2.825  -1.350  0.00  0.00    +0.007 C 
ATOM     30  C   UNL     1      -0.944  -1.902  -0.543  0.00  0.00    +0.038 C 
ENDBRANCH  28  30
ENDBRANCH  27  28
ENDBRANCH  21  27
BRANCH  26  31
ATOM     31  O   UNL     1       2.434  -0.331   2.718  0.00  0.00    -0.489 OA
BRANCH  31  32
ATOM     32  C   UNL     1       3.373   0.400   3.510  0.00  0.00    +0.226 C 
ATOM     33  C   UNL     1       3.309   1.883   3.137  0.00  0.00    +0.048 C 
ENDBRANCH  31  32
ENDBRANCH  26  31
ENDBRANCH   1  24
BRANCH  10  34
ATOM     34  C   UNL     1       2.769  -3.409   7.112  0.00  0.00    +0.111 C 
BRANCH  34  35
ATOM     35  C   UNL     1       2.637  -4.570   8.099  0.00  0.00    +0.047 C 
BRANCH  35  36
ATOM     36  C   UNL     1       1.370  -4.386   8.936  0.00  0.00    +0.157 C 
BRANCH  36  37
ATOM     37  O   UNL     1       1.247  -5.471   9.858  0.00  0.00    -0.395 OA
ATOM     38  H   UNL     1       0.464  -5.419  10.423  0.00  0.00    +0.209 HD
ENDBRANCH  36  37
ENDBRANCH  35  36
ENDBRANCH  34  35
ENDBRANCH  10  34
TORSDOF 12
