REMARK  Name = ZINC38688764
REMARK  8 active torsions:
REMARK  status: ('A' for Active; 'I' for Inactive)
REMARK    1  A    between atoms: C_1  and  N_2
REMARK    2  A    between atoms: C_10  and  C_12
REMARK    3  A    between atoms: C_12  and  C_14
REMARK    4  A    between atoms: C_12  and  N_28
REMARK    5  A    between atoms: C_14  and  N_15
REMARK    6  A    between atoms: C_16  and  C_18
REMARK    7  A    between atoms: C_18  and  C_19
REMARK    8  A    between atoms: C_22  and  N_25
REMARK                            x       y       z     vdW  Elec       q    Type
REMARK                         _______ _______ _______ _____ _____    ______ ____
ROOT
ATOM      1  C   UNL     1       4.947  -2.736  -0.477  0.00  0.00    -0.020 C 
ENDROOT
BRANCH   1  11
ATOM      2  C   UNL     1       0.165   1.535   0.731  0.00  0.00    +0.129 C 
ATOM      3  N   UNL     1       0.139   0.077   0.589  0.00  0.00    -0.333 N 
ATOM      4  C   UNL     1      -1.124  -0.663   0.713  0.00  0.00    +0.105 C 
ATOM      5  C   UNL     1      -0.862  -1.892   1.593  0.00  0.00    +0.024 C 
ATOM      6  C   UNL     1       0.146  -2.799   0.887  0.00  0.00    +0.038 C 
ATOM      7  C   UNL     1       1.359  -2.012   0.468  0.00  0.00    -0.026 A 
ATOM      8  C   UNL     1       1.316  -0.632   0.327  0.00  0.00    +0.033 A 
ATOM      9  C   UNL     1       2.452   0.064  -0.072  0.00  0.00    +0.023 A 
ATOM     10  C   UNL     1       3.624  -0.618  -0.332  0.00  0.00    +0.004 A 
ATOM     11  C   UNL     1       3.667  -1.993  -0.195  0.00  0.00    -0.059 A 
ATOM     12  C   UNL     1       2.541  -2.688   0.212  0.00  0.00    +0.007 A 
ENDBRANCH   1  11
BRANCH   1  13
ATOM     13  N   UNL     1       5.602  -2.154  -1.657  0.00  0.00    +0.385 N 
ATOM     14  C   UNL     1       6.832  -2.917  -1.988  0.00  0.00    -0.078 C 
ATOM     15  C   UNL     1       7.067  -2.580  -3.482  0.00  0.00    -0.020 C 
ATOM     16  C   UNL     1       5.632  -2.531  -4.055  0.00  0.00    -0.020 C 
ATOM     17  C   UNL     1       4.722  -2.275  -2.839  0.00  0.00    -0.078 C 
ATOM     18  H   UNL     1       5.827  -1.185  -1.487  0.00  0.00    -0.081 HD
ENDBRANCH   1  13
BRANCH   1  19
ATOM     19  C   UNL     1       5.880  -2.624   0.731  0.00  0.00    +0.093 C 
BRANCH  19  20
ATOM     20  N   UNL     1       5.284  -3.322   1.873  0.00  0.00    -0.316 N 
ATOM     21  C   UNL     1       5.969  -3.429   3.029  0.00  0.00    +0.217 C 
ATOM     22  O   UNL     1       7.079  -2.947   3.123  0.00  0.00    -0.275 OA
ATOM     23  H   UNL     1       4.397  -3.707   1.798  0.00  0.00    +0.149 HD
BRANCH  21  24
ATOM     24  C   UNL     1       5.357  -4.146   4.204  0.00  0.00    +0.130 C 
BRANCH  24  25
ATOM     25  C   UNL     1       6.320  -4.125   5.363  0.00  0.00    -0.038 A 
ATOM     26  C   UNL     1       7.245  -5.141   5.513  0.00  0.00    +0.006 A 
ATOM     27  C   UNL     1       8.128  -5.122   6.576  0.00  0.00    +0.033 A 
ATOM     28  C   UNL     1       8.087  -4.085   7.489  0.00  0.00    +0.126 A 
ATOM     29  C   UNL     1       7.163  -3.068   7.339  0.00  0.00    +0.033 A 
ATOM     30  C   UNL     1       6.283  -3.085   6.274  0.00  0.00    +0.006 A 
BRANCH  28  31
ATOM     31  N   UNL     1       9.033  -4.065   8.628  0.00  0.00    +0.056 N 
ATOM     32  O   UNL     1       9.840  -4.955   8.759  0.00  0.00    -0.126 OA
ATOM     33  O   UNL     1       8.997  -3.158   9.427  0.00  0.00    -0.126 OA
ENDBRANCH  28  31
ENDBRANCH  24  25
ENDBRANCH  21  24
ENDBRANCH  19  20
ENDBRANCH   1  19
TORSDOF 7
