REMARK  Name = ZINC38981223
REMARK  7 active torsions:
REMARK  status: ('A' for Active; 'I' for Inactive)
REMARK    1  A    between atoms: C_1  and  C_2
REMARK    2  A    between atoms: C_5  and  N_9
REMARK    3  A    between atoms: C_6  and  C_8
REMARK    4  A    between atoms: N_9  and  C_10
REMARK    5  A    between atoms: C_10  and  C_11
REMARK    6  A    between atoms: C_18  and  C_23
REMARK    7  A    between atoms: C_24  and  C_26
REMARK                            x       y       z     vdW  Elec       q    Type
REMARK                         _______ _______ _______ _____ _____    ______ ____
ROOT
ATOM      1  N   UNL     1      -0.253  -4.514   0.285  0.00  0.00    -0.266 N 
ATOM      2  C   UNL     1      -1.281  -5.378   0.402  0.00  0.00    +0.251 C 
ATOM      3  O   UNL     1      -1.077  -6.575   0.353  0.00  0.00    -0.270 OA
ENDROOT
BRANCH   1   8
ATOM      4  C   UNL     1      -1.240   1.070   0.159  0.00  0.00    +0.044 C 
ATOM      5  C   UNL     1      -0.978  -0.414   0.192  0.00  0.00    -0.050 A 
ATOM      6  C   UNL     1      -1.277  -1.142   1.330  0.00  0.00    +0.005 A 
ATOM      7  C   UNL     1      -1.038  -2.501   1.364  0.00  0.00    +0.024 A 
ATOM      8  C   UNL     1      -0.496  -3.138   0.254  0.00  0.00    +0.040 A 
ATOM      9  C   UNL     1      -0.197  -2.404  -0.886  0.00  0.00    -0.029 A 
ATOM     10  C   UNL     1      -0.443  -1.045  -0.916  0.00  0.00    +0.008 A 
ATOM     11  C   UNL     1       0.391  -3.090  -2.092  0.00  0.00    +0.045 C 
ENDBRANCH   1   8
BRANCH   2  12
ATOM     12  C   UNL     1      -2.659  -4.868   0.589  0.00  0.00    +0.040 A 
ATOM     13  C   UNL     1      -3.092  -3.712  -0.067  0.00  0.00    +0.033 A 
ATOM     14  C   UNL     1      -4.386  -3.272   0.136  0.00  0.00    +0.111 A 
ATOM     15  N   UNL     1      -5.207  -3.927   0.933  0.00  0.00    -0.263 NA
ATOM     16  C   UNL     1      -4.838  -5.020   1.570  0.00  0.00    +0.111 A 
ATOM     17  C   UNL     1      -3.564  -5.533   1.421  0.00  0.00    +0.033 A 
ENDBRANCH   2  12
BRANCH   1  18
ATOM     18  C   UNL     1       1.120  -5.018   0.192  0.00  0.00    +0.131 C 
BRANCH  18  19
ATOM     19  C   UNL     1       1.644  -5.333   1.594  0.00  0.00    +0.116 C 
ATOM     20  C   UNL     1       2.824  -6.274   1.448  0.00  0.00    -0.003 C 
ATOM     21  C   UNL     1       4.016  -5.867   1.970  0.00  0.00    -0.007 A 
ATOM     22  C   UNL     1       5.205  -6.714   1.874  0.00  0.00    +0.009 A 
ATOM     23  C   UNL     1       6.372  -6.268   2.409  0.00  0.00    +0.001 A 
ATOM     24  C   UNL     1       6.453  -5.027   3.042  0.00  0.00    +0.005 A 
ATOM     25  C   UNL     1       5.386  -4.196   3.164  0.00  0.00    -0.029 A 
ATOM     26  C   UNL     1       4.131  -4.562   2.644  0.00  0.00    +0.043 A 
ATOM     27  N   UNL     1       3.091  -3.738   2.768  0.00  0.00    -0.284 N 
ATOM     28  C   UNL     1       1.886  -4.021   2.305  0.00  0.00    +0.226 C 
ATOM     29  O   UNL     1       0.975  -3.227   2.449  0.00  0.00    -0.275 OA
ATOM     30  C   UNL     1       5.547  -2.869   3.862  0.00  0.00    +0.045 C 
ATOM     31  H   UNL     1       3.225  -2.890   3.221  0.00  0.00    +0.155 HD
ENDBRANCH  18  19
ENDBRANCH   1  18
TORSDOF 4
