REMARK  Name = ZINC28686107
REMARK  5 active torsions:
REMARK  status: ('A' for Active; 'I' for Inactive)
REMARK    1  A    between atoms: C_1  and  C_2
REMARK    2  A    between atoms: C_2  and  N_3
REMARK    3  A    between atoms: N_10  and  C_13
REMARK    4  A    between atoms: C_13  and  C_14
REMARK    5  A    between atoms: C_19  and  C_22
REMARK                            x       y       z     vdW  Elec       q    Type
REMARK                         _______ _______ _______ _____ _____    ______ ____
ROOT
ATOM      1  C   UNL     1       4.287  -0.294  -3.640  0.00  0.00    +0.239 C 
ATOM      2  O   UNL     1       3.717   0.777  -3.630  0.00  0.00    -0.273 OA
ATOM      3  N   UNL     1       5.524  -0.394  -4.166  0.00  0.00    -0.263 N 
ATOM      4  C   UNL     1       6.146   0.730  -4.696  0.00  0.00    +0.165 A 
ATOM      5  N   UNL     1       7.337   0.840  -5.254  0.00  0.00    -0.225 NA
ATOM      6  C   UNL     1       7.778   2.002  -5.712  0.00  0.00    +0.080 A 
ATOM      7  C   UNL     1       6.984   3.110  -5.603  0.00  0.00    +0.076 A 
ATOM      8  S   UNL     1       5.544   2.409  -4.809  0.00  0.00    -0.060 S 
ATOM      9  H   UNL     1       5.979  -1.250  -4.175  0.00  0.00    +0.157 HD
ENDROOT
BRANCH   6  10
ATOM     10  C   UNL     1       9.120   2.101  -6.335  0.00  0.00    +0.001 A 
ATOM     11  C   UNL     1       9.585   3.326  -6.810  0.00  0.00    +0.013 A 
ATOM     12  C   UNL     1      10.833   3.418  -7.385  0.00  0.00    +0.046 A 
ATOM     13  C   UNL     1      11.643   2.289  -7.499  0.00  0.00    +0.124 A 
ATOM     14  C   UNL     1      11.170   1.069  -7.029  0.00  0.00    -0.002 A 
ATOM     15  C   UNL     1       9.929   0.970  -6.445  0.00  0.00    +0.017 A 
ATOM     16  C   UNL     1      12.246   0.038  -7.309  0.00  0.00    +0.080 C 
ATOM     17  C   UNL     1      13.147   0.782  -8.323  0.00  0.00    +0.234 C 
ATOM     18  O   UNL     1      12.896   2.164  -8.016  0.00  0.00    -0.491 OA
ENDBRANCH   6  10
BRANCH   1  19
ATOM     19  C   UNL     1       3.611  -1.513  -3.066  0.00  0.00    +0.223 C 
BRANCH  19  27
ATOM     20  N   UNL     1       0.688  -0.476  -1.203  0.00  0.00    -0.292 N 
ATOM     21  C   UNL     1       0.087  -0.744  -2.431  0.00  0.00    +0.070 A 
ATOM     22  C   UNL     1      -1.220  -0.666  -2.888  0.00  0.00    +0.028 A 
ATOM     23  C   UNL     1      -1.513  -1.008  -4.193  0.00  0.00    +0.002 A 
ATOM     24  C   UNL     1      -0.508  -1.429  -5.048  0.00  0.00    +0.002 A 
ATOM     25  C   UNL     1       0.796  -1.510  -4.601  0.00  0.00    +0.028 A 
ATOM     26  C   UNL     1       1.101  -1.168  -3.293  0.00  0.00    +0.070 A 
ATOM     27  N   UNL     1       2.286  -1.145  -2.562  0.00  0.00    -0.283 N 
ATOM     28  C   UNL     1       2.007  -0.720  -1.315  0.00  0.00    +0.331 A 
ATOM     29  O   UNL     1       2.823  -0.581  -0.423  0.00  0.00    -0.246 OA
BRANCH  20  31
ATOM     30  C   UNL     1      -0.019   1.526   0.010  0.00  0.00    +0.027 C 
ATOM     31  C   UNL     1       0.002  -0.004   0.002  0.00  0.00    +0.123 C 
ENDBRANCH  20  31
ENDBRANCH  19  27
ENDBRANCH   1  19
TORSDOF 4
