REMARK  Name = ZINC09218970
REMARK  6 active torsions:
REMARK  status: ('A' for Active; 'I' for Inactive)
REMARK    1  A    between atoms: C_4  and  C_7
REMARK    2  A    between atoms: C_7  and  N_8
REMARK    3  A    between atoms: N_8  and  C_9
REMARK    4  A    between atoms: C_17  and  C_19
REMARK    5  A    between atoms: C_19  and  N_20
REMARK    6  A    between atoms: C_22  and  C_25
REMARK                            x       y       z     vdW  Elec       q    Type
REMARK                         _______ _______ _______ _____ _____    ______ ____
ROOT
ATOM      1  N   UNL     1       4.105   2.343  -1.365  0.00  0.00    -0.291 N 
ATOM      2  C   UNL     1       4.751   1.456  -2.147  0.00  0.00    +0.239 C 
ATOM      3  O   UNL     1       5.207   0.441  -1.665  0.00  0.00    -0.273 OA
ENDROOT
BRANCH   1   4
ATOM      4  C   UNL     1       3.653   3.619  -1.924  0.00  0.00    +0.099 C 
ATOM      5  C   UNL     1       2.808   4.364  -0.877  0.00  0.00    +0.047 C 
ATOM      6  C   UNL     1       2.609   5.827  -1.367  0.00  0.00    +0.168 C 
ATOM      7  S   UNL     1       4.288   6.191  -2.033  0.00  0.00    -0.029 S 
ATOM      8  O   UNL     1       5.071   6.790  -1.009  0.00  0.00    -0.174 OA
ATOM      9  O   UNL     1       4.157   6.846  -3.287  0.00  0.00    -0.174 OA
ATOM     10  C   UNL     1       4.883   4.474  -2.313  0.00  0.00    +0.188 C 
ENDBRANCH   1   4
BRANCH   1  11
ATOM     11  C   UNL     1       3.854   2.030   0.044  0.00  0.00    +0.143 C 
BRANCH  11  15
ATOM     12  C   UNL     1       0.293  -0.305   0.376  0.00  0.00    +0.000 A 
ATOM     13  C   UNL     1       0.242   1.064   0.564  0.00  0.00    +0.000 A 
ATOM     14  C   UNL     1       1.395   1.819   0.457  0.00  0.00    +0.005 A 
ATOM     15  C   UNL     1       2.598   1.207   0.160  0.00  0.00    -0.030 A 
ATOM     16  C   UNL     1       2.648  -0.162  -0.027  0.00  0.00    +0.005 A 
ATOM     17  C   UNL     1       1.496  -0.918   0.081  0.00  0.00    +0.000 A 
ENDBRANCH  11  15
ENDBRANCH   1  11
BRANCH   2  18
ATOM     18  C   UNL     1       4.907   1.725  -3.622  0.00  0.00    +0.264 C 
BRANCH  18  19
ATOM     19  N   UNL     1       5.508   0.557  -4.271  0.00  0.00    -0.154 N 
ATOM     20  N   UNL     1       6.772   0.362  -4.431  0.00  0.00    -0.130 NA
ATOM     21  C   UNL     1       6.926  -0.792  -5.050  0.00  0.00    +0.206 A 
ATOM     22  N   UNL     1       5.696  -1.281  -5.262  0.00  0.00    -0.108 NA
ATOM     23  N   UNL     1       4.857  -0.432  -4.774  0.00  0.00    -0.045 NA
BRANCH  21  24
ATOM     24  C   UNL     1       8.211  -1.424  -5.440  0.00  0.00    +0.041 A 
ATOM     25  C   UNL     1       8.215  -2.652  -6.098  0.00  0.00    +0.013 A 
ATOM     26  C   UNL     1       9.412  -3.235  -6.459  0.00  0.00    +0.001 A 
ATOM     27  C   UNL     1      10.608  -2.603  -6.169  0.00  0.00    +0.001 A 
ATOM     28  C   UNL     1      10.612  -1.384  -5.517  0.00  0.00    +0.021 A 
ATOM     29  C   UNL     1       9.418  -0.788  -5.155  0.00  0.00    +0.052 A 
ATOM     30 CL   UNL     1       9.423   0.745  -4.342  0.00  0.00    -0.083 Cl
ENDBRANCH  21  24
ENDBRANCH  18  19
ENDBRANCH   2  18
TORSDOF 6
