REMARK  Name = ZINC14530641
REMARK  12 active torsions:
REMARK  status: ('A' for Active; 'I' for Inactive)
REMARK    1  A    between atoms: C_1  and  C_2
REMARK    2  A    between atoms: C_2  and  C_3
REMARK    3  A    between atoms: C_2  and  N_4
REMARK    4  A    between atoms: C_6  and  O_18
REMARK    5  A    between atoms: C_12  and  C_13
REMARK    6  A    between atoms: C_12  and  N_59
REMARK    7  A    between atoms: O_18  and  C_19
REMARK    8  A    between atoms: C_19  and  C_20
REMARK    9  A    between atoms: C_22  and  O_28
REMARK   10  A    between atoms: C_24  and  O_26
REMARK   11  A    between atoms: O_26  and  C_27
REMARK   12  A    between atoms: O_28  and  C_29
REMARK                            x       y       z     vdW  Elec       q    Type
REMARK                         _______ _______ _______ _____ _____    ______ ____
ROOT
ATOM      1  N   UNL     1       5.035  -1.846  -2.614  0.00  0.00    -0.298 N 
ATOM      2  C   UNL     1       4.112  -0.711  -2.781  0.00  0.00    +0.137 C 
ATOM      3  C   UNL     1       4.133   0.122  -1.497  0.00  0.00    +0.120 C 
ATOM      4  C   UNL     1       5.268   1.127  -1.526  0.00  0.00    -0.044 C 
ATOM      5  C   UNL     1       6.902  -0.227  -2.715  0.00  0.00    +0.019 C 
ATOM      6  C   UNL     1       6.353  -1.631  -2.575  0.00  0.00    +0.199 C 
ATOM      7  O   UNL     1       7.113  -2.565  -2.427  0.00  0.00    -0.278 OA
ATOM      8  N   UNL     1       6.604   0.501  -1.458  0.00  0.00    +0.390 N 
ATOM      9  H   UNL     1       6.617  -0.167  -0.679  0.00  0.00    -0.081 HD
ENDROOT
BRANCH   1  11
ATOM     10  C   UNL     1       5.057  -4.071  -3.628  0.00  0.00    +0.028 C 
ATOM     11  C   UNL     1       4.509  -3.208  -2.490  0.00  0.00    +0.070 C 
ATOM     12  C   UNL     1       4.939  -3.800  -1.147  0.00  0.00    +0.028 C 
ENDBRANCH   1  11
BRANCH   8  13
ATOM     13  C   UNL     1       7.627   1.532  -1.218  0.00  0.00    -0.042 C 
BRANCH  13  14
ATOM     14  C   UNL     1       7.599   2.583  -2.298  0.00  0.00    -0.057 A 
ATOM     15  C   UNL     1       8.375   2.442  -3.433  0.00  0.00    +0.009 A 
ATOM     16  C   UNL     1       8.322   3.403  -4.388  0.00  0.00    +0.045 A 
ATOM     17  S   UNL     1       7.160   4.561  -3.684  0.00  0.00    -0.105 S 
ATOM     18  C   UNL     1       6.817   3.682  -2.168  0.00  0.00    +0.047 A 
ENDBRANCH  13  14
ENDBRANCH   8  13
BRANCH   3  19
ATOM     19  O   UNL     1       2.891   0.819  -1.369  0.00  0.00    -0.372 OA
BRANCH  19  20
ATOM     20  C   UNL     1       2.489   1.045  -0.016  0.00  0.00    +0.195 C 
BRANCH  20  21
ATOM     21  C   UNL     1       1.175   1.782   0.000  0.00  0.00    -0.015 A 
ATOM     22  C   UNL     1      -0.013   1.076   0.008  0.00  0.00    +0.051 A 
ATOM     23  C   UNL     1      -1.224   1.753   0.017  0.00  0.00    +0.124 A 
ATOM     24  C   UNL     1      -1.242   3.139   0.029  0.00  0.00    +0.091 A 
ATOM     25  C   UNL     1      -0.049   3.845   0.022  0.00  0.00    +0.124 A 
ATOM     26  C   UNL     1       1.159   3.164   0.007  0.00  0.00    +0.051 A 
BRANCH  25  27
ATOM     27  O   UNL     1      -0.064   5.204   0.028  0.00  0.00    -0.495 OA
ATOM     28  C   UNL     1      -1.344   5.839   0.043  0.00  0.00    +0.277 C 
ENDBRANCH  25  27
BRANCH  23  29
ATOM     29  O   UNL     1      -2.392   1.057   0.019  0.00  0.00    -0.495 OA
ATOM     30  C   UNL     1      -3.600   1.819   0.029  0.00  0.00    +0.277 C 
ENDBRANCH  23  29
ENDBRANCH  20  21
ENDBRANCH  19  20
ENDBRANCH   3  19
TORSDOF 8
