REMARK  Name = ZINC63819005
REMARK  5 active torsions:
REMARK  status: ('A' for Active; 'I' for Inactive)
REMARK    1  A    between atoms: C_7  and  C_10
REMARK    2  A    between atoms: C_10  and  C_11
REMARK    3  A    between atoms: C_11  and  C_12
REMARK    4  A    between atoms: C_12  and  C_13
REMARK    5  A    between atoms: C_19  and  C_21
REMARK                            x       y       z     vdW  Elec       q    Type
REMARK                         _______ _______ _______ _____ _____    ______ ____
ROOT
ATOM      1  C   UNL     1      -0.729  -5.309  -2.876  0.00  0.00    +0.216 C 
ATOM      2  O   UNL     1      -0.183  -4.738  -3.796  0.00  0.00    -0.276 OA
ATOM      3  N   UNL     1      -1.542  -6.356  -3.120  0.00  0.00    -0.294 N 
ATOM      4  C   UNL     1      -2.271  -7.134  -2.102  0.00  0.00    +0.108 C 
ATOM      5  C   UNL     1      -2.522  -8.513  -2.760  0.00  0.00    +0.021 C 
ATOM      6  C   UNL     1      -2.798  -8.110  -4.233  0.00  0.00    +0.029 C 
ATOM      7  C   UNL     1      -1.854  -6.908  -4.447  0.00  0.00    +0.106 C 
ENDROOT
BRANCH   7   8
ATOM      8  C   UNL     1      -2.536  -5.861  -5.290  0.00  0.00    -0.023 A 
ATOM      9  C   UNL     1      -3.472  -5.019  -4.719  0.00  0.00    +0.009 A 
ATOM     10  C   UNL     1      -4.102  -4.056  -5.486  0.00  0.00    +0.050 A 
ATOM     11  C   UNL     1      -3.791  -3.937  -6.830  0.00  0.00    +0.162 A 
ATOM     12  C   UNL     1      -2.851  -4.782  -7.403  0.00  0.00    +0.162 A 
ATOM     13  C   UNL     1      -2.219  -5.742  -6.631  0.00  0.00    +0.055 A 
ATOM     14  O   UNL     1      -2.550  -4.656  -8.729  0.00  0.00    -0.488 OA
ATOM     15  C   UNL     1      -3.588  -5.019  -9.642  0.00  0.00    +0.232 C 
ATOM     16  C   UNL     1      -4.543  -3.856  -9.862  0.00  0.00    +0.082 C 
ATOM     17  C   UNL     1      -5.299  -3.480  -8.598  0.00  0.00    +0.232 C 
ATOM     18  O   UNL     1      -4.404  -2.990  -7.598  0.00  0.00    -0.488 OA
ENDBRANCH   7   8
BRANCH   1  19
ATOM     19  C   UNL     1      -0.499  -4.848  -1.460  0.00  0.00    +0.096 C 
BRANCH  19  20
ATOM     20  C   UNL     1       0.457  -3.653  -1.462  0.00  0.00    +0.014 C 
BRANCH  20  21
ATOM     21  C   UNL     1       0.691  -3.186  -0.024  0.00  0.00    +0.033 C 
BRANCH  21  28
ATOM     22  C   UNL     1      -0.016   1.348   0.009  0.00  0.00    +0.001 A 
ATOM     23  C   UNL     1       1.166   2.101   0.002  0.00  0.00    +0.002 A 
ATOM     24  C   UNL     1       2.391   1.535  -0.013  0.00  0.00    +0.026 A 
ATOM     25  C   UNL     1       2.529   0.120  -0.022  0.00  0.00    +0.043 A 
ATOM     26  N   UNL     1       3.587  -0.654  -0.037  0.00  0.00    -0.380 N 
ATOM     27  C   UNL     1       3.143  -2.053  -0.041  0.00  0.00    +0.144 C 
ATOM     28  C   UNL     1       1.631  -2.008  -0.025  0.00  0.00    -0.042 C 
ATOM     29  C   UNL     1       1.295  -0.698  -0.014  0.00  0.00    -0.001 A 
ATOM     30  C   UNL     1       0.002  -0.004   0.002  0.00  0.00    +0.010 A 
ATOM     31  H   UNL     1       4.509  -0.353  -0.045  0.00  0.00    +0.160 HD
ENDBRANCH  21  28
ENDBRANCH  20  21
ENDBRANCH  19  20
ENDBRANCH   1  19
TORSDOF 5
