REMARK  Name = ZINC09243027
REMARK  7 active torsions:
REMARK  status: ('A' for Active; 'I' for Inactive)
REMARK    1  A    between atoms: C_1  and  C_2
REMARK    2  A    between atoms: C_4  and  O_30
REMARK    3  A    between atoms: C_5  and  C_9
REMARK    4  A    between atoms: N_17  and  C_27
REMARK    5  A    between atoms: C_18  and  C_20
REMARK    6  A    between atoms: C_27  and  C_28
REMARK    7  A    between atoms: C_28  and  O_29
REMARK                            x       y       z     vdW  Elec       q    Type
REMARK                         _______ _______ _______ _____ _____    ______ ____
ROOT
ATOM      1  C   UNL     1      -0.294  -4.887  -0.341  0.00  0.00    +0.102 A 
ATOM      2  C   UNL     1      -0.034  -5.541   0.869  0.00  0.00    +0.035 A 
ATOM      3  C   UNL     1       0.171  -6.868   0.543  0.00  0.00    +0.126 A 
ATOM      4  N   UNL     1       0.030  -6.952  -0.813  0.00  0.00    -0.272 N 
ATOM      5  H   UNL     1       0.118  -7.766  -1.333  0.00  0.00    +0.189 HD
ATOM      6  N   UNL     1      -0.244  -5.793  -1.297  0.00  0.00    -0.173 NA
ATOM      7  C   UNL     1       0.450  -7.613   1.776  0.00  0.00    +0.266 C 
ATOM      8  O   UNL     1       0.675  -8.807   1.829  0.00  0.00    -0.268 OA
ATOM      9  N   UNL     1       0.421  -6.788   2.838  0.00  0.00    -0.283 N 
ATOM     10  C   UNL     1       0.118  -5.433   2.361  0.00  0.00    +0.141 C 
ENDROOT
BRANCH   1  15
ATOM     11  C   UNL     1      -1.403   0.729  -1.011  0.00  0.00    +0.045 C 
ATOM     12  C   UNL     1      -1.112  -0.740  -0.838  0.00  0.00    -0.029 A 
ATOM     13  C   UNL     1      -0.979  -1.550  -1.950  0.00  0.00    +0.050 A 
ATOM     14  C   UNL     1      -0.712  -2.901  -1.796  0.00  0.00    +0.126 A 
ATOM     15  C   UNL     1      -0.579  -3.441  -0.514  0.00  0.00    +0.045 A 
ATOM     16  C   UNL     1      -0.715  -2.617   0.600  0.00  0.00    +0.034 A 
ATOM     17  C   UNL     1      -0.975  -1.270   0.433  0.00  0.00    +0.045 A 
ATOM     18 CL   UNL     1      -1.138  -0.242   1.822  0.00  0.00    -0.083 Cl
BRANCH  14  19
ATOM     19  O   UNL     1      -0.581  -3.698  -2.889  0.00  0.00    -0.506 OA
ATOM     20  H   UNL     1       0.323  -3.760  -3.224  0.00  0.00    +0.292 HD
ENDBRANCH  14  19
ENDBRANCH   1  15
BRANCH  10  21
ATOM     21  C   UNL     1       1.251  -4.498   2.701  0.00  0.00    -0.021 A 
ATOM     22  C   UNL     1       2.518  -4.739   2.203  0.00  0.00    +0.006 A 
ATOM     23  C   UNL     1       3.557  -3.882   2.514  0.00  0.00    +0.001 A 
ATOM     24  C   UNL     1       3.330  -2.784   3.323  0.00  0.00    +0.015 A 
ATOM     25  C   UNL     1       2.062  -2.543   3.821  0.00  0.00    +0.018 A 
ATOM     26  C   UNL     1       1.021  -3.398   3.505  0.00  0.00    +0.021 A 
ATOM     27 BR   UNL     1       1.750  -1.042   4.928  0.00  0.00    -0.050 Br
ENDBRANCH  10  21
BRANCH   9  28
ATOM     28  C   UNL     1       0.652  -7.176   4.232  0.00  0.00    +0.137 C 
BRANCH  28  29
ATOM     29  C   UNL     1       2.157  -7.210   4.509  0.00  0.00    +0.175 C 
BRANCH  29  30
ATOM     30  O   UNL     1       2.681  -5.882   4.457  0.00  0.00    -0.393 OA
ATOM     31  H   UNL     1       3.632  -5.827   4.624  0.00  0.00    +0.209 HD
ENDBRANCH  29  30
ENDBRANCH  28  29
ENDBRANCH   9  28
TORSDOF 6
