REMARK  Name = ZINC49238077
REMARK  6 active torsions:
REMARK  status: ('A' for Active; 'I' for Inactive)
REMARK    1  A    between atoms: C_1  and  C_2
REMARK    2  A    between atoms: C_2  and  C_4
REMARK    3  A    between atoms: C_2  and  N_22
REMARK    4  A    between atoms: C_7  and  S_10
REMARK    5  A    between atoms: S_10  and  N_13
REMARK    6  A    between atoms: C_16  and  C_19
REMARK                            x       y       z     vdW  Elec       q    Type
REMARK                         _______ _______ _______ _____ _____    ______ ____
ROOT
ATOM      1  S   UNL     1      -5.658  -2.093   0.045  0.00  0.00    +0.101 S 
ATOM      2  O   UNL     1      -5.785  -2.944  -1.086  0.00  0.00    -0.146 OA
ATOM      3  O   UNL     1      -5.915  -2.542   1.369  0.00  0.00    -0.146 OA
ENDROOT
BRANCH   1   4
ATOM      4  N   UNL     1      -6.660  -0.801  -0.219  0.00  0.00    -0.103 NA
ATOM      5  C   UNL     1      -7.958  -0.976  -0.259  0.00  0.00    +0.192 A 
ATOM      6  N   UNL     1      -8.958  -0.051  -0.469  0.00  0.00    -0.336 N 
ATOM      7  C   UNL     1     -10.253  -0.481  -0.466  0.00  0.00    +0.028 A 
ATOM      8  C   UNL     1     -10.531  -1.768  -0.263  0.00  0.00    +0.070 A 
ATOM      9  S   UNL     1      -8.905  -2.478  -0.064  0.00  0.00    -0.057 S 
ATOM     10  H   UNL     1      -8.746   0.884  -0.616  0.00  0.00    +0.168 HD
BRANCH   7  11
ATOM     11  C   UNL     1     -11.371   0.503  -0.692  0.00  0.00    +0.036 C 
ATOM     12  C   UNL     1     -11.010   1.990  -0.718  0.00  0.00    +0.010 C 
ATOM     13  C   UNL     1     -11.380   1.270  -2.016  0.00  0.00    +0.010 C 
ENDBRANCH   7  11
ENDBRANCH   1   4
BRANCH   1  17
ATOM     14  C   UNL     1      -1.412  -0.526   0.013  0.00  0.00    -0.062 A 
ATOM     15  C   UNL     1      -2.123  -0.571   1.197  0.00  0.00    +0.004 A 
ATOM     16  C   UNL     1      -3.420  -1.049   1.207  0.00  0.00    +0.029 A 
ATOM     17  C   UNL     1      -4.006  -1.482   0.032  0.00  0.00    +0.113 A 
ATOM     18  C   UNL     1      -3.295  -1.436  -1.153  0.00  0.00    +0.029 A 
ATOM     19  C   UNL     1      -2.000  -0.954  -1.163  0.00  0.00    +0.004 A 
BRANCH  14  21
ATOM     20  C   UNL     1      -0.019   1.526   0.010  0.00  0.00    -0.009 C 
ATOM     21  C   UNL     1       0.002  -0.004   0.002  0.00  0.00    -0.047 C 
BRANCH  21  22
ATOM     22  N   UNL     1       0.713  -0.491   1.192  0.00  0.00    +0.382 N 
ATOM     23  H   UNL     1       0.240  -0.165   2.022  0.00  0.00    -0.089 HD
ATOM     24  H   UNL     1       0.726  -1.500   1.187  0.00  0.00    -0.089 HD
ATOM     25  H   UNL     1       1.659  -0.141   1.185  0.00  0.00    -0.089 HD
ENDBRANCH  21  22
ENDBRANCH  14  21
ENDBRANCH   1  17
TORSDOF 5
