REMARK  Name = ZINC02806032
REMARK  13 active torsions:
REMARK  status: ('A' for Active; 'I' for Inactive)
REMARK    1  A    between atoms: C_1  and  C_2
REMARK    2  A    between atoms: C_2  and  S_3
REMARK    3  A    between atoms: S_3  and  C_4
REMARK    4  A    between atoms: C_4  and  C_5
REMARK    5  A    between atoms: C_5  and  O_6
REMARK    6  A    between atoms: O_6  and  C_7
REMARK    7  A    between atoms: C_7  and  C_9
REMARK    8  A    between atoms: C_10  and  C_36
REMARK    9  A    between atoms: C_14  and  C_16
REMARK   10  A    between atoms: C_19  and  O_24
REMARK   11  A    between atoms: C_20  and  O_22
REMARK   12  A    between atoms: O_22  and  C_23
REMARK   13  A    between atoms: C_28  and  C_31
REMARK                            x       y       z     vdW  Elec       q    Type
REMARK                         _______ _______ _______ _____ _____    ______ ____
ROOT
ATOM      1  C   UNL     1       5.529   7.635   1.449  0.00  0.00    +0.065 C 
ATOM      2  C   UNL     1       4.914   7.053   2.493  0.00  0.00    +0.016 C 
ATOM      3  N   UNL     1       3.699   6.446   2.332  0.00  0.00    -0.321 N 
ATOM      4  C   UNL     1       3.268   6.066   1.089  0.00  0.00    +0.016 C 
ATOM      5  C   UNL     1       3.820   6.601  -0.021  0.00  0.00    +0.024 C 
ATOM      6  C   UNL     1       4.904   7.643   0.084  0.00  0.00    +0.092 C 
ATOM      7  C   UNL     1       3.397   6.208  -1.303  0.00  0.00    +0.162 C 
ATOM      8  O   UNL     1       3.907   6.718  -2.281  0.00  0.00    -0.292 OA
ATOM      9  C   UNL     1       2.325   5.169  -1.486  0.00  0.00    +0.088 C 
ATOM     10  C   UNL     1       2.343   4.216  -0.286  0.00  0.00    +0.039 C 
ATOM     11  C   UNL     1       2.166   5.041   0.991  0.00  0.00    +0.060 C 
ATOM     12  C   UNL     1       5.567   7.069   3.850  0.00  0.00    +0.061 C 
ATOM     13  H   UNL     1       3.057   6.260   3.205  0.00  0.00    +0.152 HD
ENDROOT
BRANCH   6  14
ATOM     14  C   UNL     1       4.311   9.004  -0.179  0.00  0.00    -0.032 A 
ATOM     15  C   UNL     1       3.300   9.484   0.632  0.00  0.00    +0.008 A 
ATOM     16  C   UNL     1       2.753  10.731   0.395  0.00  0.00    +0.049 A 
ATOM     17  C   UNL     1       3.218  11.503  -0.657  0.00  0.00    +0.158 A 
ATOM     18  C   UNL     1       4.236  11.020  -1.473  0.00  0.00    +0.162 A 
ATOM     19  C   UNL     1       4.784   9.771  -1.227  0.00  0.00    +0.054 A 
BRANCH  18  20
ATOM     20  O   UNL     1       4.696  11.774  -2.507  0.00  0.00    -0.491 OA
ATOM     21  C   UNL     1       5.742  11.214  -3.303  0.00  0.00    +0.277 C 
ENDBRANCH  18  20
BRANCH  17  22
ATOM     22  O   UNL     1       2.681  12.730  -0.891  0.00  0.00    -0.503 OA
ATOM     23  H   UNL     1       3.051  13.342  -1.727  0.00  0.00    +0.292 HD
ENDBRANCH  17  22
ENDBRANCH   6  14
BRANCH  10  24
ATOM     24  C   UNL     1       1.214   3.225  -0.409  0.00  0.00    -0.006 A 
ATOM     25  C   UNL     1       1.270   1.873  -0.484  0.00  0.00    +0.011 A 
ATOM     26  C   UNL     1       0.092   1.159  -0.595  0.00  0.00    +0.008 A 
ATOM     27  C   UNL     1      -1.084   1.831  -0.631  0.00  0.00    +0.045 A 
ATOM     28  S   UNL     1      -0.543   3.527  -0.495  0.00  0.00    -0.101 S 
ENDBRANCH  10  24
BRANCH   1  29
ATOM     29  C   UNL     1       6.788   8.250   1.640  0.00  0.00    +0.338 C 
ATOM     30  O   UNL     1       7.256   8.343   2.759  0.00  0.00    -0.245 OA
BRANCH  29  31
ATOM     31  O   UNL     1       7.470   8.733   0.581  0.00  0.00    -0.460 OA
BRANCH  31  32
ATOM     32  C   UNL     1       8.736   9.342   0.847  0.00  0.00    +0.243 C 
BRANCH  32  33
ATOM     33  C   UNL     1       9.355   9.826  -0.465  0.00  0.00    +0.110 C 
BRANCH  33  34
ATOM     34  S   UNL     1      10.961  10.598  -0.127  0.00  0.00    -0.158 S 
BRANCH  34  36
ATOM     35  C   UNL     1      12.920  11.787  -1.621  0.00  0.00    +0.015 C 
ATOM     36  C   UNL     1      11.555  11.111  -1.762  0.00  0.00    +0.066 C 
ENDBRANCH  34  36
ENDBRANCH  33  34
ENDBRANCH  32  33
ENDBRANCH  31  32
ENDBRANCH  29  31
ENDBRANCH   1  29
TORSDOF 10
