REMARK  Name = ZINC60268788
REMARK  9 active torsions:
REMARK  status: ('A' for Active; 'I' for Inactive)
REMARK    1  A    between atoms: C_1  and  C_2
REMARK    2  A    between atoms: C_7  and  N_8
REMARK    3  A    between atoms: C_9  and  C_29
REMARK    4  A    between atoms: C_10  and  C_14
REMARK    5  A    between atoms: C_11  and  C_13
REMARK    6  A    between atoms: C_14  and  N_15
REMARK    7  A    between atoms: N_15  and  C_16
REMARK    8  A    between atoms: N_15  and  C_17
REMARK    9  A    between atoms: C_17  and  N_18
REMARK                            x       y       z     vdW  Elec       q    Type
REMARK                         _______ _______ _______ _____ _____    ______ ____
ROOT
ATOM      1  C   UNL     1       0.559   0.611   5.929  0.00  0.00    -0.037 C 
ENDROOT
BRANCH   1   4
ATOM      2  N   UNL     1       0.177   0.118   2.334  0.00  0.00    -0.236 N 
ATOM      3  C   UNL     1       0.378  -0.366   3.581  0.00  0.00    +0.043 A 
ATOM      4  C   UNL     1       0.372   0.683   4.436  0.00  0.00    -0.020 A 
ATOM      5  C   UNL     1       0.162   1.847   3.688  0.00  0.00    +0.062 A 
ATOM      6  N   UNL     1       0.050   1.510   2.428  0.00  0.00    -0.171 NA
ATOM      7  C   UNL     1       0.083   3.248   4.238  0.00  0.00    +0.068 C 
ATOM      8  C   UNL     1       0.572  -1.813   3.952  0.00  0.00    +0.066 C 
BRANCH   2  15
ATOM      9  C   UNL     1      -1.979   0.599   0.540  0.00  0.00    +0.046 C 
ATOM     10  C   UNL     1      -0.921  -0.435   0.254  0.00  0.00    -0.025 A 
ATOM     11  C   UNL     1      -0.978  -1.179  -0.909  0.00  0.00    +0.005 A 
ATOM     12  C   UNL     1      -0.007  -2.128  -1.173  0.00  0.00    +0.000 A 
ATOM     13  C   UNL     1       1.022  -2.336  -0.273  0.00  0.00    +0.002 A 
ATOM     14  C   UNL     1       1.084  -1.597   0.892  0.00  0.00    +0.028 A 
ATOM     15  C   UNL     1       0.114  -0.638   1.156  0.00  0.00    +0.069 A 
ENDBRANCH   2  15
ENDBRANCH   1   4
BRANCH   1  16
ATOM     16  N   UNL     1       1.988   0.729   6.250  0.00  0.00    +0.393 N 
ATOM     17  C   UNL     1       2.469   2.062   5.862  0.00  0.00    -0.093 C 
ATOM     18  H   UNL     1       2.506   0.025   5.745  0.00  0.00    -0.079 HD
BRANCH  16  19
ATOM     19  C   UNL     1       2.184   0.539   7.693  0.00  0.00    +0.054 C 
BRANCH  19  20
ATOM     20  N   UNL     1       3.617   0.538   7.996  0.00  0.00    -0.291 N 
ATOM     21  C   UNL     1       4.456  -0.576   8.010  0.00  0.00    +0.088 A 
ATOM     22  C   UNL     1       4.251  -1.926   7.770  0.00  0.00    +0.031 A 
ATOM     23  C   UNL     1       5.308  -2.810   7.864  0.00  0.00    +0.022 A 
ATOM     24  C   UNL     1       6.571  -2.351   8.199  0.00  0.00    +0.045 A 
ATOM     25  C   UNL     1       6.783  -1.007   8.440  0.00  0.00    +0.068 A 
ATOM     26  C   UNL     1       5.728  -0.113   8.347  0.00  0.00    +0.158 A 
ATOM     27  O   UNL     1       5.634   1.228   8.524  0.00  0.00    -0.407 OA
ATOM     28  C   UNL     1       4.367   1.614   8.306  0.00  0.00    +0.420 A 
ATOM     29  O   UNL     1       3.959   2.757   8.380  0.00  0.00    -0.223 OA
ATOM     30 CL   UNL     1       7.894  -3.470   8.316  0.00  0.00    -0.083 Cl
ENDBRANCH  19  20
ENDBRANCH  16  19
ENDBRANCH   1  16
TORSDOF 5
