REMARK  Name = ZINC58236644
REMARK  6 active torsions:
REMARK  status: ('A' for Active; 'I' for Inactive)
REMARK    1  A    between atoms: C_1  and  C_2
REMARK    2  A    between atoms: C_2  and  C_3
REMARK    3  A    between atoms: C_2  and  N_13
REMARK    4  A    between atoms: C_6  and  N_9
REMARK    5  A    between atoms: C_14  and  C_16
REMARK    6  A    between atoms: C_17  and  C_18
REMARK                            x       y       z     vdW  Elec       q    Type
REMARK                         _______ _______ _______ _____ _____    ______ ____
ROOT
ATOM      1  N   UNL     1       0.770  -0.671   1.090  0.00  0.00    -0.305 N 
ATOM      2  C   UNL     1       2.110  -0.780   0.995  0.00  0.00    +0.237 C 
ATOM      3  O   UNL     1       2.689  -0.342   0.017  0.00  0.00    -0.271 OA
ATOM      4  H   UNL     1       0.309  -1.020   1.869  0.00  0.00    +0.150 HD
ENDROOT
BRANCH   1   6
ATOM      5  C   UNL     1       0.002   1.489   0.238  0.00  0.00    +0.033 C 
ATOM      6  C   UNL     1       0.010  -0.025   0.017  0.00  0.00    +0.100 C 
BRANCH   6   7
ATOM      7  C   UNL     1      -1.406  -0.541   0.024  0.00  0.00    -0.027 A 
ATOM      8  C   UNL     1      -2.059  -0.749   1.225  0.00  0.00    +0.007 A 
ATOM      9  C   UNL     1      -3.357  -1.222   1.234  0.00  0.00    +0.023 A 
ATOM     10  C   UNL     1      -4.006  -1.488   0.036  0.00  0.00    +0.035 A 
ATOM     11  C   UNL     1      -3.347  -1.279  -1.168  0.00  0.00    +0.023 A 
ATOM     12  C   UNL     1      -2.051  -0.801  -1.171  0.00  0.00    +0.007 A 
BRANCH  10  13
ATOM     13  N   UNL     1      -5.320  -1.968   0.042  0.00  0.00    -0.270 N 
ATOM     14  C   UNL     1      -6.177  -1.575   1.006  0.00  0.00    +0.301 C 
ATOM     15  O   UNL     1      -5.838  -0.730   1.812  0.00  0.00    -0.253 OA
ATOM     16  N   UNL     1      -7.408  -2.117   1.075  0.00  0.00    -0.313 N 
ATOM     17  H   UNL     1      -5.615  -2.584  -0.647  0.00  0.00    +0.156 HD
ATOM     18  H   UNL     1      -7.678  -2.791   0.432  0.00  0.00    +0.146 HD
ATOM     19  H   UNL     1      -8.025  -1.834   1.769  0.00  0.00    +0.146 HD
ENDBRANCH  10  13
ENDBRANCH   6   7
ENDBRANCH   1   6
BRANCH   2  20
ATOM     20  C   UNL     1       2.845  -1.405   2.031  0.00  0.00    +0.067 C 
ATOM     21  C   UNL     1       4.195  -1.514   1.935  0.00  0.00    +0.012 C 
BRANCH  21  22
ATOM     22  C   UNL     1       4.927  -2.137   2.968  0.00  0.00    -0.010 C 
ATOM     23  C   UNL     1       6.280  -2.244   2.878  0.00  0.00    +0.018 C 
ATOM     24  C   UNL     1       6.989  -2.920   3.974  0.00  0.00    +0.018 A 
ATOM     25  C   UNL     1       8.368  -2.789   4.138  0.00  0.00    +0.031 A 
ATOM     26  C   UNL     1       8.993  -3.442   5.182  0.00  0.00    +0.042 A 
ATOM     27  C   UNL     1       8.257  -4.221   6.061  0.00  0.00    +0.023 A 
ATOM     28  C   UNL     1       6.889  -4.357   5.907  0.00  0.00    +0.048 A 
ATOM     29  C   UNL     1       6.246  -3.711   4.867  0.00  0.00    +0.128 A 
ATOM     30  O   UNL     1       4.906  -3.825   4.689  0.00  0.00    -0.487 OA
ATOM     31  C   UNL     1       4.215  -2.680   4.179  0.00  0.00    +0.264 C 
ATOM     32 CL   UNL     1      10.709  -3.286   5.395  0.00  0.00    -0.084 Cl
ENDBRANCH  21  22
ENDBRANCH   2  20
TORSDOF 5
