REMARK  Name = ZINC23478971
REMARK  10 active torsions:
REMARK  status: ('A' for Active; 'I' for Inactive)
REMARK    1  A    between atoms: C_1  and  C_2
REMARK    2  A    between atoms: C_2  and  O_3
REMARK    3  A    between atoms: O_3  and  C_4
REMARK    4  A    between atoms: C_4  and  C_6
REMARK    5  A    between atoms: C_7  and  C_36
REMARK    6  A    between atoms: C_12  and  C_16
REMARK    7  A    between atoms: C_16  and  C_18
REMARK    8  A    between atoms: C_16  and  N_19
REMARK    9  A    between atoms: N_22  and  C_25
REMARK   10  A    between atoms: C_25  and  C_26
REMARK                            x       y       z     vdW  Elec       q    Type
REMARK                         _______ _______ _______ _____ _____    ______ ____
ROOT
ATOM      1  C   UNL     1       3.062   4.139  -0.243  0.00  0.00    -0.004 C 
ATOM      2  C   UNL     1       3.780   4.085  -1.593  0.00  0.00    -0.005 C 
ENDROOT
BRANCH   1   9
ATOM      3  C   UNL     1       6.633   3.740   4.962  0.00  0.00    +0.102 A 
ATOM      4  C   UNL     1       6.576   2.798   3.975  0.00  0.00    -0.015 A 
ATOM      5  C   UNL     1       5.749   3.001   2.869  0.00  0.00    +0.076 A 
ATOM      6  C   UNL     1       5.529   2.129   1.692  0.00  0.00    +0.282 A 
ATOM      7  O   UNL     1       6.109   1.063   1.588  0.00  0.00    -0.265 OA
ATOM      8  N   UNL     1       4.666   2.543   0.744  0.00  0.00    -0.197 NA
ATOM      9  C   UNL     1       4.015   3.727   0.850  0.00  0.00    +0.098 A 
ATOM     10  N   UNL     1       4.190   4.522   1.871  0.00  0.00    -0.339 N 
ATOM     11  C   UNL     1       5.016   4.210   2.861  0.00  0.00    +0.092 A 
ATOM     12  S   UNL     1       5.511   4.997   4.373  0.00  0.00    -0.064 S 
ATOM     13  C   UNL     1       7.404   1.543   4.080  0.00  0.00    +0.046 C 
ATOM     14  H   UNL     1       3.645   5.476   1.925  0.00  0.00    +0.167 HD
BRANCH   3  15
ATOM     15  C   UNL     1       7.426   3.726   6.194  0.00  0.00    +0.346 C 
ATOM     16  O   UNL     1       8.153   2.782   6.438  0.00  0.00    -0.244 OA
BRANCH  15  17
ATOM     17  O   UNL     1       7.348   4.759   7.057  0.00  0.00    -0.461 OA
BRANCH  17  19
ATOM     18  C   UNL     1       7.943   5.931   9.108  0.00  0.00    +0.048 C 
ATOM     19  C   UNL     1       8.162   4.678   8.257  0.00  0.00    +0.229 C 
ENDBRANCH  17  19
ENDBRANCH  15  17
ENDBRANCH   3  15
ENDBRANCH   1   9
BRANCH   1  20
ATOM     20  N   UNL     1       2.592   5.508   0.008  0.00  0.00    +0.388 N 
ATOM     21  C   UNL     1       1.424   5.824  -0.826  0.00  0.00    -0.062 C 
ATOM     22  C   UNL     1       0.917   7.226  -0.479  0.00  0.00    +0.066 C 
ATOM     23  N   UNL     1       1.995   8.201  -0.696  0.00  0.00    -0.302 NA
ATOM     24  C   UNL     1       3.163   7.885   0.138  0.00  0.00    +0.066 C 
ATOM     25  C   UNL     1       3.670   6.483  -0.209  0.00  0.00    -0.062 C 
ATOM     26  H   UNL     1       2.284   5.571   1.062  0.00  0.00    -0.081 HD
BRANCH  23  27
ATOM     27  C   UNL     1       1.525   9.570  -0.446  0.00  0.00    +0.120 C 
BRANCH  27  28
ATOM     28  C   UNL     1       0.602   9.996  -1.558  0.00  0.00    -0.026 A 
ATOM     29  C   UNL     1      -0.740  10.068  -1.344  0.00  0.00    +0.005 A 
ATOM     30  C   UNL     1      -1.609  10.459  -2.361  0.00  0.00    +0.001 A 
ATOM     31  C   UNL     1      -1.141  10.781  -3.597  0.00  0.00    +0.008 A 
ATOM     32  C   UNL     1       0.239  10.719  -3.856  0.00  0.00    -0.018 A 
ATOM     33  C   UNL     1       1.123  10.325  -2.821  0.00  0.00    -0.013 A 
ATOM     34  C   UNL     1       2.502  10.259  -3.081  0.00  0.00    +0.009 A 
ATOM     35  C   UNL     1       2.970  10.580  -4.318  0.00  0.00    +0.001 A 
ATOM     36  C   UNL     1       2.101  10.971  -5.335  0.00  0.00    +0.001 A 
ATOM     37  C   UNL     1       0.759  11.043  -5.121  0.00  0.00    +0.008 A 
ENDBRANCH  27  28
ENDBRANCH  23  27
ENDBRANCH   1  20
TORSDOF 7
