REMARK  Name = ZINC21863369
REMARK  7 active torsions:
REMARK  status: ('A' for Active; 'I' for Inactive)
REMARK    1  A    between atoms: C_1  and  C_2
REMARK    2  A    between atoms: C_5  and  N_8
REMARK    3  A    between atoms: C_9  and  C_11
REMARK    4  A    between atoms: C_11  and  C_34
REMARK    5  A    between atoms: C_14  and  C_29
REMARK    6  A    between atoms: N_20  and  C_21
REMARK    7  A    between atoms: C_21  and  C_22
REMARK                            x       y       z     vdW  Elec       q    Type
REMARK                         _______ _______ _______ _____ _____    ______ ____
ROOT
ATOM      1  C   UNL     1      -1.799  -6.046   1.154  0.00  0.00    +0.129 C 
ATOM      2  C   UNL     1      -3.033  -6.497   1.936  0.00  0.00    +0.157 C 
ATOM      3  N   UNL     1      -2.751  -6.415   3.369  0.00  0.00    -0.331 N 
ATOM      4  C   UNL     1      -3.588  -6.193   4.413  0.00  0.00    +0.085 A 
ATOM      5  C   UNL     1      -2.844  -6.243   5.582  0.00  0.00    +0.032 A 
ATOM      6  C   UNL     1      -1.517  -6.496   5.233  0.00  0.00    +0.033 A 
ATOM      7  C   UNL     1      -1.464  -6.585   3.870  0.00  0.00    +0.105 A 
ATOM      8  C   UNL     1      -0.336  -6.833   2.967  0.00  0.00    +0.264 C 
ATOM      9  O   UNL     1       0.756  -7.175   3.384  0.00  0.00    -0.268 OA
ATOM     10  N   UNL     1      -0.572  -6.662   1.645  0.00  0.00    -0.276 N 
ATOM     11  C   UNL     1      -1.984  -6.415  -0.319  0.00  0.00    +0.043 C 
ENDROOT
BRANCH   4  12
ATOM     12  C   UNL     1      -5.033  -5.942   4.320  0.00  0.00    +0.151 A 
ATOM     13  C   UNL     1      -5.859  -5.629   5.359  0.00  0.00    +0.051 A 
ATOM     14  C   UNL     1      -7.149  -5.473   4.817  0.00  0.00    +0.042 A 
ATOM     15  C   UNL     1      -7.052  -5.704   3.491  0.00  0.00    +0.196 A 
ATOM     16  O   UNL     1      -5.773  -5.987   3.195  0.00  0.00    -0.461 OA
ENDBRANCH   4  12
BRANCH   1  18
ATOM     17  N   UNL     1      -0.451  -3.977   1.305  0.00  0.00    -0.311 N 
ATOM     18  C   UNL     1      -1.671  -4.548   1.268  0.00  0.00    +0.238 C 
ATOM     19  O   UNL     1      -2.666  -3.857   1.325  0.00  0.00    -0.273 OA
ATOM     20  H   UNL     1       0.451  -4.607   1.331  0.00  0.00    +0.149 HD
BRANCH  17  25
ATOM     21  C   UNL     1       1.227   1.447   0.540  0.00  0.00    +0.007 C 
ATOM     22  C   UNL     1       1.096  -0.077   0.532  0.00  0.00    -0.014 C 
ATOM     23  C   UNL     1      -0.232  -0.471  -0.118  0.00  0.00    +0.005 C 
ATOM     24  C   UNL     1      -0.363  -1.996  -0.125  0.00  0.00    +0.022 C 
ATOM     25  C   UNL     1      -0.325  -2.518   1.312  0.00  0.00    +0.073 C 
ATOM     26  C   UNL     1       1.003  -2.123   1.963  0.00  0.00    +0.022 C 
ATOM     27  C   UNL     1       1.134  -0.599   1.970  0.00  0.00    +0.005 C 
ENDBRANCH  17  25
ENDBRANCH   1  18
BRANCH  10  28
ATOM     28  C   UNL     1       0.434  -7.111   0.679  0.00  0.00    +0.145 C 
BRANCH  28  29
ATOM     29  C   UNL     1       1.320  -5.952   0.301  0.00  0.00    -0.012 A 
ATOM     30  C   UNL     1       1.023  -5.189  -0.813  0.00  0.00    +0.006 A 
ATOM     31  C   UNL     1       1.833  -4.123  -1.157  0.00  0.00    +0.000 A 
ATOM     32  C   UNL     1       2.946  -3.825  -0.393  0.00  0.00    +0.001 A 
ATOM     33  C   UNL     1       3.246  -4.590   0.718  0.00  0.00    +0.020 A 
ATOM     34  C   UNL     1       2.433  -5.654   1.066  0.00  0.00    +0.046 A 
ATOM     35 CL   UNL     1       2.810  -6.615   2.462  0.00  0.00    -0.083 Cl
ENDBRANCH  28  29
ENDBRANCH  10  28
TORSDOF 5
