REMARK  Name = ZINC04032356
REMARK  5 active torsions:
REMARK  status: ('A' for Active; 'I' for Inactive)
REMARK    1  A    between atoms: C_1  and  C_2
REMARK    2  A    between atoms: C_8  and  C_25
REMARK    3  A    between atoms: C_9  and  C_14
REMARK    4  A    between atoms: C_14  and  C_16
REMARK    5  A    between atoms: C_17  and  C_18
REMARK                            x       y       z     vdW  Elec       q    Type
REMARK                         _______ _______ _______ _____ _____    ______ ____
ROOT
ATOM      1  C   UNL     1       0.589   1.463  -0.028  0.00  0.00    +0.044 C 
ATOM      2  C   UNL     1       0.374  -0.029  -0.022  0.00  0.00    -0.050 A 
ATOM      3  C   UNL     1       0.134  -0.695  -1.216  0.00  0.00    +0.005 A 
ATOM      4  C   UNL     1      -0.066  -2.059  -1.231  0.00  0.00    +0.026 A 
ATOM      5  C   UNL     1      -0.026  -2.780  -0.040  0.00  0.00    +0.050 A 
ATOM      6  C   UNL     1       0.218  -2.100   1.166  0.00  0.00    +0.007 A 
ATOM      7  C   UNL     1       0.423  -0.715   1.158  0.00  0.00    +0.014 A 
ATOM      8  C   UNL     1       0.261  -2.854   2.426  0.00  0.00    +0.007 A 
ATOM      9  C   UNL     1       0.055  -4.237   2.376  0.00  0.00    +0.094 A 
ATOM     10  C   UNL     1      -0.193  -4.872   1.081  0.00  0.00    +0.261 A 
ATOM     11  O   UNL     1      -0.374  -6.075   1.026  0.00  0.00    -0.267 OA
ATOM     12  N   UNL     1      -0.225  -4.145  -0.049  0.00  0.00    -0.321 N 
ATOM     13  H   UNL     1      -0.392  -4.592  -0.893  0.00  0.00    +0.169 HD
ENDROOT
BRANCH   8  14
ATOM     14  C   UNL     1       0.515  -2.171   3.710  0.00  0.00    -0.016 A 
ATOM     15  C   UNL     1      -0.407  -1.247   4.209  0.00  0.00    +0.008 A 
ATOM     16  C   UNL     1      -0.164  -0.614   5.409  0.00  0.00    +0.001 A 
ATOM     17  C   UNL     1       0.992  -0.890   6.119  0.00  0.00    +0.000 A 
ATOM     18  C   UNL     1       1.910  -1.803   5.631  0.00  0.00    +0.001 A 
ATOM     19  C   UNL     1       1.677  -2.449   4.435  0.00  0.00    +0.008 A 
ENDBRANCH   8  14
BRANCH   9  20
ATOM     20  C   UNL     1       0.088  -5.041   3.607  0.00  0.00    +0.192 C 
ATOM     21  O   UNL     1       0.191  -4.493   4.690  0.00  0.00    -0.287 OA
BRANCH  20  22
ATOM     22  C   UNL     1      -0.003  -6.500   3.530  0.00  0.00    +0.052 C 
ATOM     23  C   UNL     1      -0.089  -7.231   4.662  0.00  0.00    +0.014 C 
BRANCH  23  24
ATOM     24  C   UNL     1      -0.181  -8.697   4.586  0.00  0.00    +0.010 A 
ATOM     25  C   UNL     1      -0.173  -9.338   3.342  0.00  0.00    +0.011 A 
ATOM     26  C   UNL     1      -0.259 -10.712   3.279  0.00  0.00    +0.001 A 
ATOM     27  C   UNL     1      -0.352 -11.460   4.441  0.00  0.00    +0.003 A 
ATOM     28  C   UNL     1      -0.361 -10.836   5.675  0.00  0.00    +0.039 A 
ATOM     29  C   UNL     1      -0.270  -9.459   5.758  0.00  0.00    +0.131 A 
ATOM     30  F   UNL     1      -0.273  -8.851   6.964  0.00  0.00    -0.205 F 
ENDBRANCH  23  24
ENDBRANCH  20  22
ENDBRANCH   9  20
TORSDOF 4
