REMARK  Name = ZINC39873246
REMARK  9 active torsions:
REMARK  status: ('A' for Active; 'I' for Inactive)
REMARK    1  A    between atoms: C_1  and  C_2
REMARK    2  A    between atoms: C_2  and  O_3
REMARK    3  A    between atoms: O_3  and  C_4
REMARK    4  A    between atoms: C_4  and  C_6
REMARK    5  A    between atoms: C_9  and  N_12
REMARK    6  A    between atoms: C_13  and  C_28
REMARK    7  A    between atoms: C_31  and  O_34
REMARK    8  A    between atoms: O_34  and  C_35
REMARK    9  A    between atoms: C_35  and  C_36
REMARK                            x       y       z     vdW  Elec       q    Type
REMARK                         _______ _______ _______ _____ _____    ______ ____
ROOT
ATOM      1  N   UNL     1       3.478  -3.957   5.780  0.00  0.00    -0.253 N 
ATOM      2  C   UNL     1       3.683  -5.387   6.062  0.00  0.00    +0.150 C 
ATOM      3  C   UNL     1       4.435  -5.444   7.351  0.00  0.00    +0.072 A 
ATOM      4  C   UNL     1       4.915  -6.583   8.140  0.00  0.00    +0.199 A 
ATOM      5  O   UNL     1       4.901  -7.731   7.732  0.00  0.00    -0.287 OA
ATOM      6  C   UNL     1       5.420  -6.204   9.484  0.00  0.00    +0.064 A 
ATOM      7  C   UNL     1       5.726  -7.186  10.427  0.00  0.00    +0.015 A 
ATOM      8  C   UNL     1       6.184  -6.821  11.662  0.00  0.00    +0.001 A 
ATOM      9  C   UNL     1       6.346  -5.479  11.978  0.00  0.00    +0.004 A 
ATOM     10  C   UNL     1       6.051  -4.497  11.060  0.00  0.00    +0.047 A 
ATOM     11  C   UNL     1       5.584  -4.844   9.792  0.00  0.00    +0.139 A 
ATOM     12  O   UNL     1       5.310  -3.863   8.902  0.00  0.00    -0.450 OA
ATOM     13  C   UNL     1       4.648  -4.160   7.766  0.00  0.00    +0.199 A 
ATOM     14  C   UNL     1       4.049  -3.249   6.776  0.00  0.00    +0.287 C 
ATOM     15  O   UNL     1       4.064  -2.036   6.848  0.00  0.00    -0.266 OA
ENDROOT
BRANCH   1  19
ATOM     16  C   UNL     1       1.501  -2.373   2.475  0.00  0.00    +0.059 A 
ATOM     17  C   UNL     1       2.049  -1.521   3.438  0.00  0.00    +0.017 A 
ATOM     18  C   UNL     1       2.702  -2.048   4.530  0.00  0.00    +0.024 A 
ATOM     19  C   UNL     1       2.817  -3.427   4.675  0.00  0.00    +0.038 A 
ATOM     20  C   UNL     1       2.274  -4.279   3.717  0.00  0.00    +0.024 A 
ATOM     21  C   UNL     1       1.614  -3.759   2.627  0.00  0.00    +0.017 A 
BRANCH  16  22
ATOM     22  C   UNL     1       0.801  -1.813   1.304  0.00  0.00    +0.339 C 
ATOM     23  O   UNL     1       0.321  -2.555   0.470  0.00  0.00    -0.245 OA
BRANCH  22  24
ATOM     24  O   UNL     1       0.693  -0.477   1.160  0.00  0.00    -0.461 OA
BRANCH  24  26
ATOM     25  C   UNL     1      -0.019   1.526   0.010  0.00  0.00    +0.048 C 
ATOM     26  C   UNL     1       0.002  -0.004   0.002  0.00  0.00    +0.229 C 
ENDBRANCH  24  26
ENDBRANCH  22  24
ENDBRANCH  16  22
ENDBRANCH   1  19
BRANCH   2  27
ATOM     27  C   UNL     1       2.354  -6.084   6.203  0.00  0.00    -0.022 A 
ATOM     28  C   UNL     1       1.312  -5.457   6.862  0.00  0.00    +0.009 A 
ATOM     29  C   UNL     1       0.093  -6.094   6.993  0.00  0.00    +0.046 A 
ATOM     30  C   UNL     1      -0.085  -7.364   6.462  0.00  0.00    +0.121 A 
ATOM     31  C   UNL     1       0.962  -7.990   5.801  0.00  0.00    +0.046 A 
ATOM     32  C   UNL     1       2.177  -7.346   5.668  0.00  0.00    +0.009 A 
BRANCH  30  33
ATOM     33  O   UNL     1      -1.283  -7.993   6.590  0.00  0.00    -0.483 OA
BRANCH  33  34
ATOM     34  C   UNL     1      -1.395  -9.298   6.018  0.00  0.00    +0.324 C 
BRANCH  34  35
ATOM     35  C   UNL     1      -2.783  -9.833   6.257  0.00  0.00    +0.248 C 
ATOM     36  O   UNL     1      -3.596  -9.163   6.857  0.00  0.00    -0.272 OA
ATOM     37  N   UNL     1      -3.120 -11.057   5.803  0.00  0.00    -0.327 N 
ATOM     38  H   UNL     1      -2.469 -11.593   5.323  0.00  0.00    +0.145 HD
ATOM     39  H   UNL     1      -4.014 -11.402   5.957  0.00  0.00    +0.145 HD
ENDBRANCH  34  35
ENDBRANCH  33  34
ENDBRANCH  30  33
ENDBRANCH   2  27
TORSDOF 8
