REMARK  Name = ZINC23552401
REMARK  6 active torsions:
REMARK  status: ('A' for Active; 'I' for Inactive)
REMARK    1  A    between atoms: C_3  and  C_6
REMARK    2  A    between atoms: N_8  and  N_9
REMARK    3  A    between atoms: C_10  and  C_12
REMARK    4  A    between atoms: C_12  and  O_13
REMARK    5  A    between atoms: O_13  and  C_14
REMARK    6  A    between atoms: C_17  and  N_21
REMARK                            x       y       z     vdW  Elec       q    Type
REMARK                         _______ _______ _______ _____ _____    ______ ____
ROOT
ATOM      1  N   UNL     1      -3.524   3.058   0.037  0.00  0.00    -0.231 N 
ATOM      2  C   UNL     1      -4.776   2.560   0.041  0.00  0.00    +0.267 C 
ATOM      3  O   UNL     1      -4.951   1.359   0.036  0.00  0.00    -0.271 OA
ATOM      4  H   UNL     1      -3.365   4.146   0.041  0.00  0.00    +0.173 HD
ENDROOT
BRANCH   1   7
ATOM      5  C   UNL     1      -1.173   2.688   0.022  0.00  0.00    +0.267 C 
ATOM      6  O   UNL     1      -0.997   3.893   0.028  0.00  0.00    -0.268 OA
ATOM      7  N   UNL     1      -2.425   2.190   0.026  0.00  0.00    -0.230 N 
ATOM      8  H   UNL     1      -2.583   1.101   0.022  0.00  0.00    +0.173 HD
BRANCH   5  11
ATOM      9  C   UNL     1       2.208   1.027  -0.013  0.00  0.00    +0.008 A 
ATOM     10  C   UNL     1       1.330   2.083   0.001  0.00  0.00    +0.021 A 
ATOM     11  C   UNL     1      -0.022   1.780   0.012  0.00  0.00    +0.075 A 
ATOM     12  S   UNL     1       0.002  -0.004   0.002  0.00  0.00    -0.092 S 
ATOM     13  C   UNL     1       1.719  -0.241  -0.016  0.00  0.00    +0.046 A 
ENDBRANCH   5  11
ENDBRANCH   1   7
BRANCH   2  14
ATOM     14  C   UNL     1      -5.959   3.494   0.052  0.00  0.00    +0.326 C 
BRANCH  14  15
ATOM     15  O   UNL     1      -7.168   2.731   0.054  0.00  0.00    -0.481 OA
BRANCH  15  16
ATOM     16  C   UNL     1      -8.336   3.427   0.064  0.00  0.00    +0.140 A 
ATOM     17  C   UNL     1      -8.319   4.814   0.071  0.00  0.00    +0.049 A 
ATOM     18  C   UNL     1      -9.507   5.518   0.080  0.00  0.00    +0.036 A 
ATOM     19  C   UNL     1     -10.713   4.842   0.083  0.00  0.00    +0.128 A 
ATOM     20  C   UNL     1     -10.734   3.460   0.076  0.00  0.00    +0.056 A 
ATOM     21  C   UNL     1      -9.548   2.750   0.061  0.00  0.00    +0.085 A 
ATOM     22 CL   UNL     1      -9.574   1.014   0.045  0.00  0.00    -0.080 Cl
BRANCH  19  23
ATOM     23  N   UNL     1     -11.985   5.600   0.092  0.00  0.00    +0.056 N 
ATOM     24  O   UNL     1     -11.967   6.818   0.098  0.00  0.00    -0.126 OA
ATOM     25  O   UNL     1     -13.048   5.006   0.094  0.00  0.00    -0.126 OA
ENDBRANCH  19  23
ENDBRANCH  15  16
ENDBRANCH  14  15
ENDBRANCH   2  14
TORSDOF 6
