REMARK  Name = ZINC11416078
REMARK  12 active torsions:
REMARK  status: ('A' for Active; 'I' for Inactive)
REMARK    1  A    between atoms: C_1  and  C_2
REMARK    2  A    between atoms: C_5  and  C_9
REMARK    3  A    between atoms: C_6  and  C_8
REMARK    4  A    between atoms: C_9  and  N_10
REMARK    5  A    between atoms: N_10  and  C_11
REMARK    6  A    between atoms: C_12  and  C_14
REMARK    7  A    between atoms: C_14  and  S_15
REMARK    8  A    between atoms: S_15  and  C_16
REMARK    9  A    between atoms: C_19  and  C_28
REMARK   10  A    between atoms: N_20  and  C_21
REMARK   11  A    between atoms: C_28  and  C_30
REMARK   12  A    between atoms: C_28  and  N_69
REMARK                            x       y       z     vdW  Elec       q    Type
REMARK                         _______ _______ _______ _____ _____    ______ ____
ROOT
ATOM      1  C   UNL     1      -1.578   2.696   2.952  0.00  0.00    +0.197 A 
ATOM      2  N   UNL     1      -2.533   1.807   2.805  0.00  0.00    -0.122 NA
ATOM      3  N   UNL     1      -2.314   1.100   1.754  0.00  0.00    -0.135 NA
ATOM      4  C   UNL     1      -1.217   1.491   1.171  0.00  0.00    +0.125 A 
ATOM      5  N   UNL     1      -0.703   2.519   1.915  0.00  0.00    -0.275 N 
ENDROOT
BRANCH   5   6
ATOM      6  C   UNL     1       0.473   3.242   1.665  0.00  0.00    +0.050 A 
ATOM      7  C   UNL     1       1.706   2.607   1.728  0.00  0.00    +0.029 A 
ATOM      8  C   UNL     1       2.862   3.320   1.476  0.00  0.00    +0.040 A 
ATOM      9  C   UNL     1       2.792   4.669   1.172  0.00  0.00    +0.124 A 
ATOM     10  C   UNL     1       1.564   5.305   1.114  0.00  0.00    +0.040 A 
ATOM     11  C   UNL     1       0.405   4.595   1.360  0.00  0.00    +0.029 A 
ATOM     12  F   UNL     1       3.925   5.365   0.931  0.00  0.00    -0.205 F 
ENDBRANCH   5   6
BRANCH   4  13
ATOM     13  C   UNL     1      -0.620   0.914  -0.087  0.00  0.00    -0.002 C 
ATOM     14  C   UNL     1      -1.429   1.383  -1.298  0.00  0.00    -0.005 C 
BRANCH  13  20
ATOM     15  C   UNL     1       0.031  -1.037   1.190  0.00  0.00    -0.078 C 
ATOM     16  C   UNL     1      -0.147  -2.552   1.306  0.00  0.00    -0.019 C 
ATOM     17  C   UNL     1       0.436  -3.227   0.062  0.00  0.00    -0.004 C 
ATOM     18  C   UNL     1      -0.258  -2.670  -1.184  0.00  0.00    -0.019 C 
ATOM     19  C   UNL     1      -0.077  -1.151  -1.228  0.00  0.00    -0.078 C 
ATOM     20  N   UNL     1      -0.681  -0.561  -0.015  0.00  0.00    +0.386 N 
ATOM     21  H   UNL     1      -1.664  -0.851   0.043  0.00  0.00    -0.081 HD
ENDBRANCH  13  20
ENDBRANCH   4  13
BRANCH   1  22
ATOM     22  S   UNL     1      -1.445   3.888   4.243  0.00  0.00    -0.076 S 
BRANCH  22  23
ATOM     23  C   UNL     1      -2.934   3.490   5.192  0.00  0.00    +0.173 C 
BRANCH  23  26
ATOM     24  N   UNL     1      -4.067   4.297   7.237  0.00  0.00    -0.300 N 
ATOM     25  C   UNL     1      -5.097   3.280   7.011  0.00  0.00    +0.132 C 
ATOM     26  C   UNL     1      -3.032   4.410   6.382  0.00  0.00    +0.226 C 
ATOM     27  O   UNL     1      -2.179   5.252   6.570  0.00  0.00    -0.275 OA
BRANCH  24  28
ATOM     28  C   UNL     1      -4.163   5.191   8.394  0.00  0.00    +0.142 C 
BRANCH  28  33
ATOM     29  C   UNL     1      -7.468   9.736   7.047  0.00  0.00    +0.044 C 
ATOM     30  C   UNL     1      -6.606   8.551   7.398  0.00  0.00    -0.050 A 
ATOM     31  C   UNL     1      -6.450   7.517   6.494  0.00  0.00    +0.004 A 
ATOM     32  C   UNL     1      -5.659   6.430   6.816  0.00  0.00    +0.006 A 
ATOM     33  C   UNL     1      -5.024   6.377   8.043  0.00  0.00    -0.027 A 
ATOM     34  C   UNL     1      -5.184   7.408   8.949  0.00  0.00    -0.046 A 
ATOM     35  C   UNL     1      -5.971   8.498   8.625  0.00  0.00    +0.007 A 
ATOM     36  C   UNL     1      -4.497   7.347  10.289  0.00  0.00    +0.044 C 
ENDBRANCH  28  33
ENDBRANCH  24  28
ENDBRANCH  23  26
ENDBRANCH  22  23
ENDBRANCH   1  22
TORSDOF 8
