REMARK  Name = ZINC37360359
REMARK  7 active torsions:
REMARK  status: ('A' for Active; 'I' for Inactive)
REMARK    1  A    between atoms: C_1  and  C_2
REMARK    2  A    between atoms: C_2  and  O_3
REMARK    3  A    between atoms: O_3  and  C_4
REMARK    4  A    between atoms: C_4  and  C_6
REMARK    5  A    between atoms: C_15  and  C_30
REMARK    6  A    between atoms: C_17  and  N_29
REMARK    7  A    between atoms: N_18  and  C_22
REMARK                            x       y       z     vdW  Elec       q    Type
REMARK                         _______ _______ _______ _____ _____    ______ ____
ROOT
ATOM      1  C   UNL     1      -2.670  -2.598  -0.644  0.00  0.00    +0.115 C 
ATOM      2  C   UNL     1      -2.568  -4.100  -0.917  0.00  0.00    +0.018 C 
ATOM      3  C   UNL     1      -3.950  -4.741  -0.772  0.00  0.00    +0.020 C 
ATOM      4  C   UNL     1      -4.904  -4.126  -1.801  0.00  0.00    +0.108 C 
ATOM      5  N   UNL     1      -4.896  -2.666  -1.640  0.00  0.00    -0.299 N 
ATOM      6  C   UNL     1      -3.609  -1.958  -1.671  0.00  0.00    +0.122 C 
ATOM      7  C   UNL     1      -6.078  -1.970  -1.462  0.00  0.00    +0.220 A 
ATOM      8  N   UNL     1      -7.215  -2.659  -1.436  0.00  0.00    -0.213 NA
ATOM      9  C   UNL     1      -8.394  -2.070  -1.270  0.00  0.00    +0.091 A 
ATOM     10  C   UNL     1      -8.425  -0.665  -1.117  0.00  0.00    +0.086 A 
ATOM     11  C   UNL     1      -9.412   0.293  -0.929  0.00  0.00    +0.131 A 
ATOM     12  N   UNL     1      -8.803   1.493  -0.854  0.00  0.00    -0.216 N 
ATOM     13  N   UNL     1      -7.420   1.334  -0.992  0.00  0.00    -0.144 NA
ATOM     14  C   UNL     1      -7.141   0.059  -1.152  0.00  0.00    +0.189 A 
ATOM     15  N   UNL     1      -6.016  -0.661  -1.323  0.00  0.00    -0.193 NA
ENDROOT
BRANCH   9  16
ATOM     16  C   UNL     1      -9.641  -2.864  -1.246  0.00  0.00    +0.037 A 
ATOM     17  C   UNL     1     -10.664  -2.589  -2.155  0.00  0.00    +0.016 A 
ATOM     18  C   UNL     1     -11.825  -3.331  -2.128  0.00  0.00    +0.039 A 
ATOM     19  C   UNL     1     -11.980  -4.350  -1.201  0.00  0.00    +0.126 A 
ATOM     20  C   UNL     1     -10.969  -4.630  -0.295  0.00  0.00    +0.077 A 
ATOM     21  C   UNL     1      -9.798  -3.896  -0.316  0.00  0.00    +0.135 A 
ATOM     22  F   UNL     1      -8.810  -4.172   0.563  0.00  0.00    -0.205 F 
ATOM     23  F   UNL     1     -13.121  -5.074  -1.179  0.00  0.00    -0.205 F 
ENDBRANCH   9  16
BRANCH  12  24
ATOM     24  C   UNL     1      -9.457   2.717  -0.667  0.00  0.00    +0.070 A 
ATOM     25  C   UNL     1     -10.711   2.928  -1.227  0.00  0.00    +0.028 A 
ATOM     26  C   UNL     1     -11.355   4.136  -1.042  0.00  0.00    +0.005 A 
ATOM     27  C   UNL     1     -10.753   5.136  -0.300  0.00  0.00    +0.038 A 
ATOM     28  C   UNL     1      -9.504   4.929   0.260  0.00  0.00    +0.125 A 
ATOM     29  C   UNL     1      -8.857   3.719   0.083  0.00  0.00    +0.066 A 
ATOM     30  F   UNL     1      -8.918   5.908   0.984  0.00  0.00    -0.205 F 
ENDBRANCH  12  24
BRANCH  11  31
ATOM     31  N   UNL     1     -10.771   0.059  -0.835  0.00  0.00    -0.342 N 
ATOM     32  H   UNL     1     -11.114  -0.845  -0.907  0.00  0.00    +0.144 HD
ATOM     33  H   UNL     1     -11.382   0.800  -0.696  0.00  0.00    +0.144 HD
ENDBRANCH  11  31
BRANCH   1  34
ATOM     34  C   UNL     1      -1.303  -1.973  -0.755  0.00  0.00    +0.312 C 
ATOM     35  O   UNL     1      -0.345  -2.659  -1.024  0.00  0.00    -0.250 OA
BRANCH  34  36
ATOM     36  O   UNL     1      -1.149  -0.654  -0.556  0.00  0.00    -0.465 OA
BRANCH  36  38
ATOM     37  C   UNL     1       0.152   1.378  -0.418  0.00  0.00    +0.048 C 
ATOM     38  C   UNL     1       0.175  -0.130  -0.678  0.00  0.00    +0.229 C 
ENDBRANCH  36  38
ENDBRANCH  34  36
ENDBRANCH   1  34
TORSDOF 6
