REMARK  Name = ZINC58988465
REMARK  10 active torsions:
REMARK  status: ('A' for Active; 'I' for Inactive)
REMARK    1  A    between atoms: C_1  and  C_2
REMARK    2  A    between atoms: N_8  and  C_9
REMARK    3  A    between atoms: C_9  and  C_10
REMARK    4  A    between atoms: N_12  and  C_13
REMARK    5  A    between atoms: C_17  and  N_19
REMARK    6  A    between atoms: C_20  and  C_22
REMARK    7  A    between atoms: C_22  and  C_24
REMARK    8  A    between atoms: C_22  and  S_25
REMARK    9  A    between atoms: S_25  and  C_26
REMARK   10  A    between atoms: C_29  and  N_32
REMARK                            x       y       z     vdW  Elec       q    Type
REMARK                         _______ _______ _______ _____ _____    ______ ____
ROOT
ATOM      1  C   UNL     1       4.663  -0.162   3.938  0.00  0.00    +0.035 A 
ATOM      2  C   UNL     1       4.050  -0.971   4.887  0.00  0.00    +0.026 A 
ATOM      3  C   UNL     1       4.688  -1.241   6.083  0.00  0.00    +0.042 A 
ATOM      4  C   UNL     1       5.939  -0.707   6.338  0.00  0.00    +0.145 A 
ATOM      5  C   UNL     1       6.556   0.104   5.392  0.00  0.00    +0.071 A 
ATOM      6  C   UNL     1       5.919   0.370   4.189  0.00  0.00    +0.049 A 
ATOM      7  F   UNL     1       6.560  -0.972   7.508  0.00  0.00    -0.204 F 
ENDROOT
BRANCH   1  10
ATOM      8  C   UNL     1       2.675   0.253   2.698  0.00  0.00    +0.201 C 
ATOM      9  O   UNL     1       2.022   0.065   3.703  0.00  0.00    -0.278 OA
ATOM     10  N   UNL     1       4.014   0.111   2.728  0.00  0.00    -0.287 N 
ATOM     11  H   UNL     1       4.530   0.197   1.910  0.00  0.00    +0.155 HD
BRANCH   8  12
ATOM     12  C   UNL     1       1.987   0.647   1.416  0.00  0.00    +0.019 C 
BRANCH  12  19
ATOM     13  C   UNL     1       0.490   2.583   0.039  0.00  0.00    -0.013 C 
ATOM     14  C   UNL     1      -0.117   1.234   0.429  0.00  0.00    -0.071 C 
ATOM     15  C   UNL     1      -1.615   1.405   0.688  0.00  0.00    -0.016 C 
ATOM     16  C   UNL     1      -2.218   0.052   1.077  0.00  0.00    -0.003 C 
ATOM     17  C   UNL     1      -1.477  -0.493   2.300  0.00  0.00    -0.019 C 
ATOM     18  C   UNL     1       0.017  -0.594   1.982  0.00  0.00    -0.078 C 
ATOM     19  N   UNL     1       0.539   0.735   1.644  0.00  0.00    +0.387 N 
ATOM     20  H   UNL     1       0.359   1.371   2.407  0.00  0.00    -0.081 HD
ENDBRANCH  12  19
ENDBRANCH   8  12
ENDBRANCH   1  10
BRANCH   5  21
ATOM     21  N   UNL     1       7.821   0.645   5.650  0.00  0.00    -0.282 N 
ATOM     22  C   UNL     1       8.138   1.869   5.185  0.00  0.00    +0.230 C 
ATOM     23  O   UNL     1       7.359   2.468   4.474  0.00  0.00    -0.274 OA
ATOM     24  H   UNL     1       8.470   0.139   6.165  0.00  0.00    +0.155 HD
BRANCH  22  25
ATOM     25  C   UNL     1       9.461   2.494   5.548  0.00  0.00    +0.134 C 
ATOM     26  C   UNL     1      10.539   2.007   4.577  0.00  0.00    +0.029 C 
BRANCH  25  27
ATOM     27  S   UNL     1       9.325   4.300   5.444  0.00  0.00    -0.113 S 
BRANCH  27  28
ATOM     28  C   UNL     1       8.279   4.728   6.796  0.00  0.00    +0.009 A 
ATOM     29  C   UNL     1       7.872   3.751   7.697  0.00  0.00    +0.017 A 
ATOM     30  C   UNL     1       7.053   4.090   8.756  0.00  0.00    +0.034 A 
ATOM     31  C   UNL     1       6.636   5.399   8.919  0.00  0.00    +0.126 A 
ATOM     32  C   UNL     1       7.039   6.373   8.023  0.00  0.00    +0.034 A 
ATOM     33  C   UNL     1       7.864   6.043   6.966  0.00  0.00    +0.017 A 
BRANCH  31  34
ATOM     34  N   UNL     1       5.758   5.758  10.054  0.00  0.00    +0.056 N 
ATOM     35  O   UNL     1       5.405   4.908  10.838  0.00  0.00    -0.126 OA
ATOM     36  O   UNL     1       5.393   6.902  10.198  0.00  0.00    -0.126 OA
ENDBRANCH  31  34
ENDBRANCH  27  28
ENDBRANCH  25  27
ENDBRANCH  22  25
ENDBRANCH   5  21
TORSDOF 8
