REMARK  Name = ZINC02130084
REMARK  7 active torsions:
REMARK  status: ('A' for Active; 'I' for Inactive)
REMARK    1  A    between atoms: C_1  and  C_2
REMARK    2  A    between atoms: C_13  and  C_32
REMARK    3  A    between atoms: N_20  and  C_23
REMARK    4  A    between atoms: C_23  and  C_24
REMARK    5  A    between atoms: C_24  and  C_25
REMARK    6  A    between atoms: C_35  and  O_38
REMARK    7  A    between atoms: O_38  and  C_39
REMARK                            x       y       z     vdW  Elec       q    Type
REMARK                         _______ _______ _______ _____ _____    ______ ____
ROOT
ATOM      1  C   UNL     1      -1.208  -4.655   0.406  0.00  0.00    +0.048 C 
ATOM      2  C   UNL     1      -2.280  -3.644  -0.004  0.00  0.00    +0.151 C 
ATOM      3  C   UNL     1      -1.815  -2.913  -1.241  0.00  0.00    +0.054 A 
ATOM      4  C   UNL     1      -1.375  -1.635  -1.224  0.00  0.00    -0.008 A 
ATOM      5  C   UNL     1      -1.021  -1.292  -2.586  0.00  0.00    +0.004 A 
ATOM      6  C   UNL     1      -0.513  -0.128  -3.169  0.00  0.00    +0.010 A 
ATOM      7  C   UNL     1      -0.289  -0.158  -4.523  0.00  0.00    +0.001 A 
ATOM      8  C   UNL     1      -0.551  -1.283  -5.288  0.00  0.00    +0.002 A 
ATOM      9  C   UNL     1      -1.054  -2.449  -4.737  0.00  0.00    +0.026 A 
ATOM     10  C   UNL     1      -1.290  -2.448  -3.364  0.00  0.00    +0.047 A 
ATOM     11  N   UNL     1      -1.768  -3.406  -2.517  0.00  0.00    -0.356 N 
ATOM     12  H   UNL     1      -2.035  -4.301  -2.780  0.00  0.00    +0.166 HD
ATOM     13  C   UNL     1      -1.293  -0.774   0.010  0.00  0.00    +0.069 C 
ATOM     14  C   UNL     1      -1.349  -1.670   1.253  0.00  0.00    +0.122 C 
ATOM     15  N   UNL     1      -2.423  -2.666   1.074  0.00  0.00    -0.280 N 
ATOM     16  C   UNL     1      -3.486  -2.632   1.883  0.00  0.00    +0.234 C 
ATOM     17  O   UNL     1      -3.453  -1.879   2.832  0.00  0.00    -0.274 OA
ATOM     18  C   UNL     1      -4.713  -3.463   1.692  0.00  0.00    +0.203 C 
ATOM     19  N   UNL     1      -4.639  -4.285   0.495  0.00  0.00    -0.290 N 
ATOM     20  C   UNL     1      -3.554  -4.373  -0.275  0.00  0.00    +0.245 C 
ATOM     21  O   UNL     1      -3.606  -5.088  -1.253  0.00  0.00    -0.273 OA
ENDROOT
BRANCH  13  22
ATOM     22  C   UNL     1       0.002  -0.004   0.002  0.00  0.00    -0.038 A 
ATOM     23  C   UNL     1      -0.017   1.378   0.010  0.00  0.00    +0.008 A 
ATOM     24  C   UNL     1       1.169   2.087   0.002  0.00  0.00    +0.046 A 
ATOM     25  C   UNL     1       2.380   1.409  -0.013  0.00  0.00    +0.120 A 
ATOM     26  C   UNL     1       2.396   0.022  -0.020  0.00  0.00    +0.046 A 
ATOM     27  C   UNL     1       1.207  -0.681  -0.013  0.00  0.00    +0.008 A 
BRANCH  25  28
ATOM     28  O   UNL     1       3.548   2.104  -0.021  0.00  0.00    -0.495 OA
ATOM     29  C   UNL     1       3.456   3.530  -0.013  0.00  0.00    +0.277 C 
ENDBRANCH  25  28
ENDBRANCH  13  22
BRANCH  19  30
ATOM     30  C   UNL     1      -5.823  -5.059   0.113  0.00  0.00    +0.113 C 
BRANCH  30  31
ATOM     31  C   UNL     1      -5.763  -6.439   0.771  0.00  0.00    +0.054 C 
BRANCH  31  32
ATOM     32  C   UNL     1      -6.981  -7.235   0.379  0.00  0.00    -0.046 A 
ATOM     33  C   UNL     1      -8.124  -7.176   1.154  0.00  0.00    +0.006 A 
ATOM     34  C   UNL     1      -9.243  -7.902   0.792  0.00  0.00    +0.038 A 
ATOM     35  C   UNL     1      -9.215  -8.698  -0.341  0.00  0.00    +0.123 A 
ATOM     36  C   UNL     1      -8.067  -8.761  -1.113  0.00  0.00    +0.038 A 
ATOM     37  C   UNL     1      -6.952  -8.029  -0.752  0.00  0.00    +0.006 A 
ATOM     38  F   UNL     1     -10.306  -9.412  -0.693  0.00  0.00    -0.205 F 
ENDBRANCH  31  32
ENDBRANCH  30  31
ENDBRANCH  19  30
TORSDOF 5
