REMARK  Name = ZINC54378811
REMARK  4 active torsions:
REMARK  status: ('A' for Active; 'I' for Inactive)
REMARK    1  A    between atoms: C_4  and  S_9
REMARK    2  A    between atoms: C_5  and  C_7
REMARK    3  A    between atoms: C_7  and  N_8
REMARK    4  A    between atoms: S_9  and  C_10
REMARK                            x       y       z     vdW  Elec       q    Type
REMARK                         _______ _______ _______ _____ _____    ______ ____
ROOT
ATOM      1  C   UNL     1      -0.016   1.318   0.009  0.00  0.00    +0.130 A 
ATOM      2  C   UNL     1       1.169   2.030   0.002  0.00  0.00    +0.131 A 
ATOM      3  N   UNL     1       2.326   1.390  -0.013  0.00  0.00    -0.245 NA
ATOM      4  C   UNL     1       2.349   0.063  -0.020  0.00  0.00    +0.124 A 
ATOM      5  C   UNL     1       1.153  -0.650  -0.012  0.00  0.00    +0.056 A 
ATOM      6  N   UNL     1       0.002  -0.004   0.002  0.00  0.00    -0.258 NA
ENDROOT
BRANCH   5   7
ATOM      7  C   UNL     1       1.172  -2.157  -0.021  0.00  0.00    -0.027 C 
BRANCH   7   8
ATOM      8  N   UNL     1       1.192  -2.654   1.361  0.00  0.00    +0.382 N 
ATOM      9  H   UNL     1       2.016  -2.310   1.831  0.00  0.00    -0.090 HD
ATOM     10  H   UNL     1       0.368  -2.331   1.847  0.00  0.00    -0.090 HD
ATOM     11  H   UNL     1       1.205  -3.663   1.355  0.00  0.00    -0.090 HD
ENDBRANCH   7   8
ENDBRANCH   5   7
BRANCH   4  12
ATOM     12  S   UNL     1       3.888  -0.794  -0.040  0.00  0.00    -0.029 S 
BRANCH  12  13
ATOM     13  C   UNL     1       5.093   0.492  -0.045  0.00  0.00    +0.198 A 
ATOM     14  N   UNL     1       4.857   1.786  -0.030  0.00  0.00    -0.122 NA
ATOM     15  N   UNL     1       5.970   2.433  -0.032  0.00  0.00    -0.134 NA
ATOM     16  C   UNL     1       6.968   1.599  -0.045  0.00  0.00    +0.134 A 
ATOM     17  N   UNL     1       6.445   0.338  -0.059  0.00  0.00    -0.306 N 
ATOM     18  C   UNL     1       7.196  -0.916  -0.100  0.00  0.00    +0.125 C 
ATOM     19  C   UNL     1       8.562  -0.710   0.561  0.00  0.00    +0.022 C 
ATOM     20  C   UNL     1       9.575  -0.245  -0.484  0.00  0.00    +0.002 C 
ATOM     21  C   UNL     1       9.152   1.090  -1.087  0.00  0.00    +0.008 C 
ATOM     22  C   UNL     1       8.437   1.932  -0.034  0.00  0.00    +0.076 C 
ENDBRANCH  12  13
ENDBRANCH   4  12
TORSDOF 4
