REMARK  Name = ZINC39431147
REMARK  6 active torsions:
REMARK  status: ('A' for Active; 'I' for Inactive)
REMARK    1  A    between atoms: C_1  and  C_2
REMARK    2  A    between atoms: C_2  and  C_4
REMARK    3  A    between atoms: C_2  and  S_16
REMARK    4  A    between atoms: S_16  and  C_17
REMARK    5  A    between atoms: N_28  and  C_29
REMARK    6  A    between atoms: C_29  and  C_30
REMARK                            x       y       z     vdW  Elec       q    Type
REMARK                         _______ _______ _______ _____ _____    ______ ____
ROOT
ATOM      1  C   UNL     1      -2.550  -0.031   1.656  0.00  0.00    +0.223 C 
ATOM      2  N   UNL     1      -1.709  -0.446   2.785  0.00  0.00    -0.317 N 
ATOM      3  C   UNL     1      -0.576   0.301   3.085  0.00  0.00    +0.043 A 
ATOM      4  C   UNL     1       0.538  -0.271   3.675  0.00  0.00    +0.043 A 
ATOM      5  C   UNL     1       1.637   0.516   3.970  0.00  0.00    +0.043 A 
ATOM      6  C   UNL     1       1.630   1.873   3.680  0.00  0.00    +0.021 A 
ATOM      7  C   UNL     1       0.530   2.456   3.087  0.00  0.00    +0.016 A 
ATOM      8  C   UNL     1      -0.580   1.673   2.778  0.00  0.00    +0.058 A 
ATOM      9  C   UNL     1      -1.768   2.244   2.119  0.00  0.00    +0.251 C 
ATOM     10  O   UNL     1      -1.875   3.448   1.984  0.00  0.00    -0.270 OA
ATOM     11  N   UNL     1      -2.731   1.421   1.668  0.00  0.00    -0.266 N 
ATOM     12 CL   UNL     1       3.035  -0.200   4.709  0.00  0.00    -0.083 Cl
ATOM     13  H   UNL     1      -1.941  -1.226   3.313  0.00  0.00    +0.149 HD
ENDROOT
BRANCH   1  14
ATOM     14  S   UNL     1      -1.753  -0.523   0.102  0.00  0.00    -0.108 S 
BRANCH  14  16
ATOM     15  C   UNL     1      -4.137  -1.491  -0.827  0.00  0.00    +0.027 C 
ATOM     16  C   UNL     1      -3.085  -0.421  -1.125  0.00  0.00    +0.112 C 
BRANCH  16  17
ATOM     17  C   UNL     1      -2.517  -0.645  -2.503  0.00  0.00    +0.123 A 
ATOM     18  N   UNL     1      -3.377  -0.703  -3.553  0.00  0.00    -0.309 N 
ATOM     19  H   UNL     1      -4.329  -0.601  -3.400  0.00  0.00    +0.170 HD
ATOM     20  C   UNL     1      -2.917  -0.902  -4.810  0.00  0.00    +0.259 A 
ATOM     21  O   UNL     1      -3.675  -0.956  -5.760  0.00  0.00    -0.267 OA
ATOM     22  C   UNL     1      -1.464  -1.050  -4.984  0.00  0.00    +0.065 A 
ATOM     23  C   UNL     1      -0.888  -1.259  -6.235  0.00  0.00    +0.015 A 
ATOM     24  C   UNL     1       0.479  -1.392  -6.340  0.00  0.00    +0.001 A 
ATOM     25  C   UNL     1       1.284  -1.319  -5.211  0.00  0.00    +0.002 A 
ATOM     26  C   UNL     1       0.736  -1.114  -3.966  0.00  0.00    +0.028 A 
ATOM     27  C   UNL     1      -0.648  -0.976  -3.833  0.00  0.00    +0.078 A 
ATOM     28  N   UNL     1      -1.230  -0.767  -2.626  0.00  0.00    -0.233 NA
ENDBRANCH  16  17
ENDBRANCH  14  16
ENDBRANCH   1  14
BRANCH  11  29
ATOM     29  C   UNL     1      -3.987   1.993   1.178  0.00  0.00    +0.137 C 
BRANCH  29  30
ATOM     30  C   UNL     1      -4.965   2.110   2.318  0.00  0.00    -0.016 C 
ATOM     31  C   UNL     1      -5.515   3.267   2.593  0.00  0.00    +0.005 C 
ENDBRANCH  29  30
ENDBRANCH  11  29
TORSDOF 5
