REMARK  Name = ZINC63928703
REMARK  4 active torsions:
REMARK  status: ('A' for Active; 'I' for Inactive)
REMARK    1  A    between atoms: C_3  and  N_13
REMARK    2  A    between atoms: C_4  and  N_8
REMARK    3  A    between atoms: C_14  and  C_16
REMARK    4  A    between atoms: C_19  and  C_24
REMARK                            x       y       z     vdW  Elec       q    Type
REMARK                         _______ _______ _______ _____ _____    ______ ____
ROOT
ATOM      1  N   UNL     1       3.682   2.127   0.015  0.00  0.00    -0.280 N 
ATOM      2  C   UNL     1       3.715   3.473  -0.052  0.00  0.00    +0.254 C 
ATOM      3  O   UNL     1       2.677   4.109  -0.033  0.00  0.00    -0.270 OA
ATOM      4  H   UNL     1       4.509   1.625   0.081  0.00  0.00    +0.155 HD
ENDROOT
BRANCH   2   5
ATOM      5  C   UNL     1       5.002   4.171  -0.148  0.00  0.00    +0.101 A 
ATOM      6  C   UNL     1       6.202   3.456  -0.065  0.00  0.00    +0.020 A 
ATOM      7  C   UNL     1       7.403   4.139  -0.159  0.00  0.00    +0.028 A 
ATOM      8  C   UNL     1       7.403   5.518  -0.334  0.00  0.00    +0.056 A 
ATOM      9  N   UNL     1       6.226   6.212  -0.414  0.00  0.00    -0.321 N 
ATOM     10  H   UNL     1       6.245   7.174  -0.536  0.00  0.00    +0.169 HD
ATOM     11  C   UNL     1       5.042   5.575  -0.332  0.00  0.00    +0.261 A 
ATOM     12  O   UNL     1       4.004   6.209  -0.411  0.00  0.00    -0.267 OA
BRANCH   8  13
ATOM     13  C   UNL     1       8.675   6.235  -0.433  0.00  0.00    +0.036 A 
ATOM     14  C   UNL     1       8.902   7.594  -0.601  0.00  0.00    +0.017 A 
ATOM     15  C   UNL     1      10.222   7.975  -0.659  0.00  0.00    +0.008 A 
ATOM     16  C   UNL     1      11.187   7.029  -0.552  0.00  0.00    +0.046 A 
ATOM     17  S   UNL     1      10.336   5.593  -0.361  0.00  0.00    -0.095 S 
ENDBRANCH   8  13
ENDBRANCH   2   5
BRANCH   1  20
ATOM     18  C   UNL     1       0.137   1.385  -0.624  0.00  0.00    +0.003 A 
ATOM     19  C   UNL     1       1.348   2.050  -0.600  0.00  0.00    +0.025 A 
ATOM     20  C   UNL     1       2.455   1.456  -0.010  0.00  0.00    +0.061 A 
ATOM     21  C   UNL     1       2.340   0.187   0.557  0.00  0.00    +0.106 A 
ATOM     22  C   UNL     1       1.121  -0.474   0.528  0.00  0.00    +0.068 A 
ATOM     23  C   UNL     1       0.023   0.127  -0.062  0.00  0.00    +0.022 A 
ATOM     24 CL   UNL     1       0.972  -2.054   1.232  0.00  0.00    -0.081 Cl
BRANCH  21  25
ATOM     25  N   UNL     1       3.455  -0.420   1.155  0.00  0.00    -0.217 N 
ATOM     26  C   UNL     1       4.278   0.127   2.070  0.00  0.00    +0.225 A 
ATOM     27  N   UNL     1       5.192  -0.760   2.374  0.00  0.00    -0.222 NA
ATOM     28  C   UNL     1       4.987  -1.877   1.678  0.00  0.00    +0.245 A 
ATOM     29  N   UNL     1       3.932  -1.720   0.921  0.00  0.00    -0.153 NA
ENDBRANCH  21  25
ENDBRANCH   1  20
TORSDOF 4
