REMARK  Name = ZINC33042863
REMARK  5 active torsions:
REMARK  status: ('A' for Active; 'I' for Inactive)
REMARK    1  A    between atoms: C_1  and  C_2
REMARK    2  A    between atoms: C_2  and  C_3
REMARK    3  A    between atoms: N_23  and  C_24
REMARK    4  A    between atoms: C_26  and  C_31
REMARK    5  A    between atoms: C_29  and  C_30
REMARK                            x       y       z     vdW  Elec       q    Type
REMARK                         _______ _______ _______ _____ _____    ______ ____
ROOT
ATOM      1  C   UNL     1       0.242  -0.665  -6.047  0.00  0.00    +0.125 C 
ATOM      2  C   UNL     1       1.194   0.029  -6.974  0.00  0.00    +0.045 A 
ATOM      3  C   UNL     1       2.406  -0.357  -7.399  0.00  0.00    +0.025 A 
ATOM      4  C   UNL     1       2.869   0.622  -8.305  0.00  0.00    +0.020 A 
ATOM      5  C   UNL     1       1.921   1.583  -8.386  0.00  0.00    +0.092 A 
ATOM      6  N   UNL     1       0.909   1.244  -7.554  0.00  0.00    -0.312 N 
ATOM      7  C   UNL     1      -0.254   1.917  -7.199  0.00  0.00    +0.090 A 
ATOM      8  C   UNL     1      -0.695   2.055  -5.920  0.00  0.00    +0.005 A 
ATOM      9  C   UNL     1      -1.913   2.741  -5.738  0.00  0.00    -0.030 A 
ATOM     10  C   UNL     1      -2.530   3.237  -6.843  0.00  0.00    -0.005 A 
ATOM     11  S   UNL     1      -1.463   2.755  -8.178  0.00  0.00    -0.075 S 
ATOM     12  C   UNL     1      -3.811   4.003  -6.908  0.00  0.00    +0.043 C 
ATOM     13  C   UNL     1      -4.540   3.837  -5.566  0.00  0.00    +0.005 C 
ATOM     14  C   UNL     1      -3.543   4.085  -4.431  0.00  0.00    +0.005 C 
ATOM     15  C   UNL     1      -2.535   2.938  -4.358  0.00  0.00    +0.036 C 
ATOM     16  C   UNL     1       0.114   1.503  -4.772  0.00  0.00    +0.148 C 
ATOM     17  N   UNL     1       0.137   0.030  -4.741  0.00  0.00    -0.272 N 
ATOM     18  C   UNL     1       0.061  -0.653  -3.582  0.00  0.00    +0.307 C 
ATOM     19  O   UNL     1       0.078  -1.869  -3.590  0.00  0.00    -0.252 OA
ATOM     20  N   UNL     1      -0.033   0.011  -2.413  0.00  0.00    -0.269 N 
ATOM     21  H   UNL     1      -0.141   1.106  -2.410  0.00  0.00    +0.156 HD
ENDROOT
BRANCH  20  22
ATOM     22  C   UNL     1       0.007  -0.691  -1.203  0.00  0.00    +0.038 A 
ATOM     23  C   UNL     1       0.635  -1.929  -1.138  0.00  0.00    +0.027 A 
ATOM     24  C   UNL     1       0.667  -2.622   0.056  0.00  0.00    -0.049 A 
ATOM     25  C   UNL     1       0.080  -2.084   1.187  0.00  0.00    +0.004 A 
ATOM     26  C   UNL     1      -0.541  -0.850   1.126  0.00  0.00    +0.005 A 
ATOM     27  C   UNL     1      -0.577  -0.151  -0.065  0.00  0.00    -0.029 A 
ATOM     28  C   UNL     1      -1.254   1.193  -0.131  0.00  0.00    +0.045 C 
ATOM     29  C   UNL     1       1.343  -3.967   0.127  0.00  0.00    +0.044 C 
ENDBRANCH  20  22
BRANCH   1  31
ATOM     30  C   UNL     1      -2.076  -1.576  -5.848  0.00  0.00    +0.006 C 
ATOM     31  C   UNL     1      -1.142  -0.713  -6.698  0.00  0.00    +0.025 C 
ENDBRANCH   1  31
TORSDOF 2
