REMARK  Name = ZINC04122935
REMARK  10 active torsions:
REMARK  status: ('A' for Active; 'I' for Inactive)
REMARK    1  A    between atoms: C_1  and  C_2
REMARK    2  A    between atoms: C_2  and  N_3
REMARK    3  A    between atoms: N_3  and  C_4
REMARK    4  A    between atoms: N_3  and  C_6
REMARK    5  A    between atoms: C_4  and  C_5
REMARK    6  A    between atoms: C_9  and  N_12
REMARK    7  A    between atoms: C_16  and  C_34
REMARK    8  A    between atoms: C_17  and  N_21
REMARK    9  A    between atoms: C_22  and  C_24
REMARK   10  A    between atoms: C_26  and  N_31
REMARK                            x       y       z     vdW  Elec       q    Type
REMARK                         _______ _______ _______ _____ _____    ______ ____
ROOT
ATOM      1  N   UNL     1       1.618  -6.024   0.583  0.00  0.00    -0.149 N 
ATOM      2  N   UNL     1       2.800  -6.531   0.645  0.00  0.00    -0.147 NA
ATOM      3  C   UNL     1       2.712  -7.842   0.487  0.00  0.00    +0.114 A 
ATOM      4  C   UNL     1       3.608  -8.926   0.455  0.00  0.00    +0.037 A 
ATOM      5  C   UNL     1       3.132 -10.183   0.265  0.00  0.00    -0.027 A 
ATOM      6  C   UNL     1       1.764 -10.434   0.098  0.00  0.00    +0.039 A 
ATOM      7  C   UNL     1       0.844  -9.425   0.119  0.00  0.00    +0.055 A 
ATOM      8  C   UNL     1       1.275  -8.102   0.313  0.00  0.00    +0.115 A 
ATOM      9  N   UNL     1       0.704  -6.911   0.396  0.00  0.00    -0.147 NA
ATOM     10  C   UNL     1       4.100 -11.337   0.231  0.00  0.00    +0.046 C 
ENDROOT
BRANCH   1  14
ATOM     11  C   UNL     1       0.834  -1.948   0.966  0.00  0.00    +0.014 A 
ATOM     12  C   UNL     1      -0.207  -2.836   0.766  0.00  0.00    +0.024 A 
ATOM     13  C   UNL     1       0.049  -4.187   0.639  0.00  0.00    +0.031 A 
ATOM     14  C   UNL     1       1.355  -4.654   0.712  0.00  0.00    +0.086 A 
ATOM     15  C   UNL     1       2.399  -3.760   0.913  0.00  0.00    +0.031 A 
ATOM     16  C   UNL     1       2.136  -2.410   1.034  0.00  0.00    +0.024 A 
BRANCH  11  17
ATOM     17  N   UNL     1       0.571  -0.582   1.095  0.00  0.00    -0.394 NA
ATOM     18  H   UNL     1       1.438  -0.083   1.230  0.00  0.00    +0.126 HD
BRANCH  17  20
ATOM     19  C   UNL     1       0.863  -0.237  -1.312  0.00  0.00    +0.022 C 
ATOM     20  C   UNL     1      -0.089  -0.093  -0.123  0.00  0.00    +0.081 C 
ENDBRANCH  17  20
BRANCH  17  21
ATOM     21  C   UNL     1      -0.307  -0.358   2.251  0.00  0.00    +0.081 C 
ATOM     22  C   UNL     1       0.424  -0.765   3.532  0.00  0.00    +0.022 C 
ENDBRANCH  17  21
ENDBRANCH  11  17
ENDBRANCH   1  14
BRANCH   6  23
ATOM     23  N   UNL     1       1.330 -11.750  -0.096  0.00  0.00    -0.281 N 
ATOM     24  C   UNL     1       0.271 -12.000  -0.892  0.00  0.00    +0.250 C 
ATOM     25  O   UNL     1      -0.249 -11.094  -1.514  0.00  0.00    -0.270 OA
ATOM     26  H   UNL     1       1.790 -12.482   0.343  0.00  0.00    +0.155 HD
BRANCH  24  27
ATOM     27  C   UNL     1      -0.257 -13.375  -1.008  0.00  0.00    +0.057 A 
ATOM     28  C   UNL     1       0.334 -14.416  -0.289  0.00  0.00    +0.047 A 
ATOM     29  C   UNL     1      -0.164 -15.697  -0.402  0.00  0.00    +0.127 A 
ATOM     30  C   UNL     1      -1.248 -15.953  -1.224  0.00  0.00    +0.034 A 
ATOM     31  C   UNL     1      -1.839 -14.927  -1.939  0.00  0.00    +0.023 A 
ATOM     32  C   UNL     1      -1.354 -13.638  -1.832  0.00  0.00    +0.053 A 
ATOM     33 CL   UNL     1      -2.101 -12.350  -2.724  0.00  0.00    -0.083 Cl
BRANCH  29  34
ATOM     34  N   UNL     1       0.462 -16.802   0.359  0.00  0.00    +0.056 N 
ATOM     35  O   UNL     1       1.408 -16.581   1.077  0.00  0.00    -0.126 OA
ATOM     36  O   UNL     1       0.026 -17.925   0.262  0.00  0.00    -0.126 OA
ENDBRANCH  29  34
ENDBRANCH  24  27
ENDBRANCH   6  23
TORSDOF 7
