REMARK  Name = ZINC55731409
REMARK  3 active torsions:
REMARK  status: ('A' for Active; 'I' for Inactive)
REMARK    1  A    between atoms: C_1  and  C_2
REMARK    2  A    between atoms: C_2  and  C_4
REMARK    3  A    between atoms: C_2  and  N_21
REMARK                            x       y       z     vdW  Elec       q    Type
REMARK                         _______ _______ _______ _____ _____    ______ ____
ROOT
ATOM      1  C   UNL     1       0.722  -0.371  -1.270  0.00  0.00    +0.240 C 
ATOM      2  O   UNL     1       1.711  -1.072  -1.226  0.00  0.00    -0.273 OA
ATOM      3  N   UNL     1       0.267   0.078  -2.456  0.00  0.00    -0.295 N 
ATOM      4  C   UNL     1      -0.861   1.020  -2.525  0.00  0.00    +0.114 C 
ATOM      5  C   UNL     1      -0.370   2.347  -3.114  0.00  0.00    +0.072 C 
ATOM      6  C   UNL     1       0.484   2.060  -4.327  0.00  0.00    +0.023 A 
ATOM      7  C   UNL     1       1.044   0.860  -4.593  0.00  0.00    -0.002 A 
ATOM      8  C   UNL     1       1.781   0.996  -5.831  0.00  0.00    +0.006 A 
ATOM      9  C   UNL     1       2.550   0.101  -6.582  0.00  0.00    +0.010 A 
ATOM     10  C   UNL     1       3.119   0.584  -7.734  0.00  0.00    +0.002 A 
ATOM     11  C   UNL     1       2.946   1.896  -8.146  0.00  0.00    +0.017 A 
ATOM     12  C   UNL     1       2.190   2.803  -7.423  0.00  0.00    +0.042 A 
ATOM     13  C   UNL     1       1.601   2.340  -6.247  0.00  0.00    +0.061 A 
ATOM     14  N   UNL     1       0.812   2.951  -5.316  0.00  0.00    -0.357 N 
ATOM     15  H   UNL     1       0.526   3.878  -5.349  0.00  0.00    +0.166 HD
ATOM     16 BR   UNL     1       1.967   4.589  -8.003  0.00  0.00    -0.048 Br
ATOM     17  C   UNL     1       0.888  -0.356  -3.720  0.00  0.00    +0.145 C 
ENDROOT
BRANCH   1  19
ATOM     18  C   UNL     1       0.964  -0.125   1.186  0.00  0.00    +0.042 C 
ATOM     19  C   UNL     1       0.003  -0.003   0.002  0.00  0.00    +0.191 C 
BRANCH  19  20
ATOM     20  N   UNL     1      -1.133  -0.908   0.200  0.00  0.00    -0.240 N 
ATOM     21  C   UNL     1      -1.106  -2.118   0.785  0.00  0.00    +0.219 A 
ATOM     22  N   UNL     1      -2.320  -2.605   0.767  0.00  0.00    -0.223 NA
ATOM     23  C   UNL     1      -3.146  -1.738   0.182  0.00  0.00    +0.245 A 
ATOM     24  N   UNL     1      -2.466  -0.681  -0.178  0.00  0.00    -0.158 NA
ENDBRANCH  19  20
ENDBRANCH   1  19
TORSDOF 2
