REMARK  Name = ZINC65010610
REMARK  7 active torsions:
REMARK  status: ('A' for Active; 'I' for Inactive)
REMARK    1  A    between atoms: C_1  and  C_2
REMARK    2  A    between atoms: C_5  and  C_31
REMARK    3  A    between atoms: C_6  and  C_23
REMARK    4  A    between atoms: C_9  and  S_12
REMARK    5  A    between atoms: C_10  and  C_11
REMARK    6  A    between atoms: S_12  and  N_15
REMARK    7  A    between atoms: N_15  and  C_16
REMARK                            x       y       z     vdW  Elec       q    Type
REMARK                         _______ _______ _______ _____ _____    ______ ____
ROOT
ATOM      1  C   UNL     1       0.119   2.319   0.854  0.00  0.00    +0.044 C 
ATOM      2  C   UNL     1       0.208   0.848   0.540  0.00  0.00    -0.045 A 
ATOM      3  C   UNL     1       0.488   0.442  -0.735  0.00  0.00    +0.015 A 
ATOM      4  C   UNL     1       0.570  -0.921  -1.025  0.00  0.00    +0.026 A 
ATOM      5  C   UNL     1       0.842  -1.691  -2.239  0.00  0.00    +0.008 A 
ATOM      6  C   UNL     1       0.784  -2.998  -1.876  0.00  0.00    +0.194 A 
ATOM      7  O   UNL     1       0.502  -3.094  -0.560  0.00  0.00    -0.448 OA
ATOM      8  C   UNL     1       0.365  -1.873  -0.008  0.00  0.00    +0.163 A 
ATOM      9  C   UNL     1       0.082  -1.436   1.281  0.00  0.00    +0.154 A 
ATOM     10  C   UNL     1       0.011  -0.086   1.547  0.00  0.00    -0.017 A 
ATOM     11  C   UNL     1      -0.290   0.382   2.948  0.00  0.00    +0.046 C 
ATOM     12  C   UNL     1       1.129  -1.144  -3.613  0.00  0.00    +0.048 C 
ENDROOT
BRANCH   6  13
ATOM     13  C   UNL     1       0.995  -4.137  -2.781  0.00  0.00    +0.282 C 
ATOM     14  O   UNL     1       1.104  -3.951  -3.978  0.00  0.00    -0.267 OA
ATOM     15  N   UNL     1       1.069  -5.388  -2.284  0.00  0.00    -0.295 N 
ATOM     16  C   UNL     1       1.373  -6.526  -3.163  0.00  0.00    +0.108 C 
ATOM     17  C   UNL     1       2.565  -7.293  -2.581  0.00  0.00    +0.019 C 
ATOM     18  C   UNL     1       2.259  -7.681  -1.133  0.00  0.00    +0.003 C 
ATOM     19  C   UNL     1       2.045  -6.417  -0.298  0.00  0.00    +0.019 C 
ATOM     20  C   UNL     1       0.853  -5.639  -0.852  0.00  0.00    +0.108 C 
ENDBRANCH   6  13
BRANCH   9  21
ATOM     21  S   UNL     1      -0.178  -2.606   2.572  0.00  0.00    +0.076 S 
ATOM     22  O   UNL     1      -1.356  -2.201   3.256  0.00  0.00    -0.150 OA
ATOM     23  O   UNL     1      -0.042  -3.894   1.987  0.00  0.00    -0.150 OA
BRANCH  21  24
ATOM     24  N   UNL     1       1.073  -2.439   3.644  0.00  0.00    -0.213 N 
ATOM     25  H   UNL     1       0.905  -2.098   4.537  0.00  0.00    +0.174 HD
BRANCH  24  26
ATOM     26  C   UNL     1       2.372  -2.788   3.263  0.00  0.00    +0.083 A 
ATOM     27  C   UNL     1       2.728  -2.787   1.921  0.00  0.00    +0.027 A 
ATOM     28  C   UNL     1       4.012  -3.132   1.547  0.00  0.00    +0.002 A 
ATOM     29  C   UNL     1       4.944  -3.481   2.507  0.00  0.00    +0.003 A 
ATOM     30  C   UNL     1       4.595  -3.485   3.845  0.00  0.00    +0.040 A 
ATOM     31  C   UNL     1       3.313  -3.134   4.227  0.00  0.00    +0.146 A 
ATOM     32  F   UNL     1       2.973  -3.132   5.535  0.00  0.00    -0.204 F 
ENDBRANCH  24  26
ENDBRANCH  21  24
ENDBRANCH   9  21
TORSDOF 4
