REMARK  Name = ZINC62099538
REMARK  6 active torsions:
REMARK  status: ('A' for Active; 'I' for Inactive)
REMARK    1  A    between atoms: C_1  and  C_2
REMARK    2  A    between atoms: C_2  and  C_3
REMARK    3  A    between atoms: C_3  and  C_5
REMARK    4  A    between atoms: C_3  and  N_21
REMARK    5  A    between atoms: C_5  and  C_7
REMARK    6  A    between atoms: C_5  and  N_13
REMARK                            x       y       z     vdW  Elec       q    Type
REMARK                         _______ _______ _______ _____ _____    ______ ____
ROOT
ATOM      1  C   UNL     1       0.849  -2.021  -1.205  0.00  0.00    +0.079 C 
ENDROOT
BRANCH   1   2
ATOM      2  N   UNL     1       1.366  -2.613  -2.446  0.00  0.00    -0.295 NA
ATOM      3  C   UNL     1       2.749  -2.220  -2.675  0.00  0.00    +0.094 C 
ATOM      4  C   UNL     1       3.155  -2.492  -4.127  0.00  0.00    +0.111 C 
ATOM      5  C   UNL     1       3.581  -3.941  -4.240  0.00  0.00    +0.214 C 
ATOM      6  O   UNL     1       4.747  -4.219  -4.423  0.00  0.00    -0.276 OA
ATOM      7  N   UNL     1       2.670  -4.913  -4.138  0.00  0.00    -0.314 N 
ATOM      8  C   UNL     1       1.252  -4.577  -3.922  0.00  0.00    +0.119 C 
ATOM      9  C   UNL     1       1.091  -4.041  -2.497  0.00  0.00    +0.103 C 
ATOM     10  H   UNL     1       2.942  -5.842  -4.207  0.00  0.00    +0.149 HD
ENDBRANCH   1   2
BRANCH   1  11
ATOM     11  C   UNL     1       1.613  -2.574  -0.029  0.00  0.00    +0.006 A 
ATOM     12  C   UNL     1       1.137  -3.109   1.122  0.00  0.00    +0.014 A 
ATOM     13  C   UNL     1       2.033  -3.558   2.073  0.00  0.00    +0.023 A 
ATOM     14  C   UNL     1       3.363  -3.450   1.827  0.00  0.00    +0.055 A 
ATOM     15  S   UNL     1       3.378  -2.702   0.205  0.00  0.00    -0.085 S 
ATOM     16 BR   UNL     1       4.822  -3.965   2.914  0.00  0.00    -0.043 Br
ENDBRANCH   1  11
BRANCH   1  17
ATOM     17  C   UNL     1       1.020  -0.501  -1.255  0.00  0.00    -0.053 C 
BRANCH  17  18
ATOM     18  N   UNL     1       0.413   0.020  -2.487  0.00  0.00    +0.381 N 
ATOM     19  H   UNL     1       0.526   1.022  -2.520  0.00  0.00    -0.090 HD
ATOM     20  H   UNL     1       0.866  -0.396  -3.287  0.00  0.00    -0.090 HD
ATOM     21  H   UNL     1      -0.569  -0.209  -2.500  0.00  0.00    -0.090 HD
ENDBRANCH  17  18
BRANCH  17  23
ATOM     22  C   UNL     1       0.610   1.634  -0.024  0.00  0.00    +0.002 C 
ATOM     23  C   UNL     1       0.334   0.129  -0.042  0.00  0.00    -0.018 C 
ENDBRANCH  17  23
ENDBRANCH   1  17
TORSDOF 5
