REMARK  Name = ZINC09543068
REMARK  6 active torsions:
REMARK  status: ('A' for Active; 'I' for Inactive)
REMARK    1  A    between atoms: C_1  and  O_2
REMARK    2  A    between atoms: O_2  and  C_3
REMARK    3  A    between atoms: C_6  and  C_9
REMARK    4  A    between atoms: C_11  and  C_24
REMARK    5  A    between atoms: C_13  and  C_16
REMARK    6  A    between atoms: C_21  and  O_22
REMARK                            x       y       z     vdW  Elec       q    Type
REMARK                         _______ _______ _______ _____ _____    ______ ____
ROOT
ATOM      1  C   UNL     1       1.092  -0.161   4.337  0.00  0.00    +0.040 C 
ATOM      2  N   UNL     1       0.866   0.799   5.154  0.00  0.00    -0.299 NA
ATOM      3  C   UNL     1       0.950   2.210   4.800  0.00  0.00    +0.081 C 
ATOM      4  C   UNL     1       1.190   1.506   2.506  0.00  0.00    -0.028 C 
ATOM      5  C   UNL     1       1.488   0.057   2.903  0.00  0.00    +0.044 C 
ATOM      6  N   UNL     1       1.719   2.393   3.560  0.00  0.00    +0.401 N 
ATOM      7  H   UNL     1       2.705   2.164   3.734  0.00  0.00    -0.081 HD
ATOM      8  H   UNL     1       1.644   3.369   3.253  0.00  0.00    -0.081 HD
ENDROOT
BRANCH   4   9
ATOM      9  C   UNL     1       1.863   1.822   1.195  0.00  0.00    -0.018 A 
ATOM     10  C   UNL     1       3.119   2.398   1.184  0.00  0.00    +0.025 A 
ATOM     11  C   UNL     1       3.735   2.693  -0.019  0.00  0.00    +0.041 A 
ATOM     12  C   UNL     1       3.096   2.409  -1.214  0.00  0.00    +0.023 A 
ATOM     13  C   UNL     1       1.842   1.830  -1.207  0.00  0.00    +0.047 A 
ATOM     14  C   UNL     1       1.223   1.532  -0.001  0.00  0.00    +0.119 A 
ATOM     15 CL   UNL     1       5.310   3.422  -0.030  0.00  0.00    -0.084 Cl
BRANCH  14  16
ATOM     16  O   UNL     1      -0.011   0.963   0.007  0.00  0.00    -0.507 OA
ATOM     17  H   UNL     1       0.002  -0.004   0.002  0.00  0.00    +0.292 HD
ENDBRANCH  14  16
ENDBRANCH   4   9
BRANCH   3  18
ATOM     18  C   UNL     1      -0.441   2.758   4.608  0.00  0.00    -0.039 A 
ATOM     19  C   UNL     1      -1.502   2.208   5.302  0.00  0.00    +0.004 A 
ATOM     20  C   UNL     1      -2.778   2.709   5.126  0.00  0.00    +0.002 A 
ATOM     21  C   UNL     1      -2.994   3.762   4.257  0.00  0.00    +0.020 A 
ATOM     22  C   UNL     1      -1.932   4.313   3.562  0.00  0.00    +0.041 A 
ATOM     23  C   UNL     1      -0.654   3.814   3.743  0.00  0.00    +0.023 A 
ATOM     24 CL   UNL     1      -2.202   5.635   2.470  0.00  0.00    -0.084 Cl
ENDBRANCH   3  18
BRANCH   1  28
ATOM     25  C   UNL     1       0.711  -4.148   5.746  0.00  0.00    +0.120 A 
ATOM     26  C   UNL     1       0.472  -3.083   6.606  0.00  0.00    +0.046 A 
ATOM     27  C   UNL     1       0.594  -1.788   6.153  0.00  0.00    +0.013 A 
ATOM     28  C   UNL     1       0.960  -1.546   4.826  0.00  0.00    -0.004 A 
ATOM     29  C   UNL     1       1.194  -2.619   3.963  0.00  0.00    +0.013 A 
ATOM     30  C   UNL     1       1.074  -3.911   4.426  0.00  0.00    +0.046 A 
BRANCH  25  32
ATOM     31  C   UNL     1       0.850  -6.469   5.260  0.00  0.00    +0.277 C 
ATOM     32  O   UNL     1       0.590  -5.422   6.197  0.00  0.00    -0.495 OA
ENDBRANCH  25  32
ENDBRANCH   1  28
TORSDOF 5
