REMARK  Name = ZINC64623141
REMARK  5 active torsions:
REMARK  status: ('A' for Active; 'I' for Inactive)
REMARK    1  A    between atoms: C_1  and  O_2
REMARK    2  A    between atoms: O_2  and  C_3
REMARK    3  A    between atoms: C_3  and  C_5
REMARK    4  A    between atoms: C_10  and  N_11
REMARK    5  A    between atoms: C_27  and  C_29
REMARK                            x       y       z     vdW  Elec       q    Type
REMARK                         _______ _______ _______ _____ _____    ______ ____
ROOT
ATOM      1  N   UNL     1       0.896  -2.333   4.466  0.00  0.00    -0.269 N 
ATOM      2  C   UNL     1       2.054  -2.887   4.875  0.00  0.00    +0.307 C 
ATOM      3  O   UNL     1       2.276  -4.063   4.659  0.00  0.00    -0.252 OA
ATOM      4  N   UNL     1       2.968  -2.138   5.522  0.00  0.00    -0.276 N 
ATOM      5  C   UNL     1       2.744  -0.697   5.681  0.00  0.00    +0.114 C 
ATOM      6  C   UNL     1       3.921   0.077   5.059  0.00  0.00    +0.052 C 
ATOM      7  C   UNL     1       5.183  -0.604   5.529  0.00  0.00    -0.035 C 
ATOM      8  C   UNL     1       6.274  -0.124   6.113  0.00  0.00    +0.001 A 
ATOM      9  C   UNL     1       6.698   1.253   6.414  0.00  0.00    +0.030 A 
ATOM     10  C   UNL     1       7.892   1.387   7.052  0.00  0.00    +0.042 A 
ATOM     11  C   UNL     1       8.696   0.300   7.415  0.00  0.00    +0.022 A 
ATOM     12  C   UNL     1       8.388  -0.998   7.169  0.00  0.00    +0.027 A 
ATOM     13  C   UNL     1       7.160  -1.265   6.497  0.00  0.00    +0.043 A 
ATOM     14  N   UNL     1       6.635  -2.393   6.120  0.00  0.00    -0.375 N 
ATOM     15  C   UNL     1       5.392  -2.108   5.403  0.00  0.00    +0.131 C 
ATOM     16  C   UNL     1       4.177  -2.774   6.068  0.00  0.00    +0.134 C 
ATOM     17 CL   UNL     1       8.448   2.986   7.434  0.00  0.00    -0.084 Cl
ATOM     18  H   UNL     1       0.751  -1.379   4.569  0.00  0.00    +0.156 HD
ATOM     19  H   UNL     1       7.005  -3.275   6.287  0.00  0.00    +0.160 HD
ENDROOT
BRANCH  16  20
ATOM     20  C   UNL     1       4.164  -4.248   5.753  0.00  0.00    -0.025 A 
ATOM     21  C   UNL     1       4.420  -4.682   4.466  0.00  0.00    +0.008 A 
ATOM     22  C   UNL     1       4.409  -6.033   4.176  0.00  0.00    +0.038 A 
ATOM     23  C   UNL     1       4.141  -6.953   5.176  0.00  0.00    +0.123 A 
ATOM     24  C   UNL     1       3.885  -6.517   6.465  0.00  0.00    +0.038 A 
ATOM     25  C   UNL     1       3.902  -5.166   6.754  0.00  0.00    +0.008 A 
ATOM     26  F   UNL     1       4.129  -8.274   4.894  0.00  0.00    -0.205 F 
ENDBRANCH  16  20
BRANCH   1  32
ATOM     27  C   UNL     1      -0.906  -2.620   2.871  0.00  0.00    +0.080 A 
ATOM     28  C   UNL     1      -1.892  -3.432   2.304  0.00  0.00    +0.017 A 
ATOM     29  C   UNL     1      -2.064  -4.722   2.757  0.00  0.00    +0.001 A 
ATOM     30  C   UNL     1      -1.264  -5.220   3.773  0.00  0.00    +0.002 A 
ATOM     31  C   UNL     1      -0.286  -4.430   4.343  0.00  0.00    +0.024 A 
ATOM     32  C   UNL     1      -0.094  -3.130   3.896  0.00  0.00    +0.049 A 
BRANCH  27  33
ATOM     33  C   UNL     1      -0.716  -1.240   2.392  0.00  0.00    +0.341 C 
ATOM     34  O   UNL     1       0.084  -0.510   2.943  0.00  0.00    -0.245 OA
BRANCH  33  36
ATOM     35  C   UNL     1      -1.196   0.562   0.932  0.00  0.00    +0.280 C 
ATOM     36  O   UNL     1      -1.431  -0.787   1.343  0.00  0.00    -0.464 OA
ENDBRANCH  33  36
ENDBRANCH  27  33
ENDBRANCH   1  32
TORSDOF 4
