REMARK  Name = ZINC10244405
REMARK  11 active torsions:
REMARK  status: ('A' for Active; 'I' for Inactive)
REMARK    1  A    between atoms: C_1  and  C_2
REMARK    2  A    between atoms: C_2  and  N_56
REMARK    3  A    between atoms: C_3  and  C_4
REMARK    4  A    between atoms: C_3  and  N_56
REMARK    5  A    between atoms: C_5  and  C_6
REMARK    6  A    between atoms: C_5  and  N_56
REMARK    7  A    between atoms: C_6  and  S_7
REMARK    8  A    between atoms: S_7  and  C_8
REMARK    9  A    between atoms: N_22  and  C_23
REMARK   10  A    between atoms: C_26  and  O_29
REMARK   11  A    between atoms: O_29  and  C_30
REMARK                            x       y       z     vdW  Elec       q    Type
REMARK                         _______ _______ _______ _____ _____    ______ ____
ROOT
ATOM      1  C   UNL     1      -0.054   0.743   2.723  0.00  0.00    +0.177 A 
ATOM      2  N   UNL     1       0.958   0.032   2.277  0.00  0.00    -0.221 NA
ATOM      3  C   UNL     1       1.968  -0.320   3.089  0.00  0.00    +0.104 A 
ATOM      4  C   UNL     1       3.207  -1.086   2.892  0.00  0.00    +0.026 A 
ATOM      5  C   UNL     1       3.780  -1.720   1.789  0.00  0.00    +0.012 A 
ATOM      6  C   UNL     1       4.975  -2.370   1.922  0.00  0.00    +0.001 A 
ATOM      7  C   UNL     1       5.623  -2.406   3.148  0.00  0.00    +0.002 A 
ATOM      8  C   UNL     1       5.075  -1.789   4.250  0.00  0.00    +0.026 A 
ATOM      9  C   UNL     1       3.858  -1.120   4.137  0.00  0.00    +0.049 A 
ATOM     10  N   UNL     1       3.088  -0.428   5.047  0.00  0.00    -0.349 N 
ATOM     11  H   UNL     1       3.312  -0.300   5.982  0.00  0.00    +0.166 HD
ATOM     12  C   UNL     1       1.946   0.060   4.430  0.00  0.00    +0.132 A 
ATOM     13  C   UNL     1       0.853   0.817   4.897  0.00  0.00    +0.283 A 
ATOM     14  O   UNL     1       0.793   1.171   6.063  0.00  0.00    -0.265 OA
ATOM     15  N   UNL     1      -0.128   1.143   4.027  0.00  0.00    -0.254 N 
ENDROOT
BRANCH  15  16
ATOM     16  C   UNL     1      -1.227   1.895   4.465  0.00  0.00    +0.052 A 
ATOM     17  C   UNL     1      -2.159   1.329   5.324  0.00  0.00    +0.030 A 
ATOM     18  C   UNL     1      -3.238   2.072   5.759  0.00  0.00    +0.048 A 
ATOM     19  C   UNL     1      -3.397   3.381   5.328  0.00  0.00    +0.130 A 
ATOM     20  C   UNL     1      -2.470   3.946   4.465  0.00  0.00    +0.048 A 
ATOM     21  C   UNL     1      -1.387   3.206   4.035  0.00  0.00    +0.030 A 
BRANCH  19  22
ATOM     22  O   UNL     1      -4.464   4.111   5.752  0.00  0.00    -0.406 OA
BRANCH  22  23
ATOM     23  C   UNL     1      -5.380   3.466   6.639  0.00  0.00    +0.575 C 
ATOM     24  F   UNL     1      -4.706   3.075   7.801  0.00  0.00    -0.133 F 
ATOM     25  F   UNL     1      -6.409   4.353   6.973  0.00  0.00    -0.133 F 
ATOM     26  F   UNL     1      -5.921   2.338   6.012  0.00  0.00    -0.133 F 
ENDBRANCH  22  23
ENDBRANCH  19  22
ENDBRANCH  15  16
BRANCH   1  27
ATOM     27  S   UNL     1      -1.350   1.184   1.614  0.00  0.00    -0.089 S 
BRANCH  27  28
ATOM     28  C   UNL     1      -0.738   0.416   0.094  0.00  0.00    +0.059 C 
BRANCH  28  29
ATOM     29  C   UNL     1      -1.728   0.674  -1.043  0.00  0.00    -0.068 C 
BRANCH  29  30
ATOM     30  N   UNL     1      -1.147   0.165  -2.303  0.00  0.00    +0.380 N 
ATOM     31  H   UNL     1      -0.153   0.418  -2.337  0.00  0.00    -0.082 HD
BRANCH  30  33
ATOM     32  C   UNL     1      -0.468  -1.825  -3.553  0.00  0.00    -0.017 C 
ATOM     33  C   UNL     1      -1.270  -1.307  -2.357  0.00  0.00    -0.082 C 
ENDBRANCH  30  33
BRANCH  30  34
ATOM     34  C   UNL     1      -1.838   0.772  -3.460  0.00  0.00    -0.082 C 
ATOM     35  C   UNL     1      -1.322   2.201  -3.644  0.00  0.00    -0.017 C 
ENDBRANCH  30  34
ENDBRANCH  29  30
ENDBRANCH  28  29
ENDBRANCH  27  28
ENDBRANCH   1  27
TORSDOF 9
