REMARK  Name = ZINC49623813
REMARK  7 active torsions:
REMARK  status: ('A' for Active; 'I' for Inactive)
REMARK    1  A    between atoms: C_3  and  C_12
REMARK    2  A    between atoms: C_6  and  C_7
REMARK    3  A    between atoms: C_8  and  C_9
REMARK    4  A    between atoms: C_9  and  O_10
REMARK    5  A    between atoms: C_12  and  S_13
REMARK    6  A    between atoms: S_13  and  C_14
REMARK    7  A    between atoms: C_20  and  N_22
REMARK                            x       y       z     vdW  Elec       q    Type
REMARK                         _______ _______ _______ _____ _____    ______ ____
ROOT
ATOM      1  C   UNL     1       3.670   2.198  -0.022  0.00  0.00    +0.115 C 
ENDROOT
BRANCH   1   4
ATOM      2  C   UNL     1      -0.017   1.391   0.010  0.00  0.00    +0.017 A 
ATOM      3  C   UNL     1       1.170   2.095   0.002  0.00  0.00    +0.008 A 
ATOM      4  C   UNL     1       2.378   1.422  -0.013  0.00  0.00    -0.002 A 
ATOM      5  C   UNL     1       2.405   0.036  -0.022  0.00  0.00    +0.129 A 
ATOM      6  C   UNL     1       1.223  -0.680  -0.014  0.00  0.00    +0.055 A 
ATOM      7  C   UNL     1       0.002  -0.004   0.002  0.00  0.00    +0.028 A 
ATOM      8  F   UNL     1       3.588  -0.615  -0.037  0.00  0.00    -0.205 F 
BRANCH   7   9
ATOM      9  C   UNL     1      -1.226  -0.740   0.010  0.00  0.00    -0.064 C 
ATOM     10  C   UNL     1      -2.234  -1.343   0.017  0.00  0.00    -0.069 C 
BRANCH  10  11
ATOM     11  C   UNL     1      -3.497  -2.099   0.025  0.00  0.00    +0.244 C 
BRANCH  11  12
ATOM     12  O   UNL     1      -3.213  -3.499   0.015  0.00  0.00    -0.383 OA
ATOM     13  H   UNL     1      -4.001  -4.060   0.020  0.00  0.00    +0.211 HD
ENDBRANCH  11  12
ENDBRANCH  10  11
ENDBRANCH   7   9
ENDBRANCH   1   4
BRANCH   1  14
ATOM     14  S   UNL     1       4.205   2.500   1.685  0.00  0.00    -0.083 S 
BRANCH  14  15
ATOM     15  C   UNL     1       5.707   3.404   1.506  0.00  0.00    +0.171 A 
ATOM     16  N   UNL     1       6.387   3.793   2.620  0.00  0.00    -0.302 N 
ATOM     17  H   UNL     1       6.043   3.572   3.500  0.00  0.00    +0.171 HD
ATOM     18  C   UNL     1       7.539   4.486   2.503  0.00  0.00    +0.254 A 
ATOM     19  O   UNL     1       8.156   4.839   3.496  0.00  0.00    -0.268 OA
ATOM     20  C   UNL     1       8.015   4.793   1.224  0.00  0.00    +0.113 A 
ATOM     21  C   UNL     1       7.285   4.373   0.121  0.00  0.00    +0.124 A 
ATOM     22  N   UNL     1       6.152   3.684   0.299  0.00  0.00    -0.209 NA
BRANCH  21  23
ATOM     23  N   UNL     1       7.728   4.661  -1.154  0.00  0.00    -0.343 N 
ATOM     24  H   UNL     1       8.552   5.157  -1.280  0.00  0.00    +0.144 HD
ATOM     25  H   UNL     1       7.216   4.367  -1.923  0.00  0.00    +0.144 HD
ENDBRANCH  21  23
ENDBRANCH  14  15
ENDBRANCH   1  14
TORSDOF 7
