REMARK  Name = ZINC40824474
REMARK  6 active torsions:
REMARK  status: ('A' for Active; 'I' for Inactive)
REMARK    1  A    between atoms: C_1  and  C_2
REMARK    2  A    between atoms: C_6  and  C_7
REMARK    3  A    between atoms: C_18  and  C_20
REMARK    4  A    between atoms: N_26  and  N_27
REMARK    5  A    between atoms: N_27  and  C_28
REMARK    6  A    between atoms: C_28  and  N_30
REMARK                            x       y       z     vdW  Elec       q    Type
REMARK                         _______ _______ _______ _____ _____    ______ ____
ROOT
ATOM      1  C   UNL     1       0.549   0.193  -0.291  0.00  0.00    +0.048 C 
ATOM      2  C   UNL     1      -0.579  -0.766  -0.011  0.00  0.00    +0.009 A 
ATOM      3  C   UNL     1      -1.310  -1.501  -0.952  0.00  0.00    +0.042 A 
ATOM      4  C   UNL     1      -2.240  -2.243  -0.263  0.00  0.00    +0.115 A 
ATOM      5  O   UNL     1      -2.093  -1.987   1.035  0.00  0.00    -0.454 OA
ATOM      6  C   UNL     1      -1.089  -1.098   1.214  0.00  0.00    +0.193 A 
ATOM      7  C   UNL     1      -3.223  -3.163  -0.943  0.00  0.00    +0.075 C 
ATOM      8  C   UNL     1      -3.369  -2.755  -2.412  0.00  0.00    +0.014 C 
ATOM      9  C   UNL     1      -1.996  -2.675  -3.089  0.00  0.00    +0.058 C 
ATOM     10  C   UNL     1      -1.202  -1.559  -2.427  0.00  0.00    +0.070 C 
ATOM     11  N   UNL     1      -0.483  -0.719  -3.105  0.00  0.00    -0.185 NA
ENDROOT
BRANCH   6  12
ATOM     12  C   UNL     1      -0.628  -0.575   2.504  0.00  0.00    +0.287 C 
ATOM     13  O   UNL     1      -0.434   0.619   2.643  0.00  0.00    -0.266 OA
ATOM     14  N   UNL     1      -0.419  -1.416   3.537  0.00  0.00    -0.262 N 
ATOM     15  C   UNL     1      -0.448  -2.804   3.342  0.00  0.00    +0.040 A 
ATOM     16  C   UNL     1      -0.411  -3.306   2.046  0.00  0.00    +0.026 A 
ATOM     17  C   UNL     1      -0.443  -4.669   1.832  0.00  0.00    +0.040 A 
ATOM     18  C   UNL     1      -0.512  -5.536   2.910  0.00  0.00    +0.124 A 
ATOM     19  C   UNL     1      -0.546  -5.037   4.200  0.00  0.00    +0.043 A 
ATOM     20  C   UNL     1      -0.512  -3.671   4.421  0.00  0.00    -0.023 A 
ATOM     21  C   UNL     1      -0.542  -3.162   5.838  0.00  0.00    +0.039 C 
ATOM     22  C   UNL     1      -1.002  -1.705   5.875  0.00  0.00    +0.027 C 
ATOM     23  C   UNL     1      -0.151  -0.893   4.883  0.00  0.00    +0.079 C 
ATOM     24  C   UNL     1      -0.542   0.585   4.953  0.00  0.00    +0.028 C 
ATOM     25  F   UNL     1      -0.545  -6.870   2.702  0.00  0.00    -0.205 F 
ENDBRANCH   6  12
BRANCH  11  26
ATOM     26  N   UNL     1      -0.417  -0.821  -4.501  0.00  0.00    -0.218 N 
ATOM     27  H   UNL     1      -0.910  -1.520  -4.960  0.00  0.00    +0.176 HD
BRANCH  26  28
ATOM     28  C   UNL     1       0.330   0.051  -5.206  0.00  0.00    +0.147 C 
ATOM     29  S   UNL     1       0.411  -0.074  -6.912  0.00  0.00    -0.017 S 
BRANCH  28  30
ATOM     30  N   UNL     1       1.015   1.021  -4.568  0.00  0.00    -0.339 N 
ATOM     31  H   UNL     1       0.969   1.092  -3.602  0.00  0.00    +0.144 HD
ATOM     32  H   UNL     1       1.553   1.649  -5.075  0.00  0.00    +0.144 HD
ENDBRANCH  28  30
ENDBRANCH  26  28
ENDBRANCH  11  26
TORSDOF 4
