REMARK  Name = ZINC15017021
REMARK  7 active torsions:
REMARK  status: ('A' for Active; 'I' for Inactive)
REMARK    1  A    between atoms: C_1  and  S_2
REMARK    2  A    between atoms: S_2  and  C_3
REMARK    3  A    between atoms: C_6  and  C_9
REMARK    4  A    between atoms: C_11  and  C_29
REMARK    5  A    between atoms: C_13  and  C_22
REMARK    6  A    between atoms: C_13  and  O_28
REMARK    7  A    between atoms: C_17  and  C_19
REMARK                            x       y       z     vdW  Elec       q    Type
REMARK                         _______ _______ _______ _____ _____    ______ ____
ROOT
ATOM      1  C   UNL     1      -2.097  -0.214  -1.318  0.00  0.00    +0.061 C 
ATOM      2  C   UNL     1      -1.434  -0.529   0.023  0.00  0.00    +0.155 C 
ATOM      3  C   UNL     1       0.002  -0.004   0.002  0.00  0.00    +0.175 C 
ATOM      4  N   UNL     1       0.694  -0.470  -1.193  0.00  0.00    -0.282 N 
ATOM      5  C   UNL     1       0.077  -0.923  -2.286  0.00  0.00    +0.228 C 
ATOM      6  O   UNL     1       0.757  -1.246  -3.236  0.00  0.00    -0.275 OA
ATOM      7  C   UNL     1      -1.415  -1.054  -2.401  0.00  0.00    +0.169 C 
ATOM      8  H   UNL     1       1.663  -0.449  -1.195  0.00  0.00    +0.152 HD
ENDROOT
BRANCH   1  12
ATOM      9  C   UNL     1      -6.253  -1.194  -1.142  0.00  0.00    +0.008 A 
ATOM     10  C   UNL     1      -5.856   0.106  -1.430  0.00  0.00    +0.015 A 
ATOM     11  C   UNL     1      -4.512   0.419  -1.486  0.00  0.00    +0.005 A 
ATOM     12  C   UNL     1      -3.562  -0.560  -1.256  0.00  0.00    -0.042 A 
ATOM     13  C   UNL     1      -3.954  -1.856  -0.974  0.00  0.00    +0.005 A 
ATOM     14  C   UNL     1      -5.296  -2.175  -0.912  0.00  0.00    +0.015 A 
BRANCH   9  16
ATOM     15  C   UNL     1      -7.984  -3.368  -0.672  0.00  0.00    +0.090 C 
ATOM     16  S   UNL     1      -7.967  -1.598  -1.069  0.00  0.00    -0.129 S 
ENDBRANCH   9  16
ENDBRANCH   1  12
BRANCH   3  17
ATOM     17  C   UNL     1       0.732  -0.499   1.224  0.00  0.00    +0.003 A 
ATOM     18  C   UNL     1       0.632   0.193   2.417  0.00  0.00    +0.008 A 
ATOM     19  C   UNL     1       1.297  -0.264   3.539  0.00  0.00    +0.000 A 
ATOM     20  C   UNL     1       2.070  -1.407   3.466  0.00  0.00    +0.000 A 
ATOM     21  C   UNL     1       2.175  -2.096   2.273  0.00  0.00    +0.000 A 
ATOM     22  C   UNL     1       1.505  -1.642   1.152  0.00  0.00    +0.008 A 
ENDBRANCH   3  17
BRANCH   7  23
ATOM     23  C   UNL     1      -1.856  -0.572  -3.759  0.00  0.00    +0.223 C 
ATOM     24  O   UNL     1      -2.632   0.355  -3.851  0.00  0.00    -0.275 OA
ATOM     25  N   UNL     1      -1.388  -1.173  -4.872  0.00  0.00    -0.329 N 
ATOM     26  H   UNL     1      -0.768  -1.915  -4.798  0.00  0.00    +0.145 HD
ATOM     27  H   UNL     1      -1.672  -0.863  -5.746  0.00  0.00    +0.145 HD
ENDBRANCH   7  23
BRANCH   3  28
ATOM     28  O   UNL     1      -0.017   1.425   0.010  0.00  0.00    -0.366 OA
ATOM     29  H   UNL     1       0.861   1.830   0.004  0.00  0.00    +0.212 HD
ENDBRANCH   3  28
BRANCH   2  30
ATOM     30  C   UNL     1      -2.185   0.129   1.105  0.00  0.00    +0.071 C 
ATOM     31  N   UNL     1      -2.764   0.637   1.940  0.00  0.00    -0.196 NA
ENDBRANCH   2  30
TORSDOF 6
