REMARK  Name = ZINC11784341
REMARK  6 active torsions:
REMARK  status: ('A' for Active; 'I' for Inactive)
REMARK    1  A    between atoms: C_1  and  N_2
REMARK    2  A    between atoms: C_6  and  S_7
REMARK    3  A    between atoms: S_7  and  C_8
REMARK    4  A    between atoms: C_11  and  C_13
REMARK    5  A    between atoms: C_13  and  N_52
REMARK    6  A    between atoms: C_22  and  C_25
REMARK                            x       y       z     vdW  Elec       q    Type
REMARK                         _______ _______ _______ _____ _____    ______ ____
ROOT
ATOM      1  C   UNL     1      -2.047   0.012   2.088  0.00  0.00    -0.039 C 
ATOM      2  C   UNL     1      -3.057  -0.383   3.148  0.00  0.00    -0.022 A 
ATOM      3  C   UNL     1      -4.382  -0.026   3.010  0.00  0.00    +0.005 A 
ATOM      4  C   UNL     1      -5.292  -0.376   3.993  0.00  0.00    +0.000 A 
ATOM      5  C   UNL     1      -4.871  -1.077   5.109  0.00  0.00    +0.004 A 
ATOM      6  C   UNL     1      -3.545  -1.441   5.243  0.00  0.00    +0.046 A 
ATOM      7  C   UNL     1      -2.635  -1.099   4.252  0.00  0.00    +0.123 A 
ATOM      8  O   UNL     1      -1.337  -1.495   4.350  0.00  0.00    -0.486 OA
ATOM      9  C   UNL     1      -0.930  -2.500   3.413  0.00  0.00    +0.187 C 
ATOM     10  C   UNL     1      -0.504  -1.872   2.104  0.00  0.00    -0.028 C 
ATOM     11  N   UNL     1      -1.621  -1.222   1.385  0.00  0.00    +0.390 N 
ATOM     12  H   UNL     1      -2.414  -1.872   1.351  0.00  0.00    -0.081 HD
ENDROOT
BRANCH   9  13
ATOM     13  C   UNL     1       0.225  -3.278   3.989  0.00  0.00    -0.009 A 
ATOM     14  C   UNL     1       1.165  -2.638   4.775  0.00  0.00    +0.007 A 
ATOM     15  C   UNL     1       2.222  -3.353   5.308  0.00  0.00    +0.000 A 
ATOM     16  C   UNL     1       2.344  -4.705   5.046  0.00  0.00    +0.000 A 
ATOM     17  C   UNL     1       1.406  -5.343   4.257  0.00  0.00    +0.000 A 
ATOM     18  C   UNL     1       0.346  -4.630   3.728  0.00  0.00    +0.007 A 
ENDBRANCH   9  13
BRANCH  11  19
ATOM     19  C   UNL     1      -1.209  -0.900   0.009  0.00  0.00    -0.002 C 
BRANCH  19  23
ATOM     20  C   UNL     1       1.245   1.807  -0.000  0.00  0.00    +0.169 A 
ATOM     21  C   UNL     1       2.088   0.747  -0.014  0.00  0.00    +0.057 A 
ATOM     22  C   UNL     1       1.282  -0.415  -0.012  0.00  0.00    +0.044 A 
ATOM     23  C   UNL     1       0.002  -0.004   0.002  0.00  0.00    +0.090 A 
ATOM     24  O   UNL     1      -0.016   1.342   0.009  0.00  0.00    -0.455 OA
BRANCH  20  25
ATOM     25  S   UNL     1       1.720   3.503   0.004  0.00  0.00    -0.012 S 
BRANCH  25  31
ATOM     26  C   UNL     1       0.856   6.696   0.030  0.00  0.00    +0.152 C 
ATOM     27  N   UNL     1      -0.125   5.607   0.033  0.00  0.00    -0.311 N 
ATOM     28  C   UNL     1      -1.487   5.723   0.046  0.00  0.00    +0.225 A 
ATOM     29  N   UNL     1      -1.980   4.517   0.044  0.00  0.00    -0.137 NA
ATOM     30  N   UNL     1      -1.029   3.652   0.026  0.00  0.00    -0.122 NA
ATOM     31  C   UNL     1       0.132   4.266   0.024  0.00  0.00    +0.199 A 
ENDBRANCH  25  31
ENDBRANCH  20  25
ENDBRANCH  19  23
ENDBRANCH  11  19
TORSDOF 5
