REMARK  Name = ZINC22203716
REMARK  10 active torsions:
REMARK  status: ('A' for Active; 'I' for Inactive)
REMARK    1  A    between atoms: C_1  and  C_2
REMARK    2  A    between atoms: C_2  and  C_37
REMARK    3  A    between atoms: C_3  and  N_26
REMARK    4  A    between atoms: N_5  and  C_20
REMARK    5  A    between atoms: N_8  and  C_9
REMARK    6  A    between atoms: C_9  and  C_10
REMARK    7  A    between atoms: N_12  and  N_13
REMARK    8  A    between atoms: C_14  and  C_15
REMARK    9  A    between atoms: N_26  and  O_36
REMARK   10  A    between atoms: N_29  and  C_30
REMARK                            x       y       z     vdW  Elec       q    Type
REMARK                         _______ _______ _______ _____ _____    ______ ____
ROOT
ATOM      1  C   UNL     1      -1.281   5.900   1.693  0.00  0.00    +0.035 C 
ATOM      2  C   UNL     1      -2.724   6.148   1.248  0.00  0.00    +0.071 C 
ATOM      3  C   UNL     1      -3.171   5.071   0.241  0.00  0.00    +0.220 C 
ATOM      4  N   UNL     1      -4.303   4.409   0.908  0.00  0.00    -0.260 N 
ATOM      5  C   UNL     1      -4.504   4.978   2.103  0.00  0.00    +0.308 C 
ATOM      6  O   UNL     1      -5.380   4.623   2.868  0.00  0.00    -0.252 OA
ATOM      7  N   UNL     1      -3.652   5.974   2.380  0.00  0.00    -0.268 N 
ATOM      8  C   UNL     1      -2.868   7.544   0.641  0.00  0.00    +0.035 C 
ENDROOT
BRANCH   4   9
ATOM      9  C   UNL     1      -5.085   3.301   0.353  0.00  0.00    +0.080 C 
ATOM     10  C   UNL     1      -6.565   3.688   0.321  0.00  0.00    +0.022 C 
ATOM     11  C   UNL     1      -7.382   2.532  -0.259  0.00  0.00    +0.002 C 
ATOM     12  C   UNL     1      -7.199   1.290   0.615  0.00  0.00    +0.000 C 
ATOM     13  C   UNL     1      -5.719   0.902   0.647  0.00  0.00    +0.002 C 
ATOM     14  C   UNL     1      -4.902   2.059   1.227  0.00  0.00    +0.022 C 
ENDBRANCH   4   9
BRANCH   3  15
ATOM     15  N   UNL     1      -2.089   4.115  -0.005  0.00  0.00    -0.144 N 
ATOM     16  C   UNL     1      -1.737   3.234   0.952  0.00  0.00    +0.327 C 
ATOM     17  O   UNL     1      -2.253   3.292   2.051  0.00  0.00    -0.250 OA
ATOM     18  N   UNL     1      -0.813   2.288   0.690  0.00  0.00    -0.295 N 
ATOM     19  H   UNL     1      -0.346   2.235  -0.305  0.00  0.00    +0.151 HD
BRANCH  18  20
ATOM     20  C   UNL     1      -0.431   1.330   1.730  0.00  0.00    +0.074 C 
ATOM     21  C   UNL     1       0.664   1.940   2.608  0.00  0.00    +0.022 C 
ATOM     22  C   UNL     1       1.063   0.939   3.694  0.00  0.00    +0.002 C 
ATOM     23  C   UNL     1       1.587  -0.341   3.041  0.00  0.00    +0.000 C 
ATOM     24  C   UNL     1       0.492  -0.951   2.163  0.00  0.00    +0.002 C 
ATOM     25  C   UNL     1       0.093   0.050   1.077  0.00  0.00    +0.022 C 
ENDBRANCH  18  20
BRANCH  15  26
ATOM     26  O   UNL     1      -1.411   4.118  -1.249  0.00  0.00    -0.289 OA
ATOM     27  H   UNL     1      -0.599   3.400  -1.434  0.00  0.00    +0.242 HD
ENDBRANCH  15  26
ENDBRANCH   3  15
BRANCH   7  28
ATOM     28  C   UNL     1      -3.645   6.768   3.612  0.00  0.00    +0.207 C 
BRANCH  28  29
ATOM     29  C   UNL     1      -2.748   6.110   4.628  0.00  0.00    +0.250 C 
ATOM     30  O   UNL     1      -2.170   5.080   4.350  0.00  0.00    -0.272 OA
ATOM     31  N   UNL     1      -2.586   6.666   5.845  0.00  0.00    -0.206 N 
ATOM     32  H   UNL     1      -3.110   7.601   6.096  0.00  0.00    +0.177 HD
BRANCH  31  33
ATOM     33  N   UNL     1      -1.752   6.055   6.789  0.00  0.00    -0.185 NA
ATOM     34  C   UNL     1      -1.670   6.538   7.994  0.00  0.00    +0.176 C 
BRANCH  34  35
ATOM     35  C   UNL     1      -2.574   7.612   8.416  0.00  0.00    +0.147 A 
ATOM     36  C   UNL     1      -2.515   8.291   9.599  0.00  0.00    +0.051 A 
ATOM     37  C   UNL     1      -3.565   9.228   9.580  0.00  0.00    +0.042 A 
ATOM     38  C   UNL     1      -4.212   9.074   8.407  0.00  0.00    +0.196 A 
ATOM     39  O   UNL     1      -3.611   8.099   7.707  0.00  0.00    -0.462 OA
ENDBRANCH  34  35
ENDBRANCH  31  33
ENDBRANCH  28  29
ENDBRANCH   7  28
TORSDOF 8
