REMARK  Name = ZINC63994350
REMARK  7 active torsions:
REMARK  status: ('A' for Active; 'I' for Inactive)
REMARK    1  A    between atoms: C_1  and  C_2
REMARK    2  A    between atoms: C_2  and  C_3
REMARK    3  A    between atoms: C_2  and  C_4
REMARK    4  A    between atoms: C_4  and  N_5
REMARK    5  A    between atoms: N_11  and  C_14
REMARK    6  A    between atoms: C_14  and  C_15
REMARK    7  A    between atoms: N_24  and  C_27
REMARK                            x       y       z     vdW  Elec       q    Type
REMARK                         _______ _______ _______ _____ _____    ______ ____
ROOT
ATOM      1  N   UNL     1      -0.741  -2.043   0.094  0.00  0.00    -0.224 N 
ATOM      2  C   UNL     1      -0.744  -2.679  -1.096  0.00  0.00    +0.247 C 
ATOM      3  O   UNL     1      -0.701  -2.174  -2.198  0.00  0.00    -0.273 OA
ATOM      4  C   UNL     1      -0.811  -4.151  -0.766  0.00  0.00    +0.112 C 
ATOM      5  C   UNL     1       0.424  -4.874  -1.295  0.00  0.00    +0.017 C 
ATOM      6  C   UNL     1       0.305  -6.370  -0.986  0.00  0.00    -0.076 C 
ATOM      7  N   UNL     1      -0.908  -6.906  -1.615  0.00  0.00    +0.382 N 
ATOM      8  C   UNL     1      -2.096  -6.271  -1.033  0.00  0.00    -0.076 C 
ATOM      9  C   UNL     1      -2.079  -4.771  -1.344  0.00  0.00    +0.017 C 
ATOM     10  N   UNL     1      -0.841  -4.188   0.701  0.00  0.00    -0.274 N 
ATOM     11  C   UNL     1      -0.791  -2.908   1.115  0.00  0.00    +0.312 C 
ATOM     12  O   UNL     1      -0.795  -2.574   2.284  0.00  0.00    -0.252 OA
ATOM     13  C   UNL     1      -0.908  -5.382   1.548  0.00  0.00    +0.134 C 
ATOM     14  H   UNL     1      -0.881  -6.722  -2.607  0.00  0.00    -0.081 HD
ENDROOT
BRANCH   1  15
ATOM     15  C   UNL     1      -0.683  -0.587   0.250  0.00  0.00    +0.121 C 
BRANCH  15  17
ATOM     16  C   UNL     1       0.842   1.388   0.364  0.00  0.00    +0.009 C 
ATOM     17  C   UNL     1       0.778  -0.140   0.326  0.00  0.00    +0.001 C 
ATOM     18  C   UNL     1       1.420  -0.708   1.593  0.00  0.00    +0.009 C 
ENDBRANCH  15  17
ENDBRANCH   1  15
BRANCH   7  19
ATOM     19  C   UNL     1      -0.972  -8.357  -1.392  0.00  0.00    -0.045 C 
BRANCH  19  20
ATOM     20  C   UNL     1       0.167  -9.027  -2.115  0.00  0.00    -0.058 C 
ATOM     21  C   UNL     1       1.365  -9.380  -1.595  0.00  0.00    -0.003 A 
ATOM     22  C   UNL     1       1.944  -9.249  -0.252  0.00  0.00    +0.010 A 
ATOM     23  C   UNL     1       3.197  -9.707  -0.031  0.00  0.00    +0.001 A 
ATOM     24  C   UNL     1       3.956 -10.300  -1.049  0.00  0.00    +0.002 A 
ATOM     25  C   UNL     1       3.493 -10.456  -2.307  0.00  0.00    +0.026 A 
ATOM     26  C   UNL     1       2.187 -10.011  -2.652  0.00  0.00    +0.043 A 
ATOM     27  N   UNL     1       1.523 -10.047  -3.782  0.00  0.00    -0.380 N 
ATOM     28  C   UNL     1       0.201  -9.447  -3.567  0.00  0.00    +0.142 C 
ATOM     29  H   UNL     1       1.849 -10.412  -4.619  0.00  0.00    +0.160 HD
ENDBRANCH  19  20
ENDBRANCH   7  19
TORSDOF 4
