REMARK  Name = ZINC12160837
REMARK  8 active torsions:
REMARK  status: ('A' for Active; 'I' for Inactive)
REMARK    1  A    between atoms: C_2  and  C_3
REMARK    2  A    between atoms: C_3  and  O_4
REMARK    3  A    between atoms: O_4  and  C_5
REMARK    4  A    between atoms: C_10  and  C_11
REMARK    5  A    between atoms: C_11  and  N_60
REMARK    6  A    between atoms: C_14  and  C_17
REMARK    7  A    between atoms: C_17  and  C_24
REMARK    8  A    between atoms: C_24  and  C_25
REMARK                            x       y       z     vdW  Elec       q    Type
REMARK                         _______ _______ _______ _____ _____    ______ ____
ROOT
ATOM      1  C   UNL     1       0.562   0.253  -2.339  0.00  0.00    -0.078 C 
ATOM      2  C   UNL     1       0.174  -0.177  -3.756  0.00  0.00    -0.013 C 
ATOM      3  C   UNL     1       0.410  -1.683  -3.909  0.00  0.00    +0.018 C 
ATOM      4  C   UNL     1      -0.405  -2.430  -2.849  0.00  0.00    -0.013 C 
ATOM      5  C   UNL     1       0.000  -1.934  -1.459  0.00  0.00    -0.078 C 
ATOM      6  N   UNL     1      -0.274  -0.484  -1.368  0.00  0.00    +0.382 N 
ATOM      7  H   UNL     1      -1.263  -0.318  -1.586  0.00  0.00    -0.081 HD
ENDROOT
BRANCH   3   8
ATOM      8  C   UNL     1      -0.034  -2.130  -5.304  0.00  0.00    +0.119 C 
ATOM      9  C   UNL     1      -1.543  -2.065  -5.430  0.00  0.00    +0.245 C 
ATOM     10  O   UNL     1      -2.244  -1.081  -5.330  0.00  0.00    -0.273 OA
ATOM     11  N   UNL     1      -1.943  -3.329  -5.674  0.00  0.00    -0.238 N 
ATOM     12  C   UNL     1      -0.907  -4.174  -5.720  0.00  0.00    +0.307 C 
ATOM     13  O   UNL     1      -1.016  -5.366  -5.927  0.00  0.00    -0.252 OA
ATOM     14  N   UNL     1       0.270  -3.556  -5.511  0.00  0.00    -0.284 N 
ATOM     15  H   UNL     1      -2.868  -3.592  -5.801  0.00  0.00    +0.159 HD
ATOM     16  H   UNL     1       1.147  -3.970  -5.500  0.00  0.00    +0.151 HD
BRANCH   8  17
ATOM     17  C   UNL     1       0.637  -1.274  -6.380  0.00  0.00    +0.073 C 
BRANCH  17  18
ATOM     18  C   UNL     1       0.184  -1.734  -7.742  0.00  0.00    -0.010 A 
ATOM     19  C   UNL     1       0.949  -2.636  -8.457  0.00  0.00    +0.006 A 
ATOM     20  C   UNL     1       0.531  -3.063  -9.703  0.00  0.00    +0.000 A 
ATOM     21  C   UNL     1      -0.647  -2.579 -10.242  0.00  0.00    +0.003 A 
ATOM     22  C   UNL     1      -1.411  -1.673  -9.531  0.00  0.00    +0.038 A 
ATOM     23  C   UNL     1      -0.996  -1.250  -8.280  0.00  0.00    +0.127 A 
ATOM     24  F   UNL     1      -1.742  -0.363  -7.584  0.00  0.00    -0.205 F 
ENDBRANCH  17  18
ENDBRANCH   8  17
ENDBRANCH   3   8
BRANCH   6  25
ATOM     25  C   UNL     1       0.002  -0.004   0.002  0.00  0.00    -0.039 C 
BRANCH  25  31
ATOM     26  C   UNL     1      -1.229   2.180   0.020  0.00  0.00    +0.122 A 
ATOM     27  C   UNL     1      -1.244   3.568   0.032  0.00  0.00    +0.046 A 
ATOM     28  C   UNL     1      -0.055   4.271   0.025  0.00  0.00    +0.004 A 
ATOM     29  C   UNL     1       1.150   3.593   0.010  0.00  0.00    +0.000 A 
ATOM     30  C   UNL     1       1.168   2.210   0.003  0.00  0.00    +0.005 A 
ATOM     31  C   UNL     1      -0.018   1.503   0.010  0.00  0.00    -0.022 A 
BRANCH  26  32
ATOM     32  O   UNL     1      -2.397   1.487   0.021  0.00  0.00    -0.488 OA
BRANCH  32  33
ATOM     33  C   UNL     1      -3.605   2.251   0.031  0.00  0.00    +0.256 C 
BRANCH  33  35
ATOM     34  C   UNL     1      -5.796   1.539   0.840  0.00  0.00    +0.007 C 
ATOM     35  C   UNL     1      -4.789   1.318   0.032  0.00  0.00    +0.006 C 
ENDBRANCH  33  35
ENDBRANCH  32  33
ENDBRANCH  26  32
ENDBRANCH  25  31
ENDBRANCH   6  25
TORSDOF 8
