REMARK  Name = ZINC35314496
REMARK  4 active torsions:
REMARK  status: ('A' for Active; 'I' for Inactive)
REMARK    1  A    between atoms: C_3  and  C_6
REMARK    2  A    between atoms: C_9  and  C_27
REMARK    3  A    between atoms: C_14  and  C_16
REMARK    4  A    between atoms: N_18  and  C_19
REMARK                            x       y       z     vdW  Elec       q    Type
REMARK                         _______ _______ _______ _____ _____    ______ ____
ROOT
ATOM      1  C   UNL     1       3.571   0.624  -0.022  0.00  0.00    +0.140 C 
ATOM      2  C   UNL     1       4.058   0.363  -1.452  0.00  0.00    +0.066 C 
ATOM      3  C   UNL     1       3.455  -0.944  -1.979  0.00  0.00    +0.215 C 
ATOM      4  N   UNL     1       3.671  -2.001  -0.986  0.00  0.00    -0.238 N 
ATOM      5  C   UNL     1       3.955  -1.759   0.329  0.00  0.00    +0.119 A 
ATOM      6  C   UNL     1       4.095  -2.945   0.953  0.00  0.00    +0.078 A 
ATOM      7  C   UNL     1       3.888  -3.960  -0.008  0.00  0.00    +0.149 A 
ATOM      8  N   UNL     1       3.633  -3.382  -1.169  0.00  0.00    -0.164 NA
ATOM      9  N   UNL     1       4.060  -0.462   0.850  0.00  0.00    -0.319 N 
ATOM     10  H   UNL     1       4.434  -0.286   1.728  0.00  0.00    +0.148 HD
ENDROOT
BRANCH   1  13
ATOM     11  C   UNL     1      -0.047   1.323   0.038  0.00  0.00    +0.041 A 
ATOM     12  C   UNL     1       1.298   1.757   0.020  0.00  0.00    +0.046 A 
ATOM     13  C   UNL     1       2.064   0.651   0.002  0.00  0.00    +0.125 A 
ATOM     14  O   UNL     1       1.259  -0.423   0.007  0.00  0.00    -0.466 OA
ATOM     15  C   UNL     1      -0.023  -0.022   0.029  0.00  0.00    +0.195 A 
ENDBRANCH   1  13
BRANCH   7  16
ATOM     16  C   UNL     1       3.946  -5.415   0.242  0.00  0.00    +0.268 C 
ATOM     17  O   UNL     1       4.191  -5.830   1.358  0.00  0.00    -0.268 OA
ATOM     18  N   UNL     1       3.728  -6.281  -0.767  0.00  0.00    -0.280 N 
ATOM     19  H   UNL     1       3.467  -5.952  -1.641  0.00  0.00    +0.155 HD
BRANCH  18  20
ATOM     20  C   UNL     1       3.879  -7.656  -0.554  0.00  0.00    +0.034 A 
ATOM     21  C   UNL     1       4.380  -8.466  -1.565  0.00  0.00    +0.026 A 
ATOM     22  C   UNL     1       4.527  -9.822  -1.352  0.00  0.00    +0.040 A 
ATOM     23  C   UNL     1       4.177 -10.375  -0.132  0.00  0.00    +0.124 A 
ATOM     24  C   UNL     1       3.677  -9.569   0.878  0.00  0.00    +0.040 A 
ATOM     25  C   UNL     1       3.533  -8.211   0.671  0.00  0.00    +0.026 A 
ATOM     26  F   UNL     1       4.322 -11.702   0.075  0.00  0.00    -0.205 F 
ENDBRANCH  18  20
ENDBRANCH   7  16
BRANCH   3  27
ATOM     27  C   UNL     1       4.134  -1.328  -3.295  0.00  0.00    +0.412 C 
ATOM     28  F   UNL     1       5.505  -1.503  -3.078  0.00  0.00    -0.168 F 
ATOM     29  F   UNL     1       3.582  -2.521  -3.774  0.00  0.00    -0.168 F 
ATOM     30  F   UNL     1       3.936  -0.312  -4.236  0.00  0.00    -0.168 F 
ENDBRANCH   3  27
TORSDOF 4
