REMARK  Name = ZINC44916682
REMARK  5 active torsions:
REMARK  status: ('A' for Active; 'I' for Inactive)
REMARK    1  A    between atoms: C_1  and  C_2
REMARK    2  A    between atoms: C_4  and  C_7
REMARK    3  A    between atoms: C_7  and  N_8
REMARK    4  A    between atoms: N_8  and  C_9
REMARK    5  A    between atoms: C_10  and  C_12
REMARK                            x       y       z     vdW  Elec       q    Type
REMARK                         _______ _______ _______ _____ _____    ______ ____
ROOT
ATOM      1  N   UNL     1      -1.691  -3.832  -1.387  0.00  0.00    -0.298 N 
ATOM      2  C   UNL     1      -0.756  -4.794  -1.975  0.00  0.00    +0.132 C 
ATOM      3  C   UNL     1      -2.728  -3.369  -2.114  0.00  0.00    +0.222 C 
ATOM      4  O   UNL     1      -3.502  -2.573  -1.627  0.00  0.00    -0.275 OA
ENDROOT
BRANCH   3   5
ATOM      5  C   UNL     1      -2.925  -3.843  -3.531  0.00  0.00    +0.117 C 
ATOM      6  C   UNL     1      -4.172  -3.183  -4.127  0.00  0.00    +0.055 C 
ATOM      7  C   UNL     1      -4.539  -3.867  -5.419  0.00  0.00    -0.004 A 
ATOM      8  C   UNL     1      -5.384  -3.214  -6.301  0.00  0.00    +0.027 A 
ATOM      9  C   UNL     1      -5.745  -3.813  -7.493  0.00  0.00    +0.041 A 
ATOM     10  C   UNL     1      -5.262  -5.071  -7.809  0.00  0.00    +0.023 A 
ATOM     11  C   UNL     1      -4.419  -5.724  -6.934  0.00  0.00    +0.047 A 
ATOM     12  C   UNL     1      -4.052  -5.123  -5.734  0.00  0.00    +0.124 A 
ATOM     13  O   UNL     1      -3.212  -5.795  -4.904  0.00  0.00    -0.491 OA
ATOM     14  C   UNL     1      -3.130  -5.363  -3.545  0.00  0.00    +0.242 C 
ATOM     15 CL   UNL     1      -6.803  -2.987  -8.594  0.00  0.00    -0.084 Cl
ENDBRANCH   3   5
BRANCH   1  16
ATOM     16  C   UNL     1      -1.500  -3.372  -0.010  0.00  0.00    +0.166 C 
BRANCH  16  20
ATOM     17  C   UNL     1      -0.018   1.503   0.010  0.00  0.00    +0.089 C 
ATOM     18  C   UNL     1       0.002  -0.004   0.002  0.00  0.00    +0.135 A 
ATOM     19  C   UNL     1      -1.077  -0.810   0.003  0.00  0.00    +0.072 A 
ATOM     20  C   UNL     1      -0.627  -2.143  -0.007  0.00  0.00    +0.101 A 
ATOM     21  N   UNL     1       0.676  -2.130  -0.013  0.00  0.00    -0.081 NA
ATOM     22  O   UNL     1       1.098  -0.778  -0.013  0.00  0.00    -0.360 OA
ENDBRANCH  16  20
ENDBRANCH   1  16
TORSDOF 3
