REMARK  Name = ZINC35695905
REMARK  10 active torsions:
REMARK  status: ('A' for Active; 'I' for Inactive)
REMARK    1  A    between atoms: C_1  and  C_2
REMARK    2  A    between atoms: C_3  and  C_26
REMARK    3  A    between atoms: C_4  and  C_21
REMARK    4  A    between atoms: C_7  and  C_12
REMARK    5  A    between atoms: C_13  and  N_15
REMARK    6  A    between atoms: C_26  and  O_28
REMARK    7  A    between atoms: O_28  and  C_29
REMARK    8  A    between atoms: C_29  and  C_30
REMARK    9  A    between atoms: C_30  and  O_31
REMARK   10  A    between atoms: O_31  and  C_32
REMARK                            x       y       z     vdW  Elec       q    Type
REMARK                         _______ _______ _______ _____ _____    ______ ____
ROOT
ATOM      1  C   UNL     1      -0.041   1.576   0.792  0.00  0.00    +0.066 C 
ATOM      2  C   UNL     1      -0.059   0.082   0.600  0.00  0.00    +0.053 C 
ATOM      3  C   UNL     1      -1.264  -0.594   0.584  0.00  0.00    +0.083 C 
ATOM      4  C   UNL     1      -1.230  -2.093   0.387  0.00  0.00    +0.156 C 
ATOM      5  N   UNL     1       0.107  -2.724   0.226  0.00  0.00    -0.267 N 
ATOM      6  C   UNL     1       0.376  -4.065   0.036  0.00  0.00    +0.048 C 
ATOM      7  C   UNL     1       1.670  -4.433  -0.088  0.00  0.00    +0.072 C 
ATOM      8  S   UNL     1       2.514  -2.871   0.064  0.00  0.00    -0.060 S 
ATOM      9  C   UNL     1       1.179  -1.876   0.273  0.00  0.00    +0.166 C 
ATOM     10  N   UNL     1       1.079  -0.574   0.442  0.00  0.00    -0.230 NA
ENDROOT
BRANCH   4  11
ATOM     11  C   UNL     1      -2.046  -2.419  -0.837  0.00  0.00    +0.015 A 
ATOM     12  C   UNL     1      -3.278  -2.980  -0.917  0.00  0.00    +0.013 A 
ATOM     13  C   UNL     1      -3.840  -3.188  -2.162  0.00  0.00    +0.008 A 
ATOM     14  C   UNL     1      -3.143  -2.826  -3.267  0.00  0.00    +0.045 A 
ATOM     15  S   UNL     1      -1.646  -2.161  -2.557  0.00  0.00    -0.099 S 
ENDBRANCH   4  11
BRANCH   6  16
ATOM     16  C   UNL     1      -0.707  -5.056  -0.028  0.00  0.00    +0.091 C 
ATOM     17  C   UNL     1      -0.416  -6.371  -0.056  0.00  0.00    +0.241 C 
ATOM     18  O   UNL     1       0.865  -6.785   0.100  0.00  0.00    -0.271 OA
BRANCH  17  19
ATOM     19  N   UNL     1      -1.425  -7.300  -0.246  0.00  0.00    -0.294 N 
ATOM     20  C   UNL     1      -2.627  -6.964  -1.025  0.00  0.00    +0.136 C 
ATOM     21  C   UNL     1      -2.848  -8.063  -2.071  0.00  0.00    +0.179 C 
ATOM     22  O   UNL     1      -2.847  -9.337  -1.423  0.00  0.00    -0.377 OA
ATOM     23  C   UNL     1      -1.611  -9.669  -0.786  0.00  0.00    +0.179 C 
ATOM     24  C   UNL     1      -1.325  -8.654   0.321  0.00  0.00    +0.136 C 
ENDBRANCH  17  19
ENDBRANCH   6  16
BRANCH   3  25
ATOM     25  C   UNL     1      -2.477   0.087   0.744  0.00  0.00    +0.339 C 
ATOM     26  O   UNL     1      -2.482   1.296   0.901  0.00  0.00    -0.245 OA
BRANCH  25  27
ATOM     27  O   UNL     1      -3.643  -0.596   0.724  0.00  0.00    -0.459 OA
BRANCH  27  28
ATOM     28  C   UNL     1      -4.842   0.163   0.894  0.00  0.00    +0.260 C 
BRANCH  28  29
ATOM     29  C   UNL     1      -6.050  -0.775   0.844  0.00  0.00    +0.200 C 
BRANCH  29  30
ATOM     30  O   UNL     1      -6.007  -1.668   1.959  0.00  0.00    -0.380 OA
ATOM     31  C   UNL     1      -7.096  -2.591   2.007  0.00  0.00    +0.194 C 
ENDBRANCH  29  30
ENDBRANCH  28  29
ENDBRANCH  27  28
ENDBRANCH  25  27
ENDBRANCH   3  25
TORSDOF 8
