REMARK  Name = ZINC66674050
REMARK  7 active torsions:
REMARK  status: ('A' for Active; 'I' for Inactive)
REMARK    1  A    between atoms: C_1  and  C_2
REMARK    2  A    between atoms: C_2  and  C_4
REMARK    3  A    between atoms: C_2  and  N_15
REMARK    4  A    between atoms: C_7  and  S_10
REMARK    5  A    between atoms: S_10  and  N_13
REMARK    6  A    between atoms: N_13  and  C_14
REMARK    7  A    between atoms: C_16  and  C_18
REMARK                            x       y       z     vdW  Elec       q    Type
REMARK                         _______ _______ _______ _____ _____    ______ ____
ROOT
ATOM      1  C   UNL     1       0.191   1.284   0.201  0.00  0.00    +0.033 C 
ATOM      2  C   UNL     1      -0.033  -0.222   0.047  0.00  0.00    +0.100 C 
ENDROOT
BRANCH   2   3
ATOM      3  C   UNL     1       0.538  -0.940   1.243  0.00  0.00    -0.027 A 
ATOM      4  C   UNL     1       1.897  -1.179   1.321  0.00  0.00    +0.007 A 
ATOM      5  C   UNL     1       2.421  -1.838   2.418  0.00  0.00    +0.029 A 
ATOM      6  C   UNL     1       1.585  -2.256   3.437  0.00  0.00    +0.105 A 
ATOM      7  C   UNL     1       0.226  -2.016   3.359  0.00  0.00    +0.029 A 
ATOM      8  C   UNL     1      -0.297  -1.354   2.264  0.00  0.00    +0.007 A 
BRANCH   6   9
ATOM      9  S   UNL     1       2.252  -3.096   4.835  0.00  0.00    +0.058 S 
ATOM     10  O   UNL     1       1.194  -3.865   5.390  0.00  0.00    -0.153 OA
ATOM     11  O   UNL     1       3.477  -3.680   4.411  0.00  0.00    -0.153 OA
BRANCH   9  12
ATOM     12  N   UNL     1       2.641  -1.944   5.959  0.00  0.00    -0.193 NA
ATOM     13  C   UNL     1       1.585  -1.137   6.575  0.00  0.00    +0.127 C 
ATOM     14  H   UNL     1       3.567  -1.804   6.209  0.00  0.00    +0.148 HD
ENDBRANCH   9  12
ENDBRANCH   6   9
ENDBRANCH   2   3
BRANCH   2  15
ATOM     15  N   UNL     1       0.635  -0.693  -1.169  0.00  0.00    -0.308 N 
ATOM     16  C   UNL     1       0.006  -0.608  -2.358  0.00  0.00    +0.221 C 
ATOM     17  O   UNL     1      -1.145  -0.229  -2.411  0.00  0.00    -0.275 OA
ATOM     18  H   UNL     1       1.529  -1.065  -1.119  0.00  0.00    +0.149 HD
BRANCH  16  19
ATOM     19  C   UNL     1       0.733  -0.985  -3.624  0.00  0.00    +0.105 C 
ATOM     20  C   UNL     1      -0.238  -1.683  -4.574  0.00  0.00    +0.018 C 
ATOM     21  C   UNL     1       0.456  -1.862  -5.929  0.00  0.00    +0.006 C 
ATOM     22  C   UNL     1       0.606  -0.488  -6.578  0.00  0.00    +0.035 C 
ATOM     23  C   UNL     1       1.242   0.484  -5.619  0.00  0.00    -0.043 A 
ATOM     24  C   UNL     1       1.296   0.257  -4.262  0.00  0.00    -0.032 A 
ATOM     25  C   UNL     1       1.891   1.198  -3.432  0.00  0.00    +0.004 A 
ATOM     26  C   UNL     1       2.430   2.355  -3.956  0.00  0.00    +0.000 A 
ATOM     27  C   UNL     1       2.378   2.580  -5.319  0.00  0.00    +0.000 A 
ATOM     28  C   UNL     1       1.788   1.648  -6.144  0.00  0.00    +0.004 A 
ENDBRANCH  16  19
ENDBRANCH   2  15
TORSDOF 5
