REMARK  Name = ZINC63350966
REMARK  9 active torsions:
REMARK  status: ('A' for Active; 'I' for Inactive)
REMARK    1  A    between atoms: C_1  and  C_2
REMARK    2  A    between atoms: C_5  and  S_8
REMARK    3  A    between atoms: S_8  and  N_11
REMARK    4  A    between atoms: N_11  and  C_12
REMARK    5  A    between atoms: C_12  and  C_14
REMARK    6  A    between atoms: C_12  and  C_24
REMARK    7  A    between atoms: C_14  and  C_15
REMARK    8  A    between atoms: C_24  and  O_26
REMARK    9  A    between atoms: O_26  and  C_27
REMARK                            x       y       z     vdW  Elec       q    Type
REMARK                         _______ _______ _______ _____ _____    ______ ____
ROOT
ATOM      1  C   UNL     1       2.569  -4.800   1.260  0.00  0.00    +0.189 C 
ENDROOT
BRANCH   1   2
ATOM      2  N   UNL     1       1.473  -4.962   0.301  0.00  0.00    -0.176 NA
ATOM      3  H   UNL     1       1.621  -4.784  -0.640  0.00  0.00    +0.149 HD
BRANCH   2   4
ATOM      4  S   UNL     1      -0.020  -5.450   0.827  0.00  0.00    +0.059 S 
ATOM      5  O   UNL     1       0.191  -6.590   1.649  0.00  0.00    -0.153 OA
ATOM      6  O   UNL     1      -0.863  -5.482  -0.317  0.00  0.00    -0.153 OA
BRANCH   4  11
ATOM      7  C   UNL     1      -2.159  -1.104   4.423  0.00  0.00    +0.044 C 
ATOM      8  C   UNL     1      -1.625  -2.189   3.525  0.00  0.00    -0.050 A 
ATOM      9  C   UNL     1      -1.965  -2.208   2.185  0.00  0.00    +0.005 A 
ATOM     10  C   UNL     1      -1.475  -3.204   1.361  0.00  0.00    +0.029 A 
ATOM     11  C   UNL     1      -0.644  -4.181   1.877  0.00  0.00    +0.105 A 
ATOM     12  C   UNL     1      -0.303  -4.161   3.216  0.00  0.00    +0.029 A 
ATOM     13  C   UNL     1      -0.789  -3.163   4.039  0.00  0.00    +0.005 A 
ENDBRANCH   4  11
ENDBRANCH   2   4
ENDBRANCH   1   2
BRANCH   1  14
ATOM     14  C   UNL     1       3.408  -6.051   1.281  0.00  0.00    +0.331 C 
ATOM     15  O   UNL     1       3.120  -6.984   0.569  0.00  0.00    -0.249 OA
BRANCH  14  16
ATOM     16  O   UNL     1       4.476  -6.130   2.091  0.00  0.00    -0.425 OA
BRANCH  16  17
ATOM     17  C   UNL     1       5.266  -7.231   1.999  0.00  0.00    +0.135 A 
ATOM     18  C   UNL     1       6.150  -7.359   0.930  0.00  0.00    +0.047 A 
ATOM     19  C   UNL     1       6.952  -8.459   0.823  0.00  0.00    +0.015 A 
ATOM     20  C   UNL     1       6.885  -9.464   1.794  0.00  0.00    +0.018 A 
ATOM     21  C   UNL     1       7.733 -10.655   1.706  0.00  0.00    +0.018 A 
ATOM     22  C   UNL     1       7.622 -11.596   2.680  0.00  0.00    +0.092 A 
ATOM     23  C   UNL     1       6.707 -11.406   3.736  0.00  0.00    +0.337 A 
ATOM     24  O   UNL     1       6.617 -12.257   4.604  0.00  0.00    -0.245 OA
ATOM     25  O   UNL     1       5.933 -10.313   3.811  0.00  0.00    -0.422 OA
ATOM     26  C   UNL     1       5.994  -9.341   2.876  0.00  0.00    +0.143 A 
ATOM     27  C   UNL     1       5.191  -8.214   2.972  0.00  0.00    +0.093 A 
ENDBRANCH  16  17
ENDBRANCH  14  16
ENDBRANCH   1  14
BRANCH   1  28
ATOM     28  C   UNL     1       3.437  -3.610   0.844  0.00  0.00    +0.065 C 
BRANCH  28  29
ATOM     29  C   UNL     1       2.624  -2.344   0.919  0.00  0.00    -0.039 C 
ATOM     30  C   UNL     1       2.555  -1.482   1.959  0.00  0.00    -0.001 A 
ATOM     31  C   UNL     1       3.191  -1.468   3.282  0.00  0.00    +0.010 A 
ATOM     32  C   UNL     1       2.920  -0.448   4.128  0.00  0.00    +0.001 A 
ATOM     33  C   UNL     1       2.049   0.592   3.775  0.00  0.00    +0.002 A 
ATOM     34  C   UNL     1       1.428   0.648   2.578  0.00  0.00    +0.026 A 
ATOM     35  C   UNL     1       1.640  -0.372   1.610  0.00  0.00    +0.043 A 
ATOM     36  N   UNL     1       1.162  -0.541   0.401  0.00  0.00    -0.380 N 
ATOM     37  C   UNL     1       1.725  -1.776  -0.157  0.00  0.00    +0.144 C 
ATOM     38  H   UNL     1       0.543   0.053  -0.051  0.00  0.00    +0.160 HD
ENDBRANCH  28  29
ENDBRANCH   1  28
TORSDOF 8
