REMARK  Name = ZINC30514341
REMARK  10 active torsions:
REMARK  status: ('A' for Active; 'I' for Inactive)
REMARK    1  A    between atoms: C_1  and  C_2
REMARK    2  A    between atoms: C_2  and  C_4
REMARK    3  A    between atoms: C_2  and  N_14
REMARK    4  A    between atoms: N_9  and  C_10
REMARK    5  A    between atoms: C_10  and  C_11
REMARK    6  A    between atoms: C_11  and  C_12
REMARK    7  A    between atoms: C_11  and  C_13
REMARK    8  A    between atoms: N_14  and  C_15
REMARK    9  A    between atoms: C_15  and  C_16
REMARK   10  A    between atoms: C_16  and  N_21
REMARK                            x       y       z     vdW  Elec       q    Type
REMARK                         _______ _______ _______ _____ _____    ______ ____
ROOT
ATOM      1  N   UNL     1       0.714  -0.849   1.246  0.00  0.00    +0.388 N 
ATOM      2  H   UNL     1       0.189  -0.386   1.972  0.00  0.00    -0.085 HD
ATOM      3  H   UNL     1       0.818  -1.826   1.475  0.00  0.00    -0.085 HD
ENDROOT
BRANCH   1   5
ATOM      4  C   UNL     1      -0.264   0.761  -0.319  0.00  0.00    -0.004 C 
ATOM      5  C   UNL     1       0.002  -0.718  -0.033  0.00  0.00    +0.013 C 
BRANCH   5   6
ATOM      6  C   UNL     1      -1.308  -1.459   0.045  0.00  0.00    +0.206 C 
ATOM      7  O   UNL     1      -1.618  -2.038   1.064  0.00  0.00    -0.277 OA
ATOM      8  N   UNL     1      -2.136  -1.477  -1.019  0.00  0.00    -0.242 N 
ATOM      9  C   UNL     1      -3.307  -2.139  -0.950  0.00  0.00    +0.306 C 
ATOM     10  O   UNL     1      -3.618  -2.720   0.071  0.00  0.00    -0.252 OA
ATOM     11  N   UNL     1      -4.135  -2.158  -2.014  0.00  0.00    -0.299 N 
ATOM     12  H   UNL     1      -1.888  -1.013  -1.834  0.00  0.00    +0.159 HD
ATOM     13  H   UNL     1      -3.887  -1.694  -2.829  0.00  0.00    +0.150 HD
BRANCH  11  14
ATOM     14  C   UNL     1      -5.409  -2.877  -1.939  0.00  0.00    +0.108 C 
BRANCH  14  15
ATOM     15  C   UNL     1      -6.150  -2.741  -3.270  0.00  0.00    -0.000 C 
ATOM     16  C   UNL     1      -7.420  -3.595  -3.236  0.00  0.00    +0.009 C 
ATOM     17  C   UNL     1      -6.527  -1.276  -3.497  0.00  0.00    +0.009 C 
ENDBRANCH  14  15
ENDBRANCH  11  14
ENDBRANCH   5   6
ENDBRANCH   1   5
BRANCH   1  18
ATOM     18  C   UNL     1       2.042  -0.230   1.132  0.00  0.00    -0.059 C 
BRANCH  18  19
ATOM     19  C   UNL     1       2.833  -0.480   2.417  0.00  0.00    +0.007 C 
ATOM     20  C   UNL     1       4.203   0.226   2.341  0.00  0.00    +0.020 C 
ATOM     21  C   UNL     1       5.174  -0.753   3.046  0.00  0.00    +0.002 C 
ATOM     22  C   UNL     1       4.657  -2.139   2.587  0.00  0.00    +0.002 C 
ATOM     23  C   UNL     1       3.122  -1.984   2.574  0.00  0.00    +0.020 C 
BRANCH  19  24
ATOM     24  N   UNL     1       2.077   0.011   3.577  0.00  0.00    -0.297 NA
ATOM     25  C   UNL     1       1.729   1.424   3.417  0.00  0.00    +0.095 C 
ATOM     26  C   UNL     1       0.585   1.789   4.370  0.00  0.00    +0.084 C 
ATOM     27  S   UNL     1       1.154   1.519   6.077  0.00  0.00    -0.158 S 
ATOM     28  C   UNL     1       1.832  -0.169   6.011  0.00  0.00    +0.084 C 
ATOM     29  C   UNL     1       2.798  -0.255   4.824  0.00  0.00    +0.095 C 
ENDBRANCH  19  24
ENDBRANCH  18  19
ENDBRANCH   1  18
TORSDOF 7
