REMARK  Name = ZINC12908222
REMARK  10 active torsions:
REMARK  status: ('A' for Active; 'I' for Inactive)
REMARK    1  A    between atoms: C_1  and  C_2
REMARK    2  A    between atoms: C_4  and  C_26
REMARK    3  A    between atoms: C_5  and  N_9
REMARK    4  A    between atoms: C_6  and  C_8
REMARK    5  A    between atoms: C_10  and  C_12
REMARK    6  A    between atoms: C_12  and  N_13
REMARK    7  A    between atoms: C_14  and  C_16
REMARK    8  A    between atoms: C_16  and  N_56
REMARK    9  A    between atoms: C_18  and  C_25
REMARK   10  A    between atoms: C_21  and  C_24
REMARK                            x       y       z     vdW  Elec       q    Type
REMARK                         _______ _______ _______ _____ _____    ______ ____
ROOT
ATOM      1  C   UNL     1       2.283   1.144  -0.286  0.00  0.00    +0.200 C 
ENDROOT
BRANCH   1   3
ATOM      2  N   UNL     1      -0.134   1.043   0.231  0.00  0.00    -0.284 N 
ATOM      3  C   UNL     1       0.871   1.650  -0.431  0.00  0.00    +0.234 C 
ATOM      4  O   UNL     1       0.639   2.604  -1.142  0.00  0.00    -0.274 OA
ATOM      5  H   UNL     1       0.043   0.248   0.758  0.00  0.00    +0.155 HD
BRANCH   2  10
ATOM      6  C   UNL     1      -5.403   3.122  -0.085  0.00  0.00    +0.044 C 
ATOM      7  C   UNL     1      -4.004   2.570  -0.001  0.00  0.00    -0.050 A 
ATOM      8  C   UNL     1      -3.770   1.236  -0.281  0.00  0.00    +0.008 A 
ATOM      9  C   UNL     1      -2.489   0.726  -0.205  0.00  0.00    -0.029 A 
ATOM     10  C   UNL     1      -1.434   1.556   0.153  0.00  0.00    +0.039 A 
ATOM     11  C   UNL     1      -1.672   2.894   0.438  0.00  0.00    -0.029 A 
ATOM     12  C   UNL     1      -2.955   3.398   0.355  0.00  0.00    +0.008 A 
ATOM     13  C   UNL     1      -0.531   3.795   0.834  0.00  0.00    +0.045 C 
ATOM     14  C   UNL     1      -2.236  -0.728  -0.509  0.00  0.00    +0.045 C 
ENDBRANCH   2  10
ENDBRANCH   1   3
BRANCH   1  15
ATOM     15  N   UNL     1       3.182   1.966  -1.098  0.00  0.00    -0.308 N 
ATOM     16  C   UNL     1       4.503   1.697  -1.124  0.00  0.00    +0.197 C 
ATOM     17  O   UNL     1       4.946   0.773  -0.475  0.00  0.00    -0.278 OA
ATOM     18  H   UNL     1       2.828   2.705  -1.617  0.00  0.00    +0.149 HD
BRANCH  16  19
ATOM     19  C   UNL     1       5.428   2.543  -1.960  0.00  0.00    +0.019 C 
BRANCH  19  27
ATOM     20  C   UNL     1       7.293   2.238  -0.447  0.00  0.00    -0.075 C 
ATOM     21  C   UNL     1       8.669   1.584  -0.299  0.00  0.00    -0.031 C 
ATOM     22  C   UNL     1       9.640   2.218  -1.299  0.00  0.00    +0.003 C 
ATOM     23  C   UNL     1       9.084   2.050  -2.716  0.00  0.00    -0.031 C 
ATOM     24  C   UNL     1       7.696   2.691  -2.793  0.00  0.00    -0.075 C 
ATOM     25  C   UNL     1      10.018   2.734  -3.716  0.00  0.00    +0.005 C 
ATOM     26  C   UNL     1       8.554   0.084  -0.580  0.00  0.00    +0.005 C 
ATOM     27  N   UNL     1       6.803   2.020  -1.824  0.00  0.00    +0.386 N 
ATOM     28  H   UNL     1       6.797   1.012  -2.020  0.00  0.00    -0.081 HD
ENDBRANCH  19  27
ENDBRANCH  16  19
ENDBRANCH   1  15
TORSDOF 5
