REMARK  Name = ZINC24249545
REMARK  9 active torsions:
REMARK  status: ('A' for Active; 'I' for Inactive)
REMARK    1  A    between atoms: C_1  and  C_2
REMARK    2  A    between atoms: C_2  and  C_3
REMARK    3  A    between atoms: C_3  and  C_4
REMARK    4  A    between atoms: C_4  and  N_5
REMARK    5  A    between atoms: C_9  and  C_11
REMARK    6  A    between atoms: C_11  and  C_13
REMARK    7  A    between atoms: C_11  and  N_14
REMARK    8  A    between atoms: N_17  and  C_20
REMARK    9  A    between atoms: C_25  and  O_26
REMARK                            x       y       z     vdW  Elec       q    Type
REMARK                         _______ _______ _______ _____ _____    ______ ____
ROOT
ATOM      1  N   UNL     1      -0.422  -2.807  -0.254  0.00  0.00    +0.389 N 
ATOM      2  C   UNL     1       0.573  -2.938  -1.327  0.00  0.00    -0.059 C 
ATOM      3  C   UNL     1       1.356  -1.629  -1.455  0.00  0.00    +0.086 C 
ATOM      4  N   UNL     1       0.423  -0.529  -1.737  0.00  0.00    -0.331 N 
ATOM      5  C   UNL     1      -0.573  -0.398  -0.664  0.00  0.00    +0.086 C 
ATOM      6  C   UNL     1      -1.355  -1.707  -0.536  0.00  0.00    -0.059 C 
ATOM      7  H   UNL     1       0.112  -2.569   0.678  0.00  0.00    -0.081 HD
ENDROOT
BRANCH   4   8
ATOM      8  C   UNL     1       1.111   0.675  -1.933  0.00  0.00    +0.072 A 
ATOM      9  C   UNL     1       1.902   1.196  -0.919  0.00  0.00    +0.027 A 
ATOM     10  C   UNL     1       2.583   2.382  -1.116  0.00  0.00    +0.002 A 
ATOM     11  C   UNL     1       2.471   3.057  -2.318  0.00  0.00    +0.004 A 
ATOM     12  C   UNL     1       1.680   2.545  -3.331  0.00  0.00    +0.047 A 
ATOM     13  C   UNL     1       0.998   1.355  -3.143  0.00  0.00    +0.138 A 
BRANCH  13  14
ATOM     14  O   UNL     1       0.220   0.851  -4.138  0.00  0.00    -0.505 OA
ATOM     15  H   UNL     1       0.132   1.389  -5.094  0.00  0.00    +0.292 HD
ENDBRANCH  13  14
ENDBRANCH   4   8
BRANCH   1  16
ATOM     16  C   UNL     1      -1.144  -4.070  -0.049  0.00  0.00    +0.017 C 
ATOM     17  C   UNL     1      -2.317  -3.838   0.905  0.00  0.00    -0.004 C 
BRANCH  16  22
ATOM     18  N   UNL     1      -2.465  -7.665  -2.953  0.00  0.00    -0.299 N 
ATOM     19  C   UNL     1      -2.297  -6.343  -2.754  0.00  0.00    +0.306 C 
ATOM     20  O   UNL     1      -2.564  -5.556  -3.640  0.00  0.00    -0.252 OA
ATOM     21  N   UNL     1      -1.832  -5.894  -1.571  0.00  0.00    -0.242 N 
ATOM     22  C   UNL     1      -1.663  -4.572  -1.371  0.00  0.00    +0.207 C 
ATOM     23  O   UNL     1      -1.930  -3.787  -2.255  0.00  0.00    -0.277 OA
ATOM     24  H   UNL     1      -2.223  -8.378  -2.151  0.00  0.00    +0.150 HD
ATOM     25  H   UNL     1      -1.590  -6.607  -0.769  0.00  0.00    +0.159 HD
BRANCH  18  26
ATOM     26  C   UNL     1      -2.970  -8.154  -4.239  0.00  0.00    +0.106 C 
BRANCH  26  27
ATOM     27  C   UNL     1      -3.067  -9.680  -4.202  0.00  0.00    +0.018 C 
BRANCH  27  29
ATOM     28  C   UNL     1      -3.691 -11.716  -5.509  0.00  0.00    +0.004 C 
ATOM     29  C   UNL     1      -3.594 -10.190  -5.545  0.00  0.00    -0.002 C 
ENDBRANCH  27  29
ENDBRANCH  26  27
ENDBRANCH  18  26
ENDBRANCH  16  22
ENDBRANCH   1  16
TORSDOF 7
