REMARK  Name = ZINC12394518
REMARK  2 active torsions:
REMARK  status: ('A' for Active; 'I' for Inactive)
REMARK    1  A    between atoms: C_6  and  C_7
REMARK    2  A    between atoms: C_9  and  N_12
REMARK                            x       y       z     vdW  Elec       q    Type
REMARK                         _______ _______ _______ _____ _____    ______ ____
ROOT
ATOM      1  C   UNL     1      -0.017   1.389   0.010  0.00  0.00    +0.014 A 
ATOM      2  C   UNL     1       1.169   2.096   0.002  0.00  0.00    +0.050 A 
ATOM      3  C   UNL     1       2.381   1.423  -0.013  0.00  0.00    +0.166 A 
ATOM      4  C   UNL     1       2.405   0.029  -0.021  0.00  0.00    +0.167 A 
ATOM      5  C   UNL     1       1.220  -0.682  -0.013  0.00  0.00    +0.059 A 
ATOM      6  C   UNL     1       0.002  -0.004   0.002  0.00  0.00    +0.007 A 
ATOM      7  O   UNL     1       3.707  -0.384  -0.036  0.00  0.00    -0.453 OA
ATOM      8  C   UNL     1       4.470   0.765  -0.450  0.00  0.00    +0.466 C 
ATOM      9  O   UNL     1       3.667   1.881  -0.023  0.00  0.00    -0.453 OA
ENDROOT
BRANCH   6  10
ATOM     10  C   UNL     1      -1.272  -0.765   0.011  0.00  0.00    +0.115 A 
ATOM     11  C   UNL     1      -2.583  -0.230  -0.072  0.00  0.00    +0.096 A 
ATOM     12  C   UNL     1      -3.389  -1.330  -0.024  0.00  0.00    +0.216 A 
ATOM     13  O   UNL     1      -2.575  -2.393   0.079  0.00  0.00    -0.339 OA
ATOM     14  N   UNL     1      -1.411  -2.067   0.091  0.00  0.00    -0.076 NA
BRANCH  12  15
ATOM     15  N   UNL     1      -4.771  -1.347  -0.071  0.00  0.00    -0.327 N 
ATOM     16  H   UNL     1      -5.264  -0.514  -0.146  0.00  0.00    +0.145 HD
ATOM     17  H   UNL     1      -5.247  -2.190  -0.029  0.00  0.00    +0.145 HD
ENDBRANCH  12  15
ENDBRANCH   6  10
TORSDOF 2
