REMARK  Name = ZINC65773037
REMARK  7 active torsions:
REMARK  status: ('A' for Active; 'I' for Inactive)
REMARK    1  A    between atoms: C_1  and  O_2
REMARK    2  A    between atoms: O_2  and  C_3
REMARK    3  A    between atoms: C_6  and  C_11
REMARK    4  A    between atoms: C_8  and  O_9
REMARK    5  A    between atoms: O_9  and  C_10
REMARK    6  A    between atoms: N_13  and  N_14
REMARK    7  A    between atoms: N_17  and  C_18
REMARK                            x       y       z     vdW  Elec       q    Type
REMARK                         _______ _______ _______ _____ _____    ______ ____
ROOT
ATOM      1  N   UNL     1      -7.341  -2.541   0.065  0.00  0.00    -0.218 N 
ATOM      2  C   UNL     1      -8.480  -1.819   0.069  0.00  0.00    +0.320 C 
ATOM      3  O   UNL     1      -9.557  -2.383   0.073  0.00  0.00    -0.251 OA
ATOM      4  N   UNL     1      -8.424  -0.473   0.068  0.00  0.00    -0.267 N 
ATOM      5  H   UNL     1      -7.382  -3.510   0.065  0.00  0.00    +0.174 HD
ATOM      6  H   UNL     1      -7.567  -0.023   0.134  0.00  0.00    +0.156 HD
ENDROOT
BRANCH   4   7
ATOM      7  C   UNL     1      -9.604   0.278  -0.027  0.00  0.00    +0.051 A 
ATOM      8  C   UNL     1     -10.777  -0.171   0.578  0.00  0.00    +0.028 A 
ATOM      9  C   UNL     1     -11.918   0.601   0.458  0.00  0.00    +0.043 A 
ATOM     10  C   UNL     1     -11.858   1.792  -0.257  0.00  0.00    +0.099 A 
ATOM     11  N   UNL     1     -10.726   2.188  -0.818  0.00  0.00    -0.348 N 
ATOM     12  C   UNL     1      -9.618   1.479  -0.719  0.00  0.00    +0.107 A 
ATOM     13  N   UNL     1     -13.001   2.577  -0.384  0.00  0.00    -0.317 N 
ATOM     14  C   UNL     1     -14.320   2.269   0.188  0.00  0.00    +0.106 C 
ATOM     15  C   UNL     1     -15.277   3.404  -0.232  0.00  0.00    +0.020 C 
ATOM     16  C   UNL     1     -14.585   3.996  -1.488  0.00  0.00    +0.020 C 
ATOM     17  C   UNL     1     -13.087   3.858  -1.109  0.00  0.00    +0.106 C 
ATOM     18  H   UNL     1     -10.711   3.023  -1.312  0.00  0.00    +0.167 HD
ENDBRANCH   4   7
BRANCH   1  21
ATOM     19  C   UNL     1      -4.962  -2.613   0.056  0.00  0.00    +0.260 C 
ATOM     20  O   UNL     1      -5.012  -3.828   0.057  0.00  0.00    -0.269 OA
ATOM     21  N   UNL     1      -6.100  -1.891   0.060  0.00  0.00    -0.229 N 
ATOM     22  H   UNL     1      -6.060  -0.922   0.060  0.00  0.00    +0.173 HD
BRANCH  19  26
ATOM     23  C   UNL     1      -1.199  -0.637   0.044  0.00  0.00    +0.162 A 
ATOM     24  C   UNL     1      -2.373   0.104   0.047  0.00  0.00    +0.050 A 
ATOM     25  C   UNL     1      -3.594  -0.533   0.051  0.00  0.00    +0.017 A 
ATOM     26  C   UNL     1      -3.654  -1.929   0.051  0.00  0.00    +0.042 A 
ATOM     27  C   UNL     1      -2.473  -2.676   0.048  0.00  0.00    +0.062 A 
ATOM     28  C   UNL     1      -1.252  -2.031   0.038  0.00  0.00    +0.162 A 
BRANCH  23  30
ATOM     29  C   UNL     1      -0.017   1.424   0.047  0.00  0.00    +0.277 C 
ATOM     30  O   UNL     1       0.002  -0.005   0.041  0.00  0.00    -0.491 OA
ENDBRANCH  23  30
BRANCH  28  31
ATOM     31  O   UNL     1      -0.100  -2.754   0.029  0.00  0.00    -0.491 OA
ATOM     32  C   UNL     1      -0.229  -4.178   0.024  0.00  0.00    +0.277 C 
ENDBRANCH  28  31
ENDBRANCH  19  26
ENDBRANCH   1  21
TORSDOF 5
