REMARK  Name = ZINC38610046
REMARK  11 active torsions:
REMARK  status: ('A' for Active; 'I' for Inactive)
REMARK    1  A    between atoms: C_1  and  C_2
REMARK    2  A    between atoms: C_2  and  O_3
REMARK    3  A    between atoms: O_3  and  C_4
REMARK    4  A    between atoms: C_4  and  C_6
REMARK    5  A    between atoms: C_8  and  N_17
REMARK    6  A    between atoms: C_18  and  C_20
REMARK    7  A    between atoms: C_20  and  C_22
REMARK    8  A    between atoms: C_20  and  N_23
REMARK    9  A    between atoms: N_26  and  C_29
REMARK   10  A    between atoms: C_29  and  C_30
REMARK   11  A    between atoms: C_30  and  O_31
REMARK                            x       y       z     vdW  Elec       q    Type
REMARK                         _______ _______ _______ _____ _____    ______ ____
ROOT
ATOM      1  N   UNL     1       4.014  -1.113  -2.494  0.00  0.00    -0.288 N 
ATOM      2  C   UNL     1       5.298  -1.410  -2.212  0.00  0.00    +0.203 C 
ATOM      3  O   UNL     1       5.748  -2.496  -2.508  0.00  0.00    -0.277 OA
ATOM      4  H   UNL     1       3.673  -0.221  -2.322  0.00  0.00    +0.155 HD
ENDROOT
BRANCH   1   6
ATOM      5  C   UNL     1       3.575  -3.469  -3.437  0.00  0.00    +0.234 C 
ATOM      6  C   UNL     1       3.195  -2.065  -3.023  0.00  0.00    +0.053 C 
ATOM      7  C   UNL     1       1.842  -1.948  -3.291  0.00  0.00    +0.020 A 
ATOM      8  C   UNL     1       0.923  -0.884  -3.120  0.00  0.00    +0.050 A 
ATOM      9  C   UNL     1      -0.375  -1.053  -3.478  0.00  0.00    +0.124 A 
ATOM     10  C   UNL     1      -0.836  -2.260  -4.014  0.00  0.00    +0.040 A 
ATOM     11  C   UNL     1      -0.013  -3.319  -4.204  0.00  0.00    +0.029 A 
ATOM     12  C   UNL     1       1.359  -3.220  -3.855  0.00  0.00    +0.045 A 
ATOM     13  N   UNL     1       2.346  -4.091  -3.940  0.00  0.00    -0.367 N 
ATOM     14  F   UNL     1      -1.243  -0.031  -3.311  0.00  0.00    -0.205 F 
ATOM     15  H   UNL     1       2.272  -4.997  -4.280  0.00  0.00    +0.161 HD
BRANCH   5  16
ATOM     16  C   UNL     1       4.617  -3.425  -4.525  0.00  0.00    +0.336 C 
ATOM     17  O   UNL     1       4.312  -3.072  -5.640  0.00  0.00    -0.248 OA
BRANCH  16  18
ATOM     18  O   UNL     1       5.884  -3.778  -4.256  0.00  0.00    -0.463 OA
BRANCH  18  20
ATOM     19  C   UNL     1       8.199  -4.147  -4.841  0.00  0.00    +0.048 C 
ATOM     20  C   UNL     1       6.819  -3.712  -5.335  0.00  0.00    +0.229 C 
ENDBRANCH  18  20
ENDBRANCH  16  18
ENDBRANCH   5  16
ENDBRANCH   1   6
BRANCH   2  21
ATOM     21  C   UNL     1       6.174  -0.392  -1.528  0.00  0.00    +0.016 C 
ATOM     22  C   UNL     1       5.628  -0.108  -0.128  0.00  0.00    -0.004 C 
BRANCH  21  23
ATOM     23  N   UNL     1       7.543  -0.915  -1.424  0.00  0.00    +0.389 N 
ATOM     24  C   UNL     1       7.558  -2.065  -0.510  0.00  0.00    -0.062 C 
ATOM     25  C   UNL     1       8.980  -2.622  -0.415  0.00  0.00    +0.066 C 
ATOM     26  N   UNL     1       9.883  -1.572   0.076  0.00  0.00    -0.304 NA
ATOM     27  C   UNL     1       9.859  -0.404  -0.815  0.00  0.00    +0.066 C 
ATOM     28  C   UNL     1       8.430   0.135  -0.907  0.00  0.00    -0.062 C 
ATOM     29  H   UNL     1       7.862  -1.206  -2.336  0.00  0.00    -0.081 HD
BRANCH  26  30
ATOM     30  C   UNL     1      11.251  -2.085   0.235  0.00  0.00    +0.112 C 
BRANCH  30  31
ATOM     31  C   UNL     1      12.100  -1.051   0.976  0.00  0.00    +0.171 C 
BRANCH  31  32
ATOM     32  O   UNL     1      11.601  -0.888   2.305  0.00  0.00    -0.394 OA
ATOM     33  H   UNL     1      12.093  -0.245   2.834  0.00  0.00    +0.209 HD
ENDBRANCH  31  32
ENDBRANCH  30  31
ENDBRANCH  26  30
ENDBRANCH  21  23
ENDBRANCH   2  21
TORSDOF 9
