REMARK  Name = ZINC36144050
REMARK  7 active torsions:
REMARK  status: ('A' for Active; 'I' for Inactive)
REMARK    1  A    between atoms: C_1  and  C_2
REMARK    2  A    between atoms: C_2  and  C_3
REMARK    3  A    between atoms: C_17  and  N_19
REMARK    4  A    between atoms: N_19  and  C_20
REMARK    5  A    between atoms: N_19  and  C_22
REMARK    6  A    between atoms: C_20  and  C_21
REMARK    7  A    between atoms: C_22  and  C_23
REMARK                            x       y       z     vdW  Elec       q    Type
REMARK                         _______ _______ _______ _____ _____    ______ ____
ROOT
ATOM      1  C   UNL     1      -1.551  -0.043  -0.403  0.00  0.00    -0.044 A 
ATOM      2  C   UNL     1      -2.079  -0.371   0.833  0.00  0.00    +0.004 A 
ATOM      3  C   UNL     1      -3.325  -0.959   0.917  0.00  0.00    +0.006 A 
ATOM      4  C   UNL     1      -4.054  -1.222  -0.232  0.00  0.00    -0.019 A 
ATOM      5  C   UNL     1      -3.530  -0.892  -1.469  0.00  0.00    +0.123 A 
ATOM      6  C   UNL     1      -2.275  -0.297  -1.550  0.00  0.00    +0.049 A 
ATOM      7  O   UNL     1      -4.213  -1.124  -2.621  0.00  0.00    -0.486 OA
ATOM      8  C   UNL     1      -5.309  -2.035  -2.575  0.00  0.00    +0.106 C 
ATOM      9  C   UNL     1      -6.113  -1.946  -3.873  0.00  0.00    +0.029 C 
ATOM     10  C   UNL     1      -5.237  -2.399  -5.043  0.00  0.00    -0.079 C 
ATOM     11  N   UNL     1      -4.800  -3.783  -4.825  0.00  0.00    +0.379 N 
ATOM     12  C   UNL     1      -3.964  -3.858  -3.621  0.00  0.00    -0.079 C 
ATOM     13  C   UNL     1      -4.790  -3.463  -2.395  0.00  0.00    +0.029 C 
ATOM     14  C   UNL     1      -6.207  -1.664  -1.389  0.00  0.00    +0.037 C 
ATOM     15  C   UNL     1      -5.409  -1.869  -0.099  0.00  0.00    -0.030 C 
ATOM     16  H   UNL     1      -5.609  -4.375  -4.708  0.00  0.00    -0.086 HD
ATOM     17  H   UNL     1      -4.269  -4.097  -5.623  0.00  0.00    -0.086 HD
ENDROOT
BRANCH   1  19
ATOM     18  C   UNL     1      -0.338   2.119  -0.433  0.00  0.00    +0.009 C 
ATOM     19  C   UNL     1      -0.190   0.597  -0.496  0.00  0.00    +0.032 C 
ENDBRANCH   1  19
BRANCH  15  20
ATOM     20  N   UNL     1      -6.133  -1.261   1.025  0.00  0.00    +0.384 N 
ATOM     21  H   UNL     1      -5.594  -1.370   1.871  0.00  0.00    -0.081 HD
BRANCH  20  22
ATOM     22  C   UNL     1      -6.340   0.169   0.758  0.00  0.00    -0.081 C 
ATOM     23  C   UNL     1      -6.943   0.837   1.996  0.00  0.00    -0.017 C 
ENDBRANCH  20  22
BRANCH  20  24
ATOM     24  C   UNL     1      -7.434  -1.923   1.185  0.00  0.00    -0.081 C 
ATOM     25  C   UNL     1      -7.218  -3.380   1.597  0.00  0.00    -0.017 C 
ENDBRANCH  20  24
ENDBRANCH  15  20
TORSDOF 4
