REMARK  Name = ZINC13403822
REMARK  6 active torsions:
REMARK  status: ('A' for Active; 'I' for Inactive)
REMARK    1  A    between atoms: C_7  and  S_32
REMARK    2  A    between atoms: C_9  and  N_12
REMARK    3  A    between atoms: C_10  and  O_11
REMARK    4  A    between atoms: N_13  and  C_14
REMARK    5  A    between atoms: C_18  and  C_20
REMARK    6  A    between atoms: C_21  and  C_22
REMARK                            x       y       z     vdW  Elec       q    Type
REMARK                         _______ _______ _______ _____ _____    ______ ____
ROOT
ATOM      1  N   UNL     1       4.115  -3.094   1.384  0.00  0.00    -0.146 NA
ATOM      2  N   UNL     1       4.524  -4.308   1.235  0.00  0.00    -0.149 NA
ENDROOT
BRANCH   1  11
ATOM      3  C   UNL     1      -1.681  -0.848   2.622  0.00  0.00    +0.001 A 
ATOM      4  C   UNL     1      -0.800   0.225   2.516  0.00  0.00    +0.001 A 
ATOM      5  C   UNL     1       0.521   0.022   2.251  0.00  0.00    +0.012 A 
ATOM      6  C   UNL     1       1.003  -1.286   2.082  0.00  0.00    +0.028 A 
ATOM      7  C   UNL     1       0.107  -2.378   2.191  0.00  0.00    +0.013 A 
ATOM      8  C   UNL     1      -1.248  -2.130   2.464  0.00  0.00    +0.010 A 
ATOM      9  C   UNL     1       0.583  -3.693   2.023  0.00  0.00    +0.130 A 
ATOM     10  C   UNL     1       1.894  -3.916   1.760  0.00  0.00    +0.063 A 
ATOM     11  C   UNL     1       2.801  -2.845   1.649  0.00  0.00    +0.130 A 
ATOM     12  C   UNL     1       2.363  -1.530   1.808  0.00  0.00    +0.152 A 
BRANCH   9  13
ATOM     13  S   UNL     1      -0.529  -5.053   2.157  0.00  0.00    +0.140 S 
ATOM     14  O   UNL     1      -1.220  -5.162   0.881  0.00  0.00    -0.140 OA
ATOM     15  O   UNL     1       0.276  -6.231   2.441  0.00  0.00    -0.140 OA
ATOM     16  O   UNL     1      -1.444  -4.745   3.245  0.00  0.00    -0.043 OA
ENDBRANCH   9  13
BRANCH  12  17
ATOM     17  O   UNL     1       3.236  -0.499   1.700  0.00  0.00    -0.504 OA
ATOM     18  H   UNL     1       3.655  -0.250   2.535  0.00  0.00    +0.292 HD
ENDBRANCH  12  17
ENDBRANCH   1  11
BRANCH   2  19
ATOM     19  C   UNL     1       5.842  -4.558   0.969  0.00  0.00    +0.087 A 
ATOM     20  C   UNL     1       6.749  -3.498   0.864  0.00  0.00    +0.029 A 
ATOM     21  C   UNL     1       8.079  -3.748   0.596  0.00  0.00    +0.003 A 
ATOM     22  C   UNL     1       8.526  -5.044   0.430  0.00  0.00    +0.008 A 
ATOM     23  C   UNL     1       7.631  -6.114   0.532  0.00  0.00    -0.023 A 
ATOM     24  C   UNL     1       6.286  -5.870   0.809  0.00  0.00    +0.037 A 
BRANCH  23  25
ATOM     25  C   UNL     1       8.109  -7.496   0.353  0.00  0.00    +0.011 C 
ATOM     26  C   UNL     1       7.417  -8.353  -0.420  0.00  0.00    +0.047 C 
BRANCH  26  27
ATOM     27  C   UNL     1       6.325  -7.859  -1.266  0.00  0.00    +0.132 A 
ATOM     28  N   UNL     1       5.479  -8.647  -2.005  0.00  0.00    -0.338 N 
ATOM     29  H   UNL     1       5.495  -9.616  -2.061  0.00  0.00    +0.167 HD
ATOM     30  C   UNL     1       4.600  -7.801  -2.653  0.00  0.00    +0.066 A 
ATOM     31  C   UNL     1       3.538  -8.000  -3.524  0.00  0.00    +0.028 A 
ATOM     32  C   UNL     1       2.840  -6.915  -4.010  0.00  0.00    +0.002 A 
ATOM     33  C   UNL     1       3.192  -5.626  -3.634  0.00  0.00    +0.002 A 
ATOM     34  C   UNL     1       4.234  -5.409  -2.779  0.00  0.00    +0.030 A 
ATOM     35  C   UNL     1       4.957  -6.495  -2.272  0.00  0.00    +0.089 A 
ATOM     36  N   UNL     1       6.004  -6.595  -1.427  0.00  0.00    -0.228 NA
ENDBRANCH  26  27
ENDBRANCH  23  25
ENDBRANCH   2  19
TORSDOF 6
