REMARK  Name = ZINC54398699
REMARK  11 active torsions:
REMARK  status: ('A' for Active; 'I' for Inactive)
REMARK    1  A    between atoms: C_1  and  C_2
REMARK    2  A    between atoms: C_2  and  C_4
REMARK    3  A    between atoms: C_2  and  O_22
REMARK    4  A    between atoms: N_6  and  N_7
REMARK    5  A    between atoms: N_10  and  C_11
REMARK    6  A    between atoms: C_11  and  C_12
REMARK    7  A    between atoms: C_17  and  C_18
REMARK    8  A    between atoms: C_18  and  N_19
REMARK    9  A    between atoms: N_19  and  C_20
REMARK   10  A    between atoms: N_19  and  C_21
REMARK   11  A    between atoms: O_22  and  C_23
REMARK                            x       y       z     vdW  Elec       q    Type
REMARK                         _______ _______ _______ _____ _____    ______ ____
ROOT
ATOM      1  N   UNL     1       1.786  -0.189  -4.471  0.00  0.00    -0.218 N 
ATOM      2  C   UNL     1       1.362  -0.055  -5.744  0.00  0.00    +0.316 C 
ATOM      3  O   UNL     1       2.108  -0.325  -6.665  0.00  0.00    -0.251 OA
ATOM      4  N   UNL     1       0.110   0.377  -5.995  0.00  0.00    -0.294 N 
ATOM      5  H   UNL     1       2.687  -0.500  -4.291  0.00  0.00    +0.174 HD
ATOM      6  H   UNL     1      -0.485   0.592  -5.260  0.00  0.00    +0.151 HD
ENDROOT
BRANCH   1   9
ATOM      7  C   UNL     1       1.350  -0.012  -2.138  0.00  0.00    +0.270 C 
ATOM      8  O   UNL     1       2.476  -0.401  -1.912  0.00  0.00    -0.270 OA
ATOM      9  N   UNL     1       0.926   0.122  -3.410  0.00  0.00    -0.230 N 
ATOM     10  H   UNL     1       0.025   0.433  -3.591  0.00  0.00    +0.173 HD
BRANCH   7  12
ATOM     11  C   UNL     1       0.103   1.818  -1.021  0.00  0.00    +0.062 C 
ATOM     12  C   UNL     1       0.425   0.322  -0.996  0.00  0.00    +0.257 C 
BRANCH  12  13
ATOM     13  O   UNL     1       1.057  -0.009   0.242  0.00  0.00    -0.480 OA
BRANCH  13  14
ATOM     14  C   UNL     1       0.245  -0.240   1.307  0.00  0.00    +0.122 A 
ATOM     15  C   UNL     1      -1.132  -0.231   1.145  0.00  0.00    +0.048 A 
ATOM     16  C   UNL     1      -1.956  -0.466   2.229  0.00  0.00    +0.042 A 
ATOM     17  C   UNL     1      -1.408  -0.712   3.476  0.00  0.00    +0.124 A 
ATOM     18  C   UNL     1      -0.033  -0.721   3.639  0.00  0.00    +0.042 A 
ATOM     19  C   UNL     1       0.794  -0.492   2.556  0.00  0.00    +0.048 A 
ATOM     20  F   UNL     1      -2.215  -0.941   4.535  0.00  0.00    -0.205 F 
ENDBRANCH  13  14
ENDBRANCH  12  13
ENDBRANCH   7  12
ENDBRANCH   1   9
BRANCH   4  21
ATOM     21  C   UNL     1      -0.351   0.522  -7.378  0.00  0.00    +0.141 C 
BRANCH  21  22
ATOM     22  C   UNL     1      -1.725   1.140  -7.387  0.00  0.00    -0.029 A 
ATOM     23  C   UNL     1      -2.843   0.337  -7.514  0.00  0.00    +0.005 A 
ATOM     24  C   UNL     1      -4.104   0.903  -7.522  0.00  0.00    +0.000 A 
ATOM     25  C   UNL     1      -4.247   2.273  -7.403  0.00  0.00    +0.000 A 
ATOM     26  C   UNL     1      -3.130   3.076  -7.275  0.00  0.00    +0.002 A 
ATOM     27  C   UNL     1      -1.869   2.509  -7.262  0.00  0.00    -0.059 A 
BRANCH  27  28
ATOM     28  C   UNL     1      -0.650   3.384  -7.118  0.00  0.00    -0.043 C 
BRANCH  28  29
ATOM     29  N   UNL     1      -0.202   3.372  -5.719  0.00  0.00    +0.379 N 
ATOM     30  C   UNL     1       1.067   4.103  -5.605  0.00  0.00    -0.096 C 
ATOM     31  C   UNL     1      -1.216   4.018  -4.874  0.00  0.00    -0.096 C 
ATOM     32  H   UNL     1      -0.070   2.419  -5.416  0.00  0.00    -0.082 HD
ENDBRANCH  28  29
ENDBRANCH  27  28
ENDBRANCH  21  22
ENDBRANCH   4  21
TORSDOF 8
