REMARK  Name = ZINC00269921
REMARK  6 active torsions:
REMARK  status: ('A' for Active; 'I' for Inactive)
REMARK    1  A    between atoms: C_1  and  C_2
REMARK    2  A    between atoms: C_3  and  C_9
REMARK    3  A    between atoms: C_7  and  O_8
REMARK    4  A    between atoms: C_12  and  C_17
REMARK    5  A    between atoms: C_12  and  O_21
REMARK    6  A    between atoms: C_14  and  C_16
REMARK                            x       y       z     vdW  Elec       q    Type
REMARK                         _______ _______ _______ _____ _____    ______ ____
ROOT
ATOM      1  C   UNL     1      -2.755   3.400   1.495  0.00  0.00    +0.269 C 
ATOM      2  O   UNL     1      -2.793   3.516   2.705  0.00  0.00    -0.268 OA
ATOM      3  N   UNL     1      -1.746   2.720   0.914  0.00  0.00    -0.148 N 
ATOM      4  C   UNL     1      -0.576   2.155   1.614  0.00  0.00    +0.257 C 
ATOM      5  C   UNL     1       0.229   1.500   0.473  0.00  0.00    +0.118 C 
ATOM      6  C   UNL     1      -0.596   1.780  -0.763  0.00  0.00    +0.039 C 
ATOM      7  N   UNL     1      -1.635   2.436  -0.445  0.00  0.00    -0.183 NA
ATOM      8  C   UNL     1      -0.237   1.347  -2.161  0.00  0.00    +0.062 C 
ENDROOT
BRANCH   1  11
ATOM      9  C   UNL     1      -5.475   3.480   2.477  0.00  0.00    +0.048 C 
ATOM     10  C   UNL     1      -5.130   4.050   1.125  0.00  0.00    +0.003 A 
ATOM     11  C   UNL     1      -3.815   4.005   0.661  0.00  0.00    +0.045 A 
ATOM     12  C   UNL     1      -3.504   4.529  -0.595  0.00  0.00    +0.013 A 
ATOM     13  C   UNL     1      -4.496   5.093  -1.370  0.00  0.00    +0.004 A 
ATOM     14  C   UNL     1      -5.798   5.141  -0.908  0.00  0.00    +0.046 A 
ATOM     15  C   UNL     1      -6.117   4.622   0.340  0.00  0.00    +0.120 A 
BRANCH  15  16
ATOM     16  O   UNL     1      -7.399   4.672   0.789  0.00  0.00    -0.506 OA
ATOM     17  H   UNL     1      -7.929   3.899   0.551  0.00  0.00    +0.292 HD
ENDBRANCH  15  16
ENDBRANCH   1  11
BRANCH   4  18
ATOM     18  C   UNL     1      -1.013   1.105   2.638  0.00  0.00    +0.438 C 
ATOM     19  F   UNL     1       0.117   0.484   3.180  0.00  0.00    -0.166 F 
ATOM     20  F   UNL     1      -1.740   1.725   3.659  0.00  0.00    -0.166 F 
ATOM     21  F   UNL     1      -1.815   0.146   2.010  0.00  0.00    -0.166 F 
ENDBRANCH   4  18
BRANCH   4  22
ATOM     22  O   UNL     1       0.186   3.187   2.242  0.00  0.00    -0.363 OA
ATOM     23  H   UNL     1      -0.275   3.631   2.966  0.00  0.00    +0.212 HD
ENDBRANCH   4  22
TORSDOF 4
