REMARK  Name = ZINC53881080
REMARK  7 active torsions:
REMARK  status: ('A' for Active; 'I' for Inactive)
REMARK    1  A    between atoms: C_1  and  C_2
REMARK    2  A    between atoms: C_2  and  N_3
REMARK    3  A    between atoms: N_3  and  C_4
REMARK    4  A    between atoms: C_11  and  C_13
REMARK    5  A    between atoms: C_13  and  N_14
REMARK    6  A    between atoms: C_17  and  C_23
REMARK    7  A    between atoms: C_20  and  C_22
REMARK                            x       y       z     vdW  Elec       q    Type
REMARK                         _______ _______ _______ _____ _____    ______ ____
ROOT
ATOM      1  C   UNL     1      -1.386  -2.330  -0.115  0.00  0.00    -0.070 C 
ATOM      2  C   UNL     1      -0.620  -2.907   1.090  0.00  0.00    -0.016 C 
ATOM      3  C   UNL     1      -1.110  -4.275   1.483  0.00  0.00    -0.002 C 
ATOM      4  C   UNL     1      -2.166  -4.116   2.595  0.00  0.00    -0.000 C 
ATOM      5  C   UNL     1      -3.473  -3.748   2.071  0.00  0.00    +0.000 C 
ATOM      6  C   UNL     1      -3.454  -2.386   1.346  0.00  0.00    -0.000 C 
ATOM      7  C   UNL     1      -2.903  -2.590  -0.037  0.00  0.00    -0.042 C 
ENDROOT
BRANCH   1   8
ATOM      8  N   UNL     1      -1.157  -0.880  -0.172  0.00  0.00    +0.381 N 
ATOM      9  H   UNL     1      -1.473  -0.456   0.687  0.00  0.00    -0.086 HD
ATOM     10  H   UNL     1      -1.669  -0.489  -0.948  0.00  0.00    -0.086 HD
BRANCH   8  12
ATOM     11  C   UNL     1       0.516   0.893  -0.407  0.00  0.00    -0.017 C 
ATOM     12  C   UNL     1       0.278  -0.618  -0.348  0.00  0.00    -0.086 C 
ENDBRANCH   8  12
ENDBRANCH   1   8
BRANCH   7  13
ATOM     13  C   UNL     1      -3.619  -1.639  -0.997  0.00  0.00    -0.077 C 
BRANCH  13  14
ATOM     14  N   UNL     1      -3.185  -1.914  -2.373  0.00  0.00    +0.382 N 
ATOM     15  C   UNL     1      -3.608  -3.267  -2.756  0.00  0.00    -0.078 C 
ATOM     16  C   UNL     1      -3.089  -3.589  -4.159  0.00  0.00    -0.016 C 
ATOM     17  C   UNL     1      -3.658  -2.573  -5.154  0.00  0.00    -0.017 C 
ATOM     18  C   UNL     1      -3.274  -1.161  -4.703  0.00  0.00    -0.012 C 
ATOM     19  C   UNL     1      -3.786  -0.929  -3.280  0.00  0.00    -0.071 C 
ATOM     20  C   UNL     1      -3.404   0.481  -2.826  0.00  0.00    -0.013 C 
ATOM     21  C   UNL     1      -3.083  -2.842  -6.546  0.00  0.00    +0.007 C 
ATOM     22  H   UNL     1      -2.180  -1.850  -2.427  0.00  0.00    -0.081 HD
ENDBRANCH  13  14
ENDBRANCH   7  13
TORSDOF 4
