REMARK  Name = ZINC62218035
REMARK  6 active torsions:
REMARK  status: ('A' for Active; 'I' for Inactive)
REMARK    1  A    between atoms: C_1  and  C_2
REMARK    2  A    between atoms: C_2  and  C_3
REMARK    3  A    between atoms: C_8  and  N_9
REMARK    4  A    between atoms: C_10  and  C_16
REMARK    5  A    between atoms: C_11  and  C_14
REMARK    6  A    between atoms: C_14  and  N_15
REMARK                            x       y       z     vdW  Elec       q    Type
REMARK                         _______ _______ _______ _____ _____    ______ ____
ROOT
ATOM      1  N   UNL     1       2.843  -0.255  -0.122  0.00  0.00    -0.212 N 
ATOM      2  C   UNL     1       4.192  -0.410   0.063  0.00  0.00    +0.096 A 
ATOM      3  C   UNL     1       4.462   0.035   1.323  0.00  0.00    +0.074 A 
ATOM      4  N   UNL     1       3.329   0.444   1.887  0.00  0.00    -0.135 NA
ATOM      5  N   UNL     1       2.346   0.298   1.068  0.00  0.00    -0.060 NA
ENDROOT
BRANCH   2   6
ATOM      6  C   UNL     1       5.163  -0.953  -0.913  0.00  0.00    +0.002 A 
ATOM      7  C   UNL     1       5.987  -2.022  -0.559  0.00  0.00    +0.011 A 
ATOM      8  C   UNL     1       6.891  -2.524  -1.473  0.00  0.00    +0.020 A 
ATOM      9  C   UNL     1       6.981  -1.969  -2.738  0.00  0.00    +0.041 A 
ATOM     10  C   UNL     1       6.166  -0.908  -3.094  0.00  0.00    +0.020 A 
ATOM     11  C   UNL     1       5.255  -0.401  -2.191  0.00  0.00    +0.011 A 
ATOM     12 CL   UNL     1       8.121  -2.606  -3.883  0.00  0.00    -0.084 Cl
ENDBRANCH   2   6
BRANCH   1  18
ATOM     13  C   UNL     1       1.237   0.350  -1.823  0.00  0.00    -0.022 A 
ATOM     14  C   UNL     1       0.518   0.031  -2.959  0.00  0.00    +0.006 A 
ATOM     15  C   UNL     1       0.662  -1.214  -3.542  0.00  0.00    +0.000 A 
ATOM     16  C   UNL     1       1.525  -2.144  -2.991  0.00  0.00    +0.002 A 
ATOM     17  C   UNL     1       2.246  -1.831  -1.855  0.00  0.00    +0.028 A 
ATOM     18  C   UNL     1       2.108  -0.578  -1.271  0.00  0.00    +0.071 A 
BRANCH  13  20
ATOM     19  C   UNL     1       2.173   2.644  -1.708  0.00  0.00    +0.009 C 
ATOM     20  C   UNL     1       1.079   1.708  -1.188  0.00  0.00    +0.034 C 
ENDBRANCH  13  20
ENDBRANCH   1  18
BRANCH   3  21
ATOM     21  C   UNL     1       5.822   0.057   1.972  0.00  0.00    -0.026 C 
BRANCH  21  22
ATOM     22  N   UNL     1       6.431   1.381   1.786  0.00  0.00    +0.382 N 
ATOM     23  H   UNL     1       6.600   1.539   0.804  0.00  0.00    -0.090 HD
ATOM     24  H   UNL     1       5.807   2.091   2.139  0.00  0.00    -0.090 HD
ATOM     25  H   UNL     1       7.305   1.423   2.289  0.00  0.00    -0.090 HD
ENDBRANCH  21  22
ENDBRANCH   3  21
TORSDOF 5
