REMARK  Name = ZINC08769878
REMARK  9 active torsions:
REMARK  status: ('A' for Active; 'I' for Inactive)
REMARK    1  A    between atoms: C_1  and  C_2
REMARK    2  A    between atoms: C_5  and  N_8
REMARK    3  A    between atoms: C_11  and  C_17
REMARK    4  A    between atoms: C_12  and  O_16
REMARK    5  A    between atoms: C_14  and  O_15
REMARK    6  A    between atoms: C_21  and  O_29
REMARK    7  A    between atoms: C_22  and  O_27
REMARK    8  A    between atoms: O_27  and  C_28
REMARK    9  A    between atoms: O_29  and  C_30
REMARK                            x       y       z     vdW  Elec       q    Type
REMARK                         _______ _______ _______ _____ _____    ______ ____
ROOT
ATOM      1  N   UNL     1       1.193  -0.638  -0.013  0.00  0.00    -0.231 N 
ATOM      2  C   UNL     1       0.221  -0.001   0.673  0.00  0.00    +0.267 A 
ATOM      3  O   UNL     1      -0.622  -0.633   1.289  0.00  0.00    -0.267 OA
ATOM      4  C   UNL     1       0.197   1.399   0.665  0.00  0.00    +0.069 A 
ATOM      5  C   UNL     1       1.171   2.077  -0.047  0.00  0.00    +0.224 A 
ATOM      6  N   UNL     1       2.110   1.391  -0.708  0.00  0.00    -0.161 NA
ATOM      7  C   UNL     1       2.127   0.077  -0.696  0.00  0.00    +0.306 A 
ENDROOT
BRANCH   4   8
ATOM      8  C   UNL     1      -0.874   2.153   1.411  0.00  0.00    +0.001 C 
ATOM      9  C   UNL     1      -2.212   1.872   0.779  0.00  0.00    -0.050 A 
ATOM     10  C   UNL     1      -2.295   1.853  -0.606  0.00  0.00    +0.052 A 
ATOM     11  C   UNL     1      -3.503   1.603  -1.232  0.00  0.00    +0.162 A 
ATOM     12  C   UNL     1      -4.642   1.370  -0.465  0.00  0.00    +0.162 A 
ATOM     13  C   UNL     1      -4.554   1.389   0.915  0.00  0.00    +0.053 A 
ATOM     14  C   UNL     1      -3.339   1.638   1.538  0.00  0.00    -0.044 A 
ATOM     15  C   UNL     1      -3.293   1.639   3.044  0.00  0.00    +0.016 C 
ATOM     16  C   UNL     1      -2.015   2.326   3.527  0.00  0.00    -0.077 C 
ATOM     17  N   UNL     1      -0.867   1.730   2.818  0.00  0.00    +0.387 N 
ATOM     18  H   UNL     1       0.005   2.040   3.262  0.00  0.00    -0.085 HD
ATOM     19  H   UNL     1      -0.931   0.707   2.866  0.00  0.00    -0.085 HD
BRANCH  12  20
ATOM     20  O   UNL     1      -5.835   1.125  -1.071  0.00  0.00    -0.491 OA
ATOM     21  C   UNL     1      -6.959   0.895  -0.219  0.00  0.00    +0.277 C 
ENDBRANCH  12  20
BRANCH  11  22
ATOM     22  O   UNL     1      -3.579   1.585  -2.589  0.00  0.00    -0.491 OA
ATOM     23  C   UNL     1      -2.369   1.832  -3.309  0.00  0.00    +0.277 C 
ENDBRANCH  11  22
ENDBRANCH   4   8
BRANCH   1  28
ATOM     24  C   UNL     1       1.382  -6.310  -0.046  0.00  0.00    +0.044 C 
ATOM     25  C   UNL     1       1.332  -4.804  -0.037  0.00  0.00    -0.050 A 
ATOM     26  C   UNL     1       2.005  -4.097   0.942  0.00  0.00    +0.005 A 
ATOM     27  C   UNL     1       1.961  -2.716   0.953  0.00  0.00    +0.026 A 
ATOM     28  C   UNL     1       1.240  -2.039  -0.021  0.00  0.00    +0.054 A 
ATOM     29  C   UNL     1       0.561  -2.752  -1.000  0.00  0.00    +0.026 A 
ATOM     30  C   UNL     1       0.613  -4.132  -1.008  0.00  0.00    +0.005 A 
ENDBRANCH   1  28
BRANCH   7  31
ATOM     31  O   UNL     1       3.092  -0.577  -1.376  0.00  0.00    -0.479 OA
ATOM     32  H   UNL     1       3.738  -0.035  -1.850  0.00  0.00    +0.295 HD
ENDBRANCH   7  31
BRANCH   5  33
ATOM     33  O   UNL     1       1.174   3.430  -0.074  0.00  0.00    -0.492 OA
ATOM     34  H   UNL     1       1.893   3.811  -0.597  0.00  0.00    +0.294 HD
ENDBRANCH   5  33
TORSDOF 6
