REMARK  Name = ZINC65527492
REMARK  8 active torsions:
REMARK  status: ('A' for Active; 'I' for Inactive)
REMARK    1  A    between atoms: C_1  and  N_2
REMARK    2  A    between atoms: C_9  and  C_11
REMARK    3  A    between atoms: N_13  and  C_14
REMARK    4  A    between atoms: C_14  and  C_15
REMARK    5  A    between atoms: C_15  and  C_16
REMARK    6  A    between atoms: N_18  and  C_19
REMARK    7  A    between atoms: C_24  and  O_25
REMARK    8  A    between atoms: O_25  and  C_26
REMARK                            x       y       z     vdW  Elec       q    Type
REMARK                         _______ _______ _______ _____ _____    ______ ____
ROOT
ATOM      1  C   UNL     1       0.209  -3.045   1.343  0.00  0.00    +0.219 C 
ATOM      2  O   UNL     1      -0.410  -3.757   0.582  0.00  0.00    -0.275 OA
ATOM      3  N   UNL     1       0.047  -3.178   2.674  0.00  0.00    -0.314 N 
ATOM      4  H   UNL     1       0.542  -2.608   3.283  0.00  0.00    +0.149 HD
ENDROOT
BRANCH   1  12
ATOM      5  C   UNL     1       0.051   1.430  -0.005  0.00  0.00    +0.104 C 
ATOM      6  N   UNL     1       0.060  -0.039  -0.009  0.00  0.00    -0.304 NA
ATOM      7  C   UNL     1       0.843  -0.564  -1.156  0.00  0.00    +0.086 C 
ATOM      8  C   UNL     1       1.214  -2.006  -0.751  0.00  0.00    +0.000 C 
ATOM      9  C   UNL     1       2.692  -2.260  -1.111  0.00  0.00    -0.077 C 
ATOM     10  N   UNL     1       3.256  -2.954   0.074  0.00  0.00    +0.380 N 
ATOM     11  C   UNL     1       2.636  -2.260   1.232  0.00  0.00    -0.065 C 
ATOM     12  C   UNL     1       1.161  -2.010   0.800  0.00  0.00    +0.047 C 
ATOM     13  C   UNL     1       0.764  -0.570   1.187  0.00  0.00    +0.098 C 
ATOM     14  H   UNL     1       2.997  -3.929   0.068  0.00  0.00    -0.086 HD
ATOM     15  H   UNL     1       4.259  -2.854   0.099  0.00  0.00    -0.086 HD
ENDBRANCH   1  12
BRANCH   3  16
ATOM     16  C   UNL     1      -0.879  -4.184   3.202  0.00  0.00    +0.113 C 
BRANCH  16  17
ATOM     17  C   UNL     1      -0.876  -4.128   4.731  0.00  0.00    +0.115 C 
BRANCH  17  18
ATOM     18  C   UNL     1      -1.828  -5.162   5.273  0.00  0.00    +0.219 C 
ATOM     19  O   UNL     1      -2.448  -5.875   4.512  0.00  0.00    -0.275 OA
ATOM     20  N   UNL     1      -1.990  -5.296   6.604  0.00  0.00    -0.283 N 
ATOM     21  H   UNL     1      -1.448  -4.772   7.214  0.00  0.00    +0.155 HD
BRANCH  20  22
ATOM     22  C   UNL     1      -2.943  -6.192   7.107  0.00  0.00    +0.076 A 
ATOM     23  C   UNL     1      -3.196  -7.383   6.443  0.00  0.00    +0.027 A 
ATOM     24  C   UNL     1      -4.136  -8.266   6.941  0.00  0.00    +0.002 A 
ATOM     25  C   UNL     1      -4.826  -7.965   8.101  0.00  0.00    +0.004 A 
ATOM     26  C   UNL     1      -4.579  -6.779   8.769  0.00  0.00    +0.047 A 
ATOM     27  C   UNL     1      -3.634  -5.892   8.279  0.00  0.00    +0.141 A 
BRANCH  27  28
ATOM     28  O   UNL     1      -3.386  -4.729   8.938  0.00  0.00    -0.493 OA
ATOM     29  C   UNL     1      -4.133  -4.487  10.132  0.00  0.00    +0.277 C 
ENDBRANCH  27  28
ENDBRANCH  20  22
ENDBRANCH  17  18
ENDBRANCH  16  17
ENDBRANCH   3  16
TORSDOF 6
