REMARK  Name = ZINC37083279
REMARK  8 active torsions:
REMARK  status: ('A' for Active; 'I' for Inactive)
REMARK    1  A    between atoms: C_1  and  C_2
REMARK    2  A    between atoms: C_2  and  C_3
REMARK    3  A    between atoms: N_9  and  C_10
REMARK    4  A    between atoms: C_13  and  C_20
REMARK    5  A    between atoms: C_17  and  N_19
REMARK    6  A    between atoms: C_20  and  C_21
REMARK    7  A    between atoms: C_20  and  C_22
REMARK    8  A    between atoms: C_20  and  C_23
REMARK                            x       y       z     vdW  Elec       q    Type
REMARK                         _______ _______ _______ _____ _____    ______ ____
ROOT
ATOM      1  C   UNL     1      -0.505   2.489  -2.541  0.00  0.00    -0.083 C 
ATOM      2  C   UNL     1      -1.455   3.574  -2.033  0.00  0.00    -0.013 C 
ATOM      3  C   UNL     1      -1.404   4.779  -2.975  0.00  0.00    -0.007 C 
ATOM      4  C   UNL     1      -1.829   4.346  -4.379  0.00  0.00    +0.002 C 
ATOM      5  C   UNL     1      -0.878   3.261  -4.888  0.00  0.00    -0.018 C 
ATOM      6  C   UNL     1      -0.929   2.056  -3.946  0.00  0.00    -0.089 C 
ENDROOT
BRANCH   1  12
ATOM      7  C   UNL     1       0.775   0.713  -1.564  0.00  0.00    -0.069 C 
ATOM      8  C   UNL     1       0.749  -0.442  -0.561  0.00  0.00    -0.015 C 
ATOM      9  C   UNL     1      -0.277  -1.484  -1.017  0.00  0.00    -0.003 C 
ATOM     10  C   UNL     1      -1.645  -0.810  -1.162  0.00  0.00    -0.019 C 
ATOM     11  C   UNL     1      -1.530   0.359  -2.143  0.00  0.00    -0.078 C 
ATOM     12  N   UNL     1      -0.554   1.332  -1.637  0.00  0.00    +0.382 N 
ATOM     13  H   UNL     1      -0.832   1.639  -0.717  0.00  0.00    -0.081 HD
BRANCH   7  15
ATOM     14  C   UNL     1       3.186   1.114  -1.047  0.00  0.00    +0.002 C 
ATOM     15  C   UNL     1       1.799   1.756  -1.113  0.00  0.00    -0.019 C 
ENDBRANCH   7  15
ENDBRANCH   1  12
BRANCH   6  16
ATOM     16  N   UNL     1      -2.299   1.527  -3.902  0.00  0.00    +0.379 N 
ATOM     17  H   UNL     1      -2.787   1.922  -3.113  0.00  0.00    -0.090 HD
ATOM     18  H   UNL     1      -2.782   1.772  -4.753  0.00  0.00    -0.090 HD
ATOM     19  H   UNL     1      -2.268   0.522  -3.810  0.00  0.00    -0.090 HD
ENDBRANCH   6  16
BRANCH   3  20
ATOM     20  C   UNL     1      -2.354   5.865  -2.466  0.00  0.00    -0.035 C 
ATOM     21  C   UNL     1      -1.973   6.247  -1.034  0.00  0.00    +0.011 C 
ATOM     22  C   UNL     1      -2.250   7.097  -3.367  0.00  0.00    +0.011 C 
ATOM     23  C   UNL     1      -3.790   5.337  -2.488  0.00  0.00    +0.011 C 
ENDBRANCH   3  20
TORSDOF 4
