REMARK  Name = ZINC16022190
REMARK  6 active torsions:
REMARK  status: ('A' for Active; 'I' for Inactive)
REMARK    1  A    between atoms: C_1  and  C_2
REMARK    2  A    between atoms: C_2  and  C_3
REMARK    3  A    between atoms: C_3  and  C_5
REMARK    4  A    between atoms: C_3  and  N_6
REMARK    5  A    between atoms: C_11  and  C_29
REMARK    6  A    between atoms: C_29  and  C_30
REMARK                            x       y       z     vdW  Elec       q    Type
REMARK                         _______ _______ _______ _____ _____    ______ ____
ROOT
ATOM      1  N   UNL     1      -2.082  -0.162   1.273  0.00  0.00    -0.239 N 
ATOM      2  C   UNL     1      -1.617  -0.547   2.467  0.00  0.00    +0.227 C 
ATOM      3  O   UNL     1      -0.631  -1.230   2.648  0.00  0.00    -0.275 OA
ATOM      4  C   UNL     1      -2.512   0.001   3.555  0.00  0.00    +0.107 C 
ATOM      5  C   UNL     1      -3.265  -1.167   4.227  0.00  0.00    +0.072 C 
ATOM      6  N   UNL     1      -4.677  -0.709   4.317  0.00  0.00    -0.295 NA
ATOM      7  C   UNL     1      -4.903   0.018   3.054  0.00  0.00    +0.136 C 
ATOM      8  C   UNL     1      -3.593   0.791   2.766  0.00  0.00    +0.122 C 
ATOM      9  C   UNL     1      -3.183   0.596   1.324  0.00  0.00    +0.228 C 
ATOM     10  O   UNL     1      -3.764   1.052   0.363  0.00  0.00    -0.275 OA
ATOM     11  C   UNL     1      -6.076   0.952   3.160  0.00  0.00    +0.005 A 
ATOM     12  C   UNL     1      -6.366   2.020   3.978  0.00  0.00    +0.008 A 
ATOM     13  C   UNL     1      -7.561   2.701   3.832  0.00  0.00    +0.002 A 
ATOM     14  C   UNL     1      -8.463   2.306   2.861  0.00  0.00    +0.022 A 
ATOM     15  C   UNL     1      -8.178   1.235   2.038  0.00  0.00    +0.062 A 
ATOM     16  C   UNL     1      -6.975   0.544   2.180  0.00  0.00    +0.057 A 
ATOM     17  N   UNL     1      -6.465  -0.552   1.481  0.00  0.00    -0.282 N 
ATOM     18  C   UNL     1      -5.252  -0.924   1.934  0.00  0.00    +0.243 C 
ATOM     19  O   UNL     1      -4.573  -1.839   1.520  0.00  0.00    -0.273 OA
ATOM     20 CL   UNL     1      -9.319   0.748   0.825  0.00  0.00    -0.082 Cl
ATOM     21  H   UNL     1      -5.307  -1.493   4.402  0.00  0.00    +0.124 HD
ATOM     22  H   UNL     1      -6.930  -0.995   0.753  0.00  0.00    +0.155 HD
ENDROOT
BRANCH   1  23
ATOM     23  C   UNL     1      -1.433  -0.534   0.013  0.00  0.00    +0.081 C 
ATOM     24  C   UNL     1      -1.416  -2.058  -0.121  0.00  0.00    +0.028 C 
BRANCH  23  26
ATOM     25  C   UNL     1      -0.019   1.526   0.010  0.00  0.00    +0.006 C 
ATOM     26  C   UNL     1       0.002  -0.004   0.002  0.00  0.00    +0.019 C 
ENDBRANCH  23  26
ENDBRANCH   1  23
BRANCH   5  27
ATOM     27  C   UNL     1      -2.699  -1.434   5.623  0.00  0.00    +0.054 C 
BRANCH  27  28
ATOM     28  C   UNL     1      -3.363  -2.653   6.210  0.00  0.00    -0.046 A 
ATOM     29  C   UNL     1      -4.521  -2.518   6.952  0.00  0.00    +0.004 A 
ATOM     30  C   UNL     1      -5.131  -3.636   7.491  0.00  0.00    +0.000 A 
ATOM     31  C   UNL     1      -4.582  -4.889   7.287  0.00  0.00    +0.000 A 
ATOM     32  C   UNL     1      -3.424  -5.023   6.544  0.00  0.00    +0.000 A 
ATOM     33  C   UNL     1      -2.817  -3.905   6.001  0.00  0.00    +0.004 A 
ENDBRANCH  27  28
ENDBRANCH   5  27
TORSDOF 4
