REMARK  Name = ZINC63240587
REMARK  11 active torsions:
REMARK  status: ('A' for Active; 'I' for Inactive)
REMARK    1  A    between atoms: C_1  and  C_2
REMARK    2  A    between atoms: C_4  and  C_25
REMARK    3  A    between atoms: C_5  and  S_21
REMARK    4  A    between atoms: C_7  and  C_8
REMARK    5  A    between atoms: N_10  and  C_11
REMARK    6  A    between atoms: C_11  and  C_12
REMARK    7  A    between atoms: C_12  and  C_13
REMARK    8  A    between atoms: C_12  and  N_18
REMARK    9  A    between atoms: N_18  and  C_19
REMARK   10  A    between atoms: N_18  and  C_20
REMARK   11  A    between atoms: S_21  and  N_24
REMARK                            x       y       z     vdW  Elec       q    Type
REMARK                         _______ _______ _______ _____ _____    ______ ____
ROOT
ATOM      1  C   UNL     1       0.109  -0.081   2.501  0.00  0.00    +0.244 C 
ATOM      2  O   UNL     1       0.056   1.134   2.487  0.00  0.00    -0.270 OA
ATOM      3  N   UNL     1       0.366  -0.730   3.654  0.00  0.00    -0.313 N 
ATOM      4  H   UNL     1       0.407  -1.699   3.665  0.00  0.00    +0.149 HD
ENDROOT
BRANCH   1  11
ATOM      5  C   UNL     1      -0.288   1.333   0.008  0.00  0.00    +0.044 C 
ATOM      6  C   UNL     1      -0.302  -0.174   0.046  0.00  0.00    -0.038 A 
ATOM      7  C   UNL     1      -0.499  -0.893  -1.115  0.00  0.00    +0.009 A 
ATOM      8  C   UNL     1      -0.512  -2.276  -1.082  0.00  0.00    -0.024 A 
ATOM      9  C   UNL     1      -0.328  -2.947   0.114  0.00  0.00    +0.109 A 
ATOM     10  C   UNL     1      -0.129  -2.240   1.282  0.00  0.00    +0.042 A 
ATOM     11  C   UNL     1      -0.110  -0.845   1.255  0.00  0.00    +0.041 A 
ATOM     12  C   UNL     1      -0.729  -3.055  -2.353  0.00  0.00    +0.046 C 
BRANCH   9  13
ATOM     13  S   UNL     1      -0.347  -4.709   0.146  0.00  0.00    +0.056 S 
ATOM     14  O   UNL     1       0.517  -5.143  -0.895  0.00  0.00    -0.153 OA
ATOM     15  O   UNL     1      -0.160  -5.093   1.501  0.00  0.00    -0.153 OA
BRANCH  13  16
ATOM     16  N   UNL     1      -1.874  -5.189  -0.276  0.00  0.00    -0.204 NA
ATOM     17  H   UNL     1      -2.552  -4.526  -0.481  0.00  0.00    +0.144 HD
ATOM     18  H   UNL     1      -2.092  -6.134  -0.317  0.00  0.00    +0.144 HD
ENDBRANCH  13  16
ENDBRANCH   9  13
ENDBRANCH   1  11
BRANCH   3  19
ATOM     19  C   UNL     1       0.582   0.027   4.889  0.00  0.00    +0.094 C 
BRANCH  19  20
ATOM     20  C   UNL     1       0.972  -0.934   6.014  0.00  0.00    -0.014 C 
BRANCH  20  21
ATOM     21  C   UNL     1      -0.179  -1.862   6.305  0.00  0.00    -0.022 A 
ATOM     22  C   UNL     1      -0.365  -3.143   5.904  0.00  0.00    +0.009 A 
ATOM     23  C   UNL     1      -1.511  -3.809   6.296  0.00  0.00    +0.008 A 
ATOM     24  C   UNL     1      -2.416  -3.160   7.070  0.00  0.00    +0.045 A 
ATOM     25  S   UNL     1      -1.649  -1.561   7.273  0.00  0.00    -0.103 S 
ENDBRANCH  20  21
BRANCH  20  26
ATOM     26  N   UNL     1       1.298  -0.165   7.223  0.00  0.00    +0.382 N 
ATOM     27  C   UNL     1       1.761  -1.080   8.275  0.00  0.00    -0.096 C 
ATOM     28  C   UNL     1       2.359   0.804   6.916  0.00  0.00    -0.096 C 
ATOM     29  H   UNL     1       0.476   0.326   7.542  0.00  0.00    -0.082 HD
ENDBRANCH  20  26
ENDBRANCH  19  20
ENDBRANCH   3  19
TORSDOF 7
