REMARK  Name = ZINC64874625
REMARK  2 active torsions:
REMARK  status: ('A' for Active; 'I' for Inactive)
REMARK    1  A    between atoms: C_1  and  O_2
REMARK    2  A    between atoms: O_2  and  C_3
REMARK                            x       y       z     vdW  Elec       q    Type
REMARK                         _______ _______ _______ _____ _____    ______ ____
ROOT
ATOM      1  C   UNL     1       0.606  -0.607  -1.056  0.00  0.00    +0.139 A 
ATOM      2  C   UNL     1       1.167   0.161  -2.052  0.00  0.00    +0.059 A 
ATOM      3  C   UNL     1       1.789  -0.465  -3.140  0.00  0.00    +0.025 A 
ATOM      4  C   UNL     1       1.833  -1.880  -3.207  0.00  0.00    +0.074 A 
ATOM      5  C   UNL     1       1.253  -2.632  -2.174  0.00  0.00    +0.052 A 
ATOM      6  C   UNL     1       0.658  -2.002  -1.122  0.00  0.00    +0.085 A 
ATOM      7 CL   UNL     1      -0.051  -2.946   0.150  0.00  0.00    -0.080 Cl
ATOM      8  N   UNL     1       2.422  -2.490  -4.248  0.00  0.00    -0.254 NA
ATOM      9  C   UNL     1       2.967  -1.821  -5.233  0.00  0.00    +0.126 A 
ATOM     10  C   UNL     1       2.966  -0.420  -5.248  0.00  0.00    +0.076 A 
ATOM     11  C   UNL     1       2.381   0.279  -4.181  0.00  0.00    +0.050 A 
ATOM     12  N   UNL     1       2.426   1.655  -4.169  0.00  0.00    -0.341 N 
ATOM     13  C   UNL     1       3.710   2.314  -3.936  0.00  0.00    +0.120 C 
ATOM     14  C   UNL     1       4.822   1.640  -4.731  0.00  0.00    +0.123 C 
ATOM     15  N   UNL     1       4.392   1.370  -6.103  0.00  0.00    -0.310 N 
ATOM     16  C   UNL     1       3.551   0.340  -6.362  0.00  0.00    +0.247 C 
ATOM     17  O   UNL     1       3.281   0.046  -7.511  0.00  0.00    -0.270 OA
ATOM     18  H   UNL     1       1.621   2.177  -4.313  0.00  0.00    +0.146 HD
ATOM     19  H   UNL     1       4.709   1.929  -6.829  0.00  0.00    +0.149 HD
ENDROOT
BRANCH   1  21
ATOM     20  C   UNL     1      -0.017   1.425   0.010  0.00  0.00    +0.277 C 
ATOM     21  O   UNL     1       0.002  -0.004   0.002  0.00  0.00    -0.494 OA
ENDBRANCH   1  21
TORSDOF 1
