REMARK  Name = ZINC63032642
REMARK  8 active torsions:
REMARK  status: ('A' for Active; 'I' for Inactive)
REMARK    1  A    between atoms: C_1  and  C_2
REMARK    2  A    between atoms: C_2  and  N_3
REMARK    3  A    between atoms: N_3  and  C_4
REMARK    4  A    between atoms: C_4  and  C_6
REMARK    5  A    between atoms: C_4  and  C_7
REMARK    6  A    between atoms: C_7  and  C_9
REMARK    7  A    between atoms: C_7  and  C_10
REMARK    8  A    between atoms: C_15  and  N_16
REMARK                            x       y       z     vdW  Elec       q    Type
REMARK                         _______ _______ _______ _____ _____    ______ ____
ROOT
ATOM      1  C   UNL     1       0.913  -4.142  -2.158  0.00  0.00    -0.016 A 
ATOM      2  C   UNL     1       1.530  -4.833  -1.132  0.00  0.00    +0.007 A 
ATOM      3  C   UNL     1       2.189  -6.019  -1.396  0.00  0.00    +0.016 A 
ATOM      4  C   UNL     1       2.230  -6.515  -2.687  0.00  0.00    +0.020 A 
ATOM      5  C   UNL     1       1.612  -5.823  -3.713  0.00  0.00    +0.048 A 
ATOM      6  C   UNL     1       0.949  -4.639  -3.447  0.00  0.00    +0.131 A 
ATOM      7 BR   UNL     1       3.131  -8.137  -3.049  0.00  0.00    -0.050 Br
ENDROOT
BRANCH   6   8
ATOM      8  N   UNL     1       0.283  -3.902  -4.544  0.00  0.00    +0.057 N 
ATOM      9  O   UNL     1      -0.323  -4.506  -5.398  0.00  0.00    -0.126 OA
ATOM     10  O   UNL     1       0.344  -2.695  -4.585  0.00  0.00    -0.126 OA
ENDBRANCH   6   8
BRANCH   1  11
ATOM     11  C   UNL     1       0.194  -2.849  -1.869  0.00  0.00    +0.004 C 
ATOM     12  C   UNL     1       1.202  -1.801  -1.393  0.00  0.00    +0.011 C 
BRANCH  11  13
ATOM     13  C   UNL     1      -0.854  -3.080  -0.780  0.00  0.00    -0.068 C 
ATOM     14  C   UNL     1      -1.862  -4.128  -1.256  0.00  0.00    -0.013 C 
BRANCH  13  15
ATOM     15  N   UNL     1      -1.555  -1.820  -0.498  0.00  0.00    +0.381 N 
ATOM     16  H   UNL     1      -2.076  -1.535  -1.314  0.00  0.00    -0.086 HD
ATOM     17  H   UNL     1      -0.881  -1.106  -0.264  0.00  0.00    -0.086 HD
BRANCH  15  19
ATOM     18  C   UNL     1      -3.206  -0.700   0.922  0.00  0.00    -0.017 C 
ATOM     19  C   UNL     1      -2.477  -2.013   0.629  0.00  0.00    -0.086 C 
ENDBRANCH  15  19
ENDBRANCH  13  15
ENDBRANCH  11  13
ENDBRANCH   1  11
TORSDOF 5
