REMARK  Name = ZINC43410635
REMARK  3 active torsions:
REMARK  status: ('A' for Active; 'I' for Inactive)
REMARK    1  A    between atoms: C_1  and  C_2
REMARK    2  A    between atoms: C_9  and  C_18
REMARK    3  A    between atoms: N_19  and  O_20
REMARK                            x       y       z     vdW  Elec       q    Type
REMARK                         _______ _______ _______ _____ _____    ______ ____
ROOT
ATOM      1  C   UNL     1      -1.142  -1.887   0.406  0.00  0.00    +0.028 C 
ATOM      2  C   UNL     1       0.378  -1.718   0.443  0.00  0.00    +0.072 C 
ATOM      3  C   UNL     1       0.938  -1.678  -0.994  0.00  0.00    +0.024 C 
ATOM      4  C   UNL     1       1.075  -0.158  -1.272  0.00  0.00    +0.021 C 
ATOM      5  C   UNL     1       1.489   0.377   0.121  0.00  0.00    +0.107 C 
ATOM      6  N   UNL     1       0.724  -0.441   1.085  0.00  0.00    -0.313 N 
ATOM      7  C   UNL     1       0.385  -0.068   2.376  0.00  0.00    +0.110 A 
ATOM      8  C   UNL     1       1.220  -0.422   3.448  0.00  0.00    +0.056 A 
ATOM      9  C   UNL     1       0.848  -0.036   4.735  0.00  0.00    +0.020 A 
ATOM     10  C   UNL     1      -0.328   0.686   4.908  0.00  0.00    -0.027 A 
ATOM     11  C   UNL     1      -1.094   1.004   3.809  0.00  0.00    +0.021 A 
ATOM     12  N   UNL     1      -0.717   0.624   2.593  0.00  0.00    -0.346 N 
ATOM     13  C   UNL     1      -2.371   1.799   3.920  0.00  0.00    +0.053 C 
ATOM     14  C   UNL     1      -2.889   1.786   5.356  0.00  0.00    +0.006 C 
ATOM     15  C   UNL     1      -1.745   2.204   6.288  0.00  0.00    +0.005 C 
ATOM     16  C   UNL     1      -0.708   1.082   6.309  0.00  0.00    +0.037 C 
ATOM     17  H   UNL     1      -1.276   0.861   1.836  0.00  0.00    +0.167 HD
ENDROOT
BRANCH   8  18
ATOM     18  C   UNL     1       2.463  -1.188   3.218  0.00  0.00    +0.166 C 
ATOM     19  N   UNL     1       2.850  -1.451   2.003  0.00  0.00    -0.071 NA
ATOM     20  N   UNL     1       3.217  -1.625   4.294  0.00  0.00    -0.340 N 
ATOM     21  H   UNL     1       2.929  -1.429   5.199  0.00  0.00    +0.144 HD
ATOM     22  H   UNL     1       4.032  -2.127   4.143  0.00  0.00    +0.144 HD
BRANCH  19  23
ATOM     23  O   UNL     1       4.095  -2.086   1.778  0.00  0.00    -0.408 OA
ATOM     24  H   UNL     1       4.295  -2.240   0.845  0.00  0.00    +0.328 HD
ENDBRANCH  19  23
ENDBRANCH   8  18
TORSDOF 2
