REMARK  Name = ZINC62010798
REMARK  9 active torsions:
REMARK  status: ('A' for Active; 'I' for Inactive)
REMARK    1  A    between atoms: C_1  and  N_2
REMARK    2  A    between atoms: N_2  and  C_3
REMARK    3  A    between atoms: N_2  and  C_19
REMARK    4  A    between atoms: C_3  and  C_4
REMARK    5  A    between atoms: C_4  and  N_5
REMARK    6  A    between atoms: N_5  and  S_6
REMARK    7  A    between atoms: S_6  and  C_9
REMARK    8  A    between atoms: C_10  and  N_17
REMARK    9  A    between atoms: N_17  and  N_18
REMARK                            x       y       z     vdW  Elec       q    Type
REMARK                         _______ _______ _______ _____ _____    ______ ____
ROOT
ATOM      1  S   UNL     1      -4.277  -0.692   2.759  0.00  0.00    +0.078 S 
ATOM      2  O   UNL     1      -5.566  -1.197   2.440  0.00  0.00    -0.151 OA
ATOM      3  O   UNL     1      -3.429  -1.316   3.713  0.00  0.00    -0.151 OA
ENDROOT
BRANCH   1   4
ATOM      4  C   UNL     1      -4.507   0.969   3.300  0.00  0.00    +0.222 A 
ATOM      5  C   UNL     1      -3.674   1.671   4.096  0.00  0.00    +0.179 A 
ATOM      6  N   UNL     1      -4.196   2.895   4.279  0.00  0.00    -0.203 NA
ATOM      7  C   UNL     1      -5.321   2.979   3.626  0.00  0.00    +0.181 A 
ATOM      8  N   UNL     1      -5.582   1.802   2.977  0.00  0.00    -0.276 N 
ATOM      9  C   UNL     1      -6.741   1.741   2.235  0.00  0.00    +0.102 A 
ATOM     10  C   UNL     1      -7.559   2.791   2.160  0.00  0.00    +0.067 A 
ATOM     11  S   UNL     1      -6.718   3.987   3.186  0.00  0.00    -0.058 S 
BRANCH   5  12
ATOM     12  N   UNL     1      -2.468   1.202   4.641  0.00  0.00    -0.265 N 
ATOM     13  H   UNL     1      -2.170   0.298   4.453  0.00  0.00    +0.168 HD
BRANCH  12  14
ATOM     14  N   UNL     1      -1.715   2.018   5.436  0.00  0.00    -0.255 NA
ATOM     15  H   UNL     1      -2.254   2.361   6.216  0.00  0.00    +0.140 HD
ATOM     16  H   UNL     1      -0.881   1.546   5.752  0.00  0.00    +0.140 HD
ENDBRANCH  12  14
ENDBRANCH   5  12
ENDBRANCH   1   4
BRANCH   1  17
ATOM     17  N   UNL     1      -3.427  -0.631   1.339  0.00  0.00    -0.190 NA
ATOM     18  H   UNL     1      -3.840  -0.931   0.514  0.00  0.00    +0.148 HD
BRANCH  17  19
ATOM     19  C   UNL     1      -2.053  -0.124   1.328  0.00  0.00    +0.087 C 
BRANCH  19  20
ATOM     20  C   UNL     1      -1.376  -0.512   0.012  0.00  0.00    -0.062 C 
BRANCH  20  22
ATOM     21  C   UNL     1      -0.018   1.465   0.010  0.00  0.00    -0.096 C 
ATOM     22  N   UNL     1       0.002  -0.004   0.002  0.00  0.00    +0.381 N 
ATOM     23  H   UNL     1       0.490  -0.338   0.820  0.00  0.00    -0.082 HD
BRANCH  22  24
ATOM     24  C   UNL     1       0.690  -0.478  -1.207  0.00  0.00    -0.069 C 
ATOM     25  C   UNL     1       1.815  -1.498  -1.025  0.00  0.00    -0.017 C 
ATOM     26  C   UNL     1       2.146  -0.053  -1.403  0.00  0.00    -0.017 C 
ENDBRANCH  22  24
ENDBRANCH  20  22
ENDBRANCH  19  20
ENDBRANCH  17  19
ENDBRANCH   1  17
TORSDOF 8
