REMARK  Name = ZINC04616613
REMARK  4 active torsions:
REMARK  status: ('A' for Active; 'I' for Inactive)
REMARK    1  A    between atoms: C_1  and  C_2
REMARK    2  A    between atoms: N_4  and  C_5
REMARK    3  A    between atoms: C_5  and  C_13
REMARK    4  A    between atoms: C_6  and  C_7
REMARK                            x       y       z     vdW  Elec       q    Type
REMARK                         _______ _______ _______ _____ _____    ______ ____
ROOT
ATOM      1  C   UNL     1       0.207  -2.237  -1.377  0.00  0.00    +0.097 C 
ATOM      2  C   UNL     1      -0.205  -2.785  -2.543  0.00  0.00    +0.036 C 
ENDROOT
BRANCH   1   3
ATOM      3  C   UNL     1       0.345  -3.077  -0.178  0.00  0.00    +0.261 C 
ATOM      4  O   UNL     1       1.409  -3.613   0.071  0.00  0.00    -0.269 OA
ATOM      5  N   UNL     1      -0.707  -3.253   0.645  0.00  0.00    -0.292 N 
ATOM      6  C   UNL     1      -2.031  -2.706   0.311  0.00  0.00    +0.136 C 
ATOM      7  C   UNL     1      -3.068  -3.827   0.451  0.00  0.00    +0.179 C 
ATOM      8  O   UNL     1      -2.938  -4.430   1.740  0.00  0.00    -0.377 OA
ATOM      9  C   UNL     1      -1.674  -5.058   1.968  0.00  0.00    +0.179 C 
ATOM     10  C   UNL     1      -0.568  -4.005   1.903  0.00  0.00    +0.136 C 
ENDBRANCH   1   3
BRANCH   2  11
ATOM     11  C   UNL     1      -0.191  -1.985  -3.777  0.00  0.00    -0.023 A 
ATOM     12  C   UNL     1       0.616  -0.846  -3.867  0.00  0.00    +0.008 A 
ATOM     13  C   UNL     1       0.624  -0.102  -5.028  0.00  0.00    +0.001 A 
ATOM     14  C   UNL     1      -0.163  -0.479  -6.102  0.00  0.00    +0.000 A 
ATOM     15  C   UNL     1      -0.963  -1.606  -6.021  0.00  0.00    +0.001 A 
ATOM     16  C   UNL     1      -0.978  -2.364  -4.869  0.00  0.00    +0.008 A 
ENDBRANCH   2  11
BRANCH   1  20
ATOM     17  C   UNL     1       2.054   1.000  -0.852  0.00  0.00    +0.109 C 
ATOM     18  C   UNL     1       1.690  -0.462  -0.821  0.00  0.00    +0.214 C 
ATOM     19  O   UNL     1       2.464  -1.270  -0.353  0.00  0.00    -0.276 OA
ATOM     20  N   UNL     1       0.503  -0.872  -1.312  0.00  0.00    -0.282 N 
ATOM     21  H   UNL     1      -0.145  -0.220  -1.621  0.00  0.00    +0.155 HD
ENDBRANCH   1  20
TORSDOF 3
