REMARK  Name = ZINC37884199
REMARK  6 active torsions:
REMARK  status: ('A' for Active; 'I' for Inactive)
REMARK    1  A    between atoms: C_1  and  C_2
REMARK    2  A    between atoms: C_5  and  N_9
REMARK    3  A    between atoms: N_9  and  C_10
REMARK    4  A    between atoms: C_10  and  C_11
REMARK    5  A    between atoms: C_11  and  C_13
REMARK    6  A    between atoms: C_11  and  O_22
REMARK                            x       y       z     vdW  Elec       q    Type
REMARK                         _______ _______ _______ _____ _____    ______ ____
ROOT
ATOM      1  C   UNL     1       0.083  -6.399  -1.026  0.00  0.00    +0.162 C 
ENDROOT
BRANCH   1   2
ATOM      2  C   UNL     1       0.210  -7.142  -2.331  0.00  0.00    -0.014 A 
ATOM      3  C   UNL     1      -0.904  -7.330  -3.128  0.00  0.00    +0.010 A 
ATOM      4  C   UNL     1      -0.792  -8.011  -4.327  0.00  0.00    +0.050 A 
ATOM      5  C   UNL     1       0.437  -8.507  -4.731  0.00  0.00    +0.166 A 
ATOM      6  C   UNL     1       1.558  -8.318  -3.927  0.00  0.00    +0.167 A 
ATOM      7  C   UNL     1       1.440  -7.630  -2.730  0.00  0.00    +0.055 A 
ATOM      8  O   UNL     1       2.635  -8.893  -4.538  0.00  0.00    -0.453 OA
ATOM      9  C   UNL     1       2.085  -9.788  -5.523  0.00  0.00    +0.466 C 
ATOM     10  O   UNL     1       0.811  -9.201  -5.845  0.00  0.00    -0.453 OA
ENDBRANCH   1   2
BRANCH   1  11
ATOM     11  O   UNL     1      -1.130  -6.784  -0.375  0.00  0.00    -0.386 OA
ATOM     12  H   UNL     1      -1.928  -6.597  -0.888  0.00  0.00    +0.210 HD
ENDBRANCH   1  11
BRANCH   1  13
ATOM     13  C   UNL     1       0.061  -4.894  -1.296  0.00  0.00    +0.137 C 
BRANCH  13  14
ATOM     14  N   UNL     1       0.059  -4.169  -0.023  0.00  0.00    -0.340 N 
ATOM     15  H   UNL     1       0.069  -4.659   0.814  0.00  0.00    +0.146 HD
BRANCH  14  20
ATOM     16  C   UNL     1      -0.018   1.503   0.010  0.00  0.00    +0.044 C 
ATOM     17  C   UNL     1       0.002  -0.004   0.002  0.00  0.00    -0.049 A 
ATOM     18  C   UNL     1       0.006  -0.687  -1.200  0.00  0.00    +0.005 A 
ATOM     19  C   UNL     1       0.025  -2.068  -1.212  0.00  0.00    +0.024 A 
ATOM     20  C   UNL     1       0.040  -2.772  -0.015  0.00  0.00    +0.046 A 
ATOM     21  C   UNL     1       0.037  -2.082   1.192  0.00  0.00    +0.062 A 
ATOM     22  C   UNL     1       0.023  -0.700   1.197  0.00  0.00    +0.025 A 
ATOM     23 CL   UNL     1       0.056  -2.956   2.692  0.00  0.00    -0.082 Cl
ENDBRANCH  14  20
ENDBRANCH  13  14
ENDBRANCH   1  13
TORSDOF 5
