REMARK  Name = ZINC62957753
REMARK  5 active torsions:
REMARK  status: ('A' for Active; 'I' for Inactive)
REMARK    1  A    between atoms: C_1  and  C_2
REMARK    2  A    between atoms: C_2  and  C_3
REMARK    3  A    between atoms: C_2  and  N_4
REMARK    4  A    between atoms: N_4  and  C_5
REMARK    5  A    between atoms: C_5  and  C_6
REMARK                            x       y       z     vdW  Elec       q    Type
REMARK                         _______ _______ _______ _____ _____    ______ ____
ROOT
ATOM      1  C   UNL     1      -3.467  -0.641  -1.240  0.00  0.00    +0.047 A 
ATOM      2  C   UNL     1      -4.469   0.088  -0.614  0.00  0.00    +0.026 A 
ATOM      3  C   UNL     1      -5.751  -0.437  -0.612  0.00  0.00    +0.047 A 
ATOM      4  C   UNL     1      -5.955  -1.666  -1.239  0.00  0.00    +0.144 A 
ATOM      5  N   UNL     1      -4.934  -2.288  -1.810  0.00  0.00    -0.134 NA
ATOM      6  N   UNL     1      -3.750  -1.793  -1.813  0.00  0.00    -0.154 NA
ATOM      7  N   UNL     1      -7.223  -2.236  -1.264  0.00  0.00    -0.314 N 
ATOM      8  C   UNL     1      -7.410  -3.624  -1.708  0.00  0.00    +0.107 C 
ATOM      9  C   UNL     1      -8.455  -3.645  -2.829  0.00  0.00    +0.026 C 
ATOM     10  C   UNL     1      -9.722  -2.945  -2.355  0.00  0.00    -0.026 C 
ATOM     11  C   UNL     1     -10.802  -2.998  -3.457  0.00  0.00    +0.007 C 
ATOM     12  C   UNL     1     -12.118  -2.847  -2.654  0.00  0.00    +0.001 C 
ATOM     13  C   UNL     1     -11.866  -3.644  -1.357  0.00  0.00    +0.001 C 
ATOM     14  C   UNL     1     -10.339  -3.700  -1.165  0.00  0.00    +0.007 C 
ATOM     15  C   UNL     1      -9.437  -1.497  -1.974  0.00  0.00    +0.026 C 
ATOM     16  C   UNL     1      -8.398  -1.463  -0.841  0.00  0.00    +0.107 C 
ENDROOT
BRANCH   1  17
ATOM     17  C   UNL     1      -2.056  -0.111  -1.269  0.00  0.00    -0.024 C 
BRANCH  17  18
ATOM     18  N   UNL     1      -1.292  -0.692  -0.157  0.00  0.00    +0.384 N 
ATOM     19  H   UNL     1      -1.276  -1.697  -0.248  0.00  0.00    -0.085 HD
ATOM     20  H   UNL     1      -1.728  -0.441   0.718  0.00  0.00    -0.085 HD
BRANCH  18  22
ATOM     21  C   UNL     1       0.067   1.331   0.078  0.00  0.00    -0.014 C 
ATOM     22  C   UNL     1       0.083  -0.176  -0.185  0.00  0.00    -0.078 C 
ATOM     23  C   UNL     1       0.912  -0.874   0.895  0.00  0.00    -0.014 C 
ENDBRANCH  18  22
ENDBRANCH  17  18
ENDBRANCH   1  17
TORSDOF 3
