REMARK  Name = ZINC38053599
REMARK  2 active torsions:
REMARK  status: ('A' for Active; 'I' for Inactive)
REMARK    1  A    between atoms: C_4  and  N_10
REMARK    2  A    between atoms: C_6  and  C_7
REMARK                            x       y       z     vdW  Elec       q    Type
REMARK                         _______ _______ _______ _____ _____    ______ ____
ROOT
ATOM      1  C   UNL     1      -0.017   1.394   0.010  0.00  0.00    +0.031 A 
ATOM      2  C   UNL     1       1.180   2.083   0.002  0.00  0.00    +0.114 A 
ATOM      3  N   UNL     1       2.332   1.442  -0.013  0.00  0.00    -0.236 NA
ATOM      4  C   UNL     1       2.397   0.121  -0.021  0.00  0.00    +0.155 A 
ATOM      5  C   UNL     1       1.241  -0.647  -0.013  0.00  0.00    +0.059 A 
ATOM      6  C   UNL     1       0.002  -0.004   0.002  0.00  0.00    +0.017 A 
ENDROOT
BRANCH   6   7
ATOM      7  C   UNL     1      -1.260  -0.782   0.010  0.00  0.00    +0.094 C 
ATOM      8  N   UNL     1      -2.344  -0.285   0.600  0.00  0.00    -0.387 N 
ATOM      9  N   UNL     1      -1.308  -1.978  -0.572  0.00  0.00    -0.345 N 
ATOM     10  H   UNL     1      -2.309   0.586   1.024  0.00  0.00    +0.157 HD
ATOM     11  H   UNL     1      -0.517  -2.340  -1.002  0.00  0.00    +0.144 HD
ATOM     12  H   UNL     1      -2.133  -2.487  -0.566  0.00  0.00    +0.144 HD
ATOM     13  H   UNL     1      -3.169  -0.795   0.605  0.00  0.00    +0.157 HD
ENDBRANCH   6   7
BRANCH   4  14
ATOM     14  N   UNL     1       3.646  -0.509  -0.037  0.00  0.00    -0.220 N 
ATOM     15  C   UNL     1       4.856   0.111  -0.041  0.00  0.00    +0.136 A 
ATOM     16  C   UNL     1       5.808  -0.851  -0.058  0.00  0.00    +0.079 A 
ATOM     17  C   UNL     1       5.165  -2.095  -0.065  0.00  0.00    +0.154 A 
ATOM     18  N   UNL     1       3.873  -1.891  -0.046  0.00  0.00    -0.172 NA
ATOM     19 CL   UNL     1       7.524  -0.588  -0.069  0.00  0.00    -0.080 Cl
ENDBRANCH   4  14
TORSDOF 2
