REMARK  Name = ZINC65494672
REMARK  3 active torsions:
REMARK  status: ('A' for Active; 'I' for Inactive)
REMARK    1  A    between atoms: C_1  and  C_2
REMARK    2  A    between atoms: C_10  and  C_12
REMARK    3  A    between atoms: C_12  and  N_13
REMARK                            x       y       z     vdW  Elec       q    Type
REMARK                         _______ _______ _______ _____ _____    ______ ____
ROOT
ATOM      1  C   UNL     1       0.086  -2.864   4.922  0.00  0.00    -0.038 C 
ENDROOT
BRANCH   1  11
ATOM      2  C   UNL     1      -0.018   1.503   0.010  0.00  0.00    +0.046 C 
ATOM      3  C   UNL     1       0.002  -0.004   0.002  0.00  0.00    -0.026 A 
ATOM      4  C   UNL     1       0.006  -0.689  -1.194  0.00  0.00    +0.005 A 
ATOM      5  C   UNL     1       0.025  -2.077  -1.215  0.00  0.00    +0.001 A 
ATOM      6  C   UNL     1       0.039  -2.790  -0.050  0.00  0.00    +0.010 A 
ATOM      7  C   UNL     1       0.036  -2.116   1.175  0.00  0.00    -0.001 A 
ATOM      8  C   UNL     1       0.023  -0.709   1.201  0.00  0.00    +0.052 A 
ATOM      9  N   UNL     1       0.025  -0.049   2.412  0.00  0.00    -0.322 N 
ATOM     10  C   UNL     1       0.045  -0.730   3.570  0.00  0.00    +0.251 A 
ATOM     11  C   UNL     1       0.064  -2.141   3.600  0.00  0.00    +0.001 A 
ATOM     12  C   UNL     1       0.051  -2.849   2.443  0.00  0.00    +0.017 A 
ATOM     13  O   UNL     1       0.046  -0.114   4.622  0.00  0.00    -0.268 OA
ATOM     14  H   UNL     1       0.012   0.921   2.428  0.00  0.00    +0.169 HD
ENDBRANCH   1  11
BRANCH   1  15
ATOM     15  N   UNL     1       1.472  -2.975   5.397  0.00  0.00    +0.383 N 
ATOM     16  C   UNL     1       2.003  -1.633   5.666  0.00  0.00    -0.078 C 
ATOM     17  C   UNL     1       3.477  -1.738   6.069  0.00  0.00    -0.010 C 
ATOM     18  C   UNL     1       3.601  -2.621   7.302  0.00  0.00    -0.009 C 
ATOM     19  C   UNL     1       2.957  -3.980   7.067  0.00  0.00    -0.010 C 
ATOM     20  C   UNL     1       1.504  -3.782   6.622  0.00  0.00    -0.078 C 
ATOM     21  C   UNL     1       5.076  -2.781   7.712  0.00  0.00    +0.104 C 
ATOM     22  C   UNL     1       5.288  -1.699   8.750  0.00  0.00    +0.214 C 
ATOM     23  O   UNL     1       6.370  -1.305   9.132  0.00  0.00    -0.276 OA
ATOM     24  N   UNL     1       4.102  -1.238   9.187  0.00  0.00    -0.315 N 
ATOM     25  C   UNL     1       2.985  -1.932   8.531  0.00  0.00    +0.111 C 
ATOM     26  H   UNL     1       3.998  -0.539   9.851  0.00  0.00    +0.149 HD
ATOM     27  H   UNL     1       2.035  -3.420   4.687  0.00  0.00    -0.081 HD
ENDBRANCH   1  15
TORSDOF 2
