REMARK  Name = ZINC32791445
REMARK  8 active torsions:
REMARK  status: ('A' for Active; 'I' for Inactive)
REMARK    1  A    between atoms: C_1  and  C_2
REMARK    2  A    between atoms: C_2  and  N_3
REMARK    3  A    between atoms: C_7  and  C_9
REMARK    4  A    between atoms: C_9  and  C_11
REMARK    5  A    between atoms: C_9  and  N_12
REMARK    6  A    between atoms: N_12  and  C_13
REMARK    7  A    between atoms: C_13  and  C_15
REMARK    8  A    between atoms: C_13  and  C_16
REMARK                            x       y       z     vdW  Elec       q    Type
REMARK                         _______ _______ _______ _____ _____    ______ ____
ROOT
ATOM      1  C   UNL     1       1.371   1.528  -0.071  0.00  0.00    +0.014 C 
ATOM      2  C   UNL     1       2.234   0.557  -0.880  0.00  0.00    -0.004 C 
ENDROOT
BRANCH   1   7
ATOM      3  N   UNL     1       4.943   2.666   2.938  0.00  0.00    -0.299 N 
ATOM      4  C   UNL     1       3.686   2.216   2.754  0.00  0.00    +0.306 C 
ATOM      5  O   UNL     1       3.003   1.912   3.712  0.00  0.00    -0.252 OA
ATOM      6  N   UNL     1       3.187   2.103   1.508  0.00  0.00    -0.242 N 
ATOM      7  C   UNL     1       1.930   1.654   1.323  0.00  0.00    +0.206 C 
ATOM      8  O   UNL     1       1.248   1.350   2.279  0.00  0.00    -0.277 OA
ATOM      9  H   UNL     1       5.562   2.941   2.071  0.00  0.00    +0.150 HD
ATOM     10  H   UNL     1       3.805   2.379   0.640  0.00  0.00    +0.159 HD
BRANCH   3  12
ATOM     11  C   UNL     1       6.920   3.317   4.223  0.00  0.00    +0.024 C 
ATOM     12  C   UNL     1       5.486   2.788   4.294  0.00  0.00    +0.102 C 
ENDBRANCH   3  12
ENDBRANCH   1   7
BRANCH   1  13
ATOM     13  N   UNL     1      -0.005   1.020  -0.003  0.00  0.00    +0.391 N 
ATOM     14  H   UNL     1      -0.244   0.481  -0.931  0.00  0.00    -0.084 HD
ATOM     15  H   UNL     1      -0.102   0.336   0.854  0.00  0.00    -0.084 HD
BRANCH  13  16
ATOM     16  C   UNL     1      -0.965   2.120   0.163  0.00  0.00    -0.043 C 
ATOM     17  C   UNL     1      -1.346   2.676  -1.210  0.00  0.00    -0.009 C 
BRANCH  16  18
ATOM     18  C   UNL     1      -2.200   1.608   0.858  0.00  0.00    -0.062 A 
ATOM     19  C   UNL     1      -2.714   0.367   0.530  0.00  0.00    +0.003 A 
ATOM     20  C   UNL     1      -3.844  -0.104   1.171  0.00  0.00    +0.015 A 
ATOM     21  C   UNL     1      -4.468   0.670   2.133  0.00  0.00    +0.018 A 
ATOM     22  C   UNL     1      -3.957   1.914   2.456  0.00  0.00    +0.015 A 
ATOM     23  C   UNL     1      -2.823   2.383   1.819  0.00  0.00    +0.003 A 
ATOM     24 BR   UNL     1      -6.019   0.029   3.004  0.00  0.00    -0.050 Br
ENDBRANCH  16  18
ENDBRANCH  13  16
ENDBRANCH   1  13
TORSDOF 5
