REMARK  Name = ZINC67478810
REMARK  9 active torsions:
REMARK  status: ('A' for Active; 'I' for Inactive)
REMARK    1  A    between atoms: C_1  and  C_2
REMARK    2  A    between atoms: C_5  and  C_7
REMARK    3  A    between atoms: C_7  and  C_9
REMARK    4  A    between atoms: C_7  and  N_25
REMARK    5  A    between atoms: C_9  and  N_10
REMARK    6  A    between atoms: N_13  and  N_14
REMARK    7  A    between atoms: C_15  and  C_17
REMARK    8  A    between atoms: C_22  and  O_23
REMARK    9  A    between atoms: O_23  and  C_24
REMARK                            x       y       z     vdW  Elec       q    Type
REMARK                         _______ _______ _______ _____ _____    ______ ____
ROOT
ATOM      1  N   UNL     1       3.139  -4.616  -1.417  0.00  0.00    -0.299 N 
ATOM      2  C   UNL     1       3.697  -5.031  -2.571  0.00  0.00    +0.316 C 
ATOM      3  O   UNL     1       3.299  -4.592  -3.632  0.00  0.00    -0.251 OA
ATOM      4  N   UNL     1       4.698  -5.934  -2.549  0.00  0.00    -0.218 N 
ATOM      5  H   UNL     1       3.457  -4.966  -0.571  0.00  0.00    +0.150 HD
ATOM      6  H   UNL     1       5.100  -6.233  -3.380  0.00  0.00    +0.174 HD
ENDROOT
BRANCH   4   7
ATOM      7  N   UNL     1       5.157  -6.440  -1.326  0.00  0.00    -0.229 N 
ATOM      8  C   UNL     1       6.158  -7.343  -1.304  0.00  0.00    +0.264 C 
ATOM      9  O   UNL     1       6.662  -7.718  -2.345  0.00  0.00    -0.269 OA
ATOM     10  H   UNL     1       4.756  -6.141  -0.496  0.00  0.00    +0.173 HD
BRANCH   8  11
ATOM     11  C   UNL     1       6.642  -7.876  -0.016  0.00  0.00    +0.080 A 
ATOM     12  C   UNL     1       6.062  -7.453   1.182  0.00  0.00    +0.017 A 
ATOM     13  C   UNL     1       6.519  -7.955   2.381  0.00  0.00    +0.001 A 
ATOM     14  C   UNL     1       7.551  -8.879   2.405  0.00  0.00    +0.004 A 
ATOM     15  C   UNL     1       8.133  -9.306   1.228  0.00  0.00    +0.046 A 
ATOM     16  C   UNL     1       7.682  -8.815   0.011  0.00  0.00    +0.132 A 
BRANCH  16  17
ATOM     17  O   UNL     1       8.249  -9.239  -1.146  0.00  0.00    -0.494 OA
ATOM     18  C   UNL     1       9.304 -10.197  -1.039  0.00  0.00    +0.277 C 
ENDBRANCH  16  17
ENDBRANCH   8  11
ENDBRANCH   4   7
BRANCH   1  19
ATOM     19  C   UNL     1       2.052  -3.634  -1.441  0.00  0.00    +0.098 C 
BRANCH  19  20
ATOM     20  C   UNL     1       1.514  -3.434  -0.023  0.00  0.00    +0.016 C 
BRANCH  20  25
ATOM     21  C   UNL     1      -1.861  -7.122   0.647  0.00  0.00    +0.086 C 
ATOM     22  C   UNL     1      -0.592  -6.315   0.749  0.00  0.00    +0.102 A 
ATOM     23  C   UNL     1       0.497  -6.649   1.464  0.00  0.00    +0.044 A 
ATOM     24  C   UNL     1       1.443  -5.615   1.276  0.00  0.00    +0.043 A 
ATOM     25  C   UNL     1       0.875  -4.712   0.457  0.00  0.00    +0.093 A 
ATOM     26  O   UNL     1      -0.355  -5.144   0.137  0.00  0.00    -0.466 OA
ENDBRANCH  20  25
BRANCH  20  27
ATOM     27  N   UNL     1       0.514  -2.358  -0.026  0.00  0.00    +0.387 N 
ATOM     28  C   UNL     1      -0.017  -2.148   1.345  0.00  0.00    -0.078 C 
ATOM     29  C   UNL     1      -0.573  -0.703   1.293  0.00  0.00    -0.020 C 
ATOM     30  C   UNL     1       0.455   0.031   0.402  0.00  0.00    -0.020 C 
ATOM     31  C   UNL     1       1.144  -1.077  -0.415  0.00  0.00    -0.078 C 
ATOM     32  H   UNL     1      -0.238  -2.583  -0.660  0.00  0.00    -0.081 HD
ENDBRANCH  20  27
ENDBRANCH  19  20
ENDBRANCH   1  19
TORSDOF 7
