REMARK  Name = ZINC62586641
REMARK  10 active torsions:
REMARK  status: ('A' for Active; 'I' for Inactive)
REMARK    1  A    between atoms: C_1  and  C_2
REMARK    2  A    between atoms: C_2  and  C_3
REMARK    3  A    between atoms: C_2  and  N_8
REMARK    4  A    between atoms: C_3  and  C_4
REMARK    5  A    between atoms: C_4  and  N_5
REMARK    6  A    between atoms: N_5  and  C_6
REMARK    7  A    between atoms: N_5  and  C_7
REMARK    8  A    between atoms: C_9  and  C_11
REMARK    9  A    between atoms: C_20  and  S_22
REMARK   10  A    between atoms: S_22  and  N_25
REMARK                            x       y       z     vdW  Elec       q    Type
REMARK                         _______ _______ _______ _____ _____    ______ ____
ROOT
ATOM      1  C   UNL     1       0.705  -1.090  -3.587  0.00  0.00    +0.306 C 
ATOM      2  O   UNL     1       1.887  -1.363  -3.546  0.00  0.00    -0.265 OA
ATOM      3  N   UNL     1       0.024  -1.221  -4.743  0.00  0.00    -0.263 N 
ATOM      4  C   UNL     1      -1.399  -0.918  -4.917  0.00  0.00    +0.119 C 
ATOM      5  C   UNL     1      -1.699  -1.225  -6.394  0.00  0.00    +0.056 C 
ATOM      6  C   UNL     1      -0.377  -1.695  -6.960  0.00  0.00    -0.023 A 
ATOM      7  C   UNL     1       0.572  -1.661  -5.949  0.00  0.00    +0.040 A 
ATOM      8  C   UNL     1       1.882  -2.050  -6.237  0.00  0.00    +0.026 A 
ATOM      9  C   UNL     1       2.222  -2.458  -7.509  0.00  0.00    +0.030 A 
ATOM     10  C   UNL     1       1.269  -2.484  -8.510  0.00  0.00    +0.105 A 
ATOM     11  C   UNL     1      -0.032  -2.107  -8.232  0.00  0.00    +0.034 A 
ENDROOT
BRANCH   1  13
ATOM     12  N   UNL     1       0.688  -0.476  -1.203  0.00  0.00    -0.305 N 
ATOM     13  C   UNL     1       0.006  -0.608  -2.358  0.00  0.00    +0.300 C 
ATOM     14  O   UNL     1      -1.176  -0.335  -2.400  0.00  0.00    -0.265 OA
ATOM     15  H   UNL     1       1.632  -0.695  -1.170  0.00  0.00    +0.149 HD
BRANCH  12  17
ATOM     16  C   UNL     1      -0.019   1.526   0.010  0.00  0.00    +0.028 C 
ATOM     17  C   UNL     1       0.002  -0.004   0.002  0.00  0.00    +0.069 C 
BRANCH  17  18
ATOM     18  C   UNL     1       0.742  -0.511   1.242  0.00  0.00    +0.003 C 
BRANCH  18  19
ATOM     19  C   UNL     1       0.655  -2.037   1.299  0.00  0.00    -0.078 C 
BRANCH  19  20
ATOM     20  N   UNL     1       1.366  -2.524   2.489  0.00  0.00    +0.376 N 
ATOM     21  C   UNL     1       0.678  -2.050   3.697  0.00  0.00    -0.097 C 
ATOM     22  C   UNL     1       1.386  -3.993   2.481  0.00  0.00    -0.097 C 
ATOM     23  H   UNL     1       2.312  -2.175   2.482  0.00  0.00    -0.083 HD
ENDBRANCH  19  20
ENDBRANCH  18  19
ENDBRANCH  17  18
ENDBRANCH  12  17
ENDBRANCH   1  13
BRANCH  10  24
ATOM     24  S   UNL     1       1.709  -3.005 -10.135  0.00  0.00    +0.056 S 
ATOM     25  O   UNL     1       0.763  -2.420 -11.019  0.00  0.00    -0.153 OA
ATOM     26  O   UNL     1       3.108  -2.792 -10.265  0.00  0.00    -0.153 OA
BRANCH  24  27
ATOM     27  N   UNL     1       1.471  -4.643 -10.205  0.00  0.00    -0.204 NA
ATOM     28  H   UNL     1       1.145  -5.119  -9.425  0.00  0.00    +0.144 HD
ATOM     29  H   UNL     1       1.658  -5.125 -11.025  0.00  0.00    +0.144 HD
ENDBRANCH  24  27
ENDBRANCH  10  24
TORSDOF 7
