REMARK  Name = ZINC00530595
REMARK  2 active torsions:
REMARK  status: ('A' for Active; 'I' for Inactive)
REMARK    1  A    between atoms: C_4  and  C_7
REMARK    2  A    between atoms: C_10  and  C_19
REMARK                            x       y       z     vdW  Elec       q    Type
REMARK                         _______ _______ _______ _____ _____    ______ ____
ROOT
ATOM      1  C   UNL     1       3.711  -0.707  -0.038  0.00  0.00    +0.106 C 
ATOM      2  C   UNL     1       4.048  -1.192   1.377  0.00  0.00    +0.058 C 
ATOM      3  C   UNL     1       2.915  -2.081   1.904  0.00  0.00    +0.143 C 
ATOM      4  N   UNL     1       2.589  -3.081   0.888  0.00  0.00    -0.224 N 
ATOM      5  C   UNL     1       2.920  -2.975  -0.421  0.00  0.00    +0.216 A 
ATOM      6  N   UNL     1       2.481  -4.039  -1.040  0.00  0.00    -0.180 NA
ATOM      7  C   UNL     1       1.863  -4.843  -0.162  0.00  0.00    +0.233 A 
ATOM      8  N   UNL     1       1.908  -4.291   1.030  0.00  0.00    -0.132 NA
ATOM      9  N   UNL     1       1.269  -6.069  -0.466  0.00  0.00    -0.326 N 
ATOM     10  N   UNL     1       3.612  -1.879  -0.929  0.00  0.00    -0.307 N 
ATOM     11  H   UNL     1       1.282  -6.402  -1.376  0.00  0.00    +0.145 HD
ATOM     12  H   UNL     1       0.842  -6.587   0.234  0.00  0.00    +0.145 HD
ATOM     13  H   UNL     1       4.006  -1.883  -1.815  0.00  0.00    +0.149 HD
ENDROOT
BRANCH   3  14
ATOM     14  C   UNL     1       3.359  -2.768   3.169  0.00  0.00    -0.023 A 
ATOM     15  C   UNL     1       4.461  -3.603   3.152  0.00  0.00    +0.007 A 
ATOM     16  C   UNL     1       4.869  -4.234   4.312  0.00  0.00    +0.020 A 
ATOM     17  C   UNL     1       4.173  -4.030   5.491  0.00  0.00    +0.041 A 
ATOM     18  C   UNL     1       3.070  -3.196   5.507  0.00  0.00    +0.020 A 
ATOM     19  C   UNL     1       2.667  -2.561   4.348  0.00  0.00    +0.007 A 
ATOM     20 CL   UNL     1       4.684  -4.823   6.948  0.00  0.00    -0.084 Cl
ENDBRANCH   3  14
BRANCH   1  24
ATOM     21  C   UNL     1      -0.017   1.378   0.010  0.00  0.00    +0.000 A 
ATOM     22  C   UNL     1       1.171   2.086   0.002  0.00  0.00    +0.000 A 
ATOM     23  C   UNL     1       2.377   1.411  -0.013  0.00  0.00    +0.005 A 
ATOM     24  C   UNL     1       2.396   0.029  -0.020  0.00  0.00    -0.027 A 
ATOM     25  C   UNL     1       1.208  -0.679  -0.012  0.00  0.00    +0.005 A 
ATOM     26  C   UNL     1       0.002  -0.004   0.002  0.00  0.00    +0.000 A 
ENDBRANCH   1  24
TORSDOF 2
