REMARK  Name = ZINC21815765
REMARK  4 active torsions:
REMARK  status: ('A' for Active; 'I' for Inactive)
REMARK    1  A    between atoms: N_10  and  C_13
REMARK    2  A    between atoms: C_13  and  C_15
REMARK    3  A    between atoms: C_13  and  C_17
REMARK    4  A    between atoms: C_15  and  N_16
REMARK                            x       y       z     vdW  Elec       q    Type
REMARK                         _______ _______ _______ _____ _____    ______ ____
ROOT
ATOM      1  C   UNL     1       1.338  -2.490   0.859  0.00  0.00    +0.039 A 
ATOM      2  C   UNL     1       0.042  -2.031   0.689  0.00  0.00    +0.116 A 
ATOM      3  N   UNL     1      -0.170  -0.733   0.547  0.00  0.00    -0.223 NA
ATOM      4  C   UNL     1       0.840   0.124   0.567  0.00  0.00    +0.218 A 
ATOM      5  N   UNL     1       2.091  -0.282   0.722  0.00  0.00    -0.223 NA
ATOM      6  C   UNL     1       2.371  -1.566   0.874  0.00  0.00    +0.116 A 
ATOM      7  N   UNL     1       0.582   1.476   0.415  0.00  0.00    -0.297 N 
ATOM      8  C   UNL     1      -0.151   1.736  -0.831  0.00  0.00    +0.123 C 
ATOM      9  C   UNL     1      -0.486   3.227  -0.922  0.00  0.00    +0.104 C 
ATOM     10  N   UNL     1       0.758   4.008  -0.873  0.00  0.00    -0.291 NA
ATOM     11  C   UNL     1       1.491   3.748   0.374  0.00  0.00    +0.104 C 
ATOM     12  C   UNL     1       1.825   2.258   0.465  0.00  0.00    +0.123 C 
ENDROOT
BRANCH  10  13
ATOM     13  C   UNL     1       0.484   5.443  -1.033  0.00  0.00    +0.105 C 
BRANCH  13  14
ATOM     14  C   UNL     1      -0.351   5.928   0.124  0.00  0.00    +0.122 A 
ATOM     15  C   UNL     1      -0.113   7.029   0.859  0.00  0.00    +0.047 A 
ATOM     16  C   UNL     1      -1.139   7.104   1.829  0.00  0.00    +0.057 A 
ATOM     17  C   UNL     1      -1.938   6.039   1.634  0.00  0.00    +0.170 A 
ATOM     18  O   UNL     1      -1.456   5.330   0.600  0.00  0.00    -0.452 OA
ATOM     19 BR   UNL     1      -3.479   5.612   2.644  0.00  0.00    -0.008 Br
ENDBRANCH  13  14
BRANCH  13  20
ATOM     20  C   UNL     1      -0.275   5.674  -2.342  0.00  0.00    -0.059 C 
BRANCH  20  21
ATOM     21  N   UNL     1       0.485   5.094  -3.457  0.00  0.00    +0.379 N 
ATOM     22  H   UNL     1      -0.060   5.261  -4.398  0.00  0.00    -0.090 HD
ATOM     23  H   UNL     1       0.612   4.014  -3.292  0.00  0.00    -0.090 HD
ATOM     24  H   UNL     1       1.473   5.574  -3.517  0.00  0.00    -0.090 HD
ENDBRANCH  20  21
ENDBRANCH  13  20
ENDBRANCH  10  13
TORSDOF 4
