REMARK  Name = ZINC20412436
REMARK  3 active torsions:
REMARK  status: ('A' for Active; 'I' for Inactive)
REMARK    1  A    between atoms: C_4  and  C_7
REMARK    2  A    between atoms: C_7  and  N_8
REMARK    3  A    between atoms: C_11  and  C_18
REMARK                            x       y       z     vdW  Elec       q    Type
REMARK                         _______ _______ _______ _____ _____    ______ ____
ROOT
ATOM      1  N   UNL     1       4.152  -0.952   1.338  0.00  0.00    -0.256 N 
ATOM      2  C   UNL     1       4.920  -0.041   1.967  0.00  0.00    +0.263 A 
ATOM      3  O   UNL     1       5.247   0.985   1.395  0.00  0.00    -0.267 OA
ATOM      4  C   UNL     1       5.340  -0.280   3.287  0.00  0.00    +0.073 A 
ATOM      5  C   UNL     1       4.959  -1.435   3.904  0.00  0.00    +0.260 A 
ATOM      6  N   UNL     1       4.177  -2.336   3.227  0.00  0.00    -0.275 N 
ATOM      7  H   UNL     1       3.903  -3.159   3.662  0.00  0.00    +0.173 HD
ATOM      8  C   UNL     1       3.782  -2.084   1.966  0.00  0.00    +0.332 A 
ATOM      9  O   UNL     1       3.085  -2.892   1.383  0.00  0.00    -0.246 OA
ATOM     10  O   UNL     1       5.349  -1.690   5.171  0.00  0.00    -0.267 OA
ENDROOT
BRANCH   4  11
ATOM     11  C   UNL     1       6.199   0.725   4.010  0.00  0.00    +0.018 C 
ATOM     12  C   UNL     1       7.537   0.837   3.320  0.00  0.00    +0.011 A 
ATOM     13  C   UNL     1       8.153   2.022   3.098  0.00  0.00    -0.022 A 
ATOM     14  C   UNL     1       9.396   1.737   2.419  0.00  0.00    +0.003 A 
ATOM     15  C   UNL     1      10.430   2.551   1.944  0.00  0.00    +0.010 A 
ATOM     16  C   UNL     1      11.486   1.922   1.334  0.00  0.00    +0.001 A 
ATOM     17  C   UNL     1      11.539   0.545   1.188  0.00  0.00    +0.002 A 
ATOM     18  C   UNL     1      10.532  -0.285   1.649  0.00  0.00    +0.026 A 
ATOM     19  C   UNL     1       9.446   0.326   2.273  0.00  0.00    +0.047 A 
ATOM     20  N   UNL     1       8.307  -0.182   2.830  0.00  0.00    -0.359 N 
ATOM     21  H   UNL     1       8.078  -1.124   2.872  0.00  0.00    +0.166 HD
ATOM     22  C   UNL     1       7.571   3.347   3.522  0.00  0.00    +0.018 C 
ATOM     23  C   UNL     1       6.447   3.066   4.529  0.00  0.00    -0.076 C 
ATOM     24  N   UNL     1       5.543   2.041   3.989  0.00  0.00    +0.388 N 
ATOM     25  H   UNL     1       5.302   2.279   3.038  0.00  0.00    -0.084 HD
ATOM     26  H   UNL     1       4.703   2.006   4.546  0.00  0.00    -0.084 HD
ENDBRANCH   4  11
BRANCH   1  27
ATOM     27  C   UNL     1       3.711  -0.707  -0.038  0.00  0.00    +0.165 C 
BRANCH  27  31
ATOM     28  C   UNL     1      -0.017   1.378   0.010  0.00  0.00    +0.000 A 
ATOM     29  C   UNL     1       1.171   2.086   0.002  0.00  0.00    +0.000 A 
ATOM     30  C   UNL     1       2.377   1.411  -0.013  0.00  0.00    +0.005 A 
ATOM     31  C   UNL     1       2.396   0.029  -0.020  0.00  0.00    -0.028 A 
ATOM     32  C   UNL     1       1.208  -0.679  -0.012  0.00  0.00    +0.005 A 
ATOM     33  C   UNL     1       0.002  -0.004   0.002  0.00  0.00    +0.000 A 
ENDBRANCH  27  31
ENDBRANCH   1  27
TORSDOF 3
