REMARK  Name = ZINC50402718
REMARK  7 active torsions:
REMARK  status: ('A' for Active; 'I' for Inactive)
REMARK    1  A    between atoms: C_1  and  C_2
REMARK    2  A    between atoms: C_2  and  C_3
REMARK    3  A    between atoms: C_3  and  C_4
REMARK    4  A    between atoms: C_4  and  C_6
REMARK    5  A    between atoms: C_4  and  N_8
REMARK    6  A    between atoms: C_6  and  C_7
REMARK    7  A    between atoms: N_8  and  C_9
REMARK                            x       y       z     vdW  Elec       q    Type
REMARK                         _______ _______ _______ _____ _____    ______ ____
ROOT
ATOM      1  C   UNL     1       1.417  -3.993   0.166  0.00  0.00    +0.049 C 
ATOM      2  C   UNL     1       2.302  -4.601  -0.897  0.00  0.00    -0.030 A 
ATOM      3  C   UNL     1       2.355  -4.459  -2.266  0.00  0.00    +0.004 A 
ATOM      4  C   UNL     1       3.297  -5.160  -2.998  0.00  0.00    +0.001 A 
ATOM      5  C   UNL     1       4.183  -6.003  -2.350  0.00  0.00    +0.017 A 
ATOM      6  C   UNL     1       4.132  -6.147  -0.979  0.00  0.00    +0.039 A 
ATOM      7  C   UNL     1       3.186  -5.443  -0.235  0.00  0.00    +0.049 A 
ATOM      8  N   UNL     1       2.938  -5.419   1.138  0.00  0.00    -0.285 N 
ATOM      9  C   UNL     1       1.919  -4.599   1.459  0.00  0.00    +0.208 C 
ATOM     10  O   UNL     1       1.486  -4.385   2.571  0.00  0.00    -0.277 OA
ATOM     11 BR   UNL     1       5.348  -7.303  -0.106  0.00  0.00    -0.048 Br
ATOM     12  H   UNL     1       3.440  -5.936   1.787  0.00  0.00    +0.155 HD
ENDROOT
BRANCH   1  13
ATOM     13  N   UNL     1       1.569  -2.532   0.189  0.00  0.00    +0.391 N 
ATOM     14  H   UNL     1       1.992  -2.224  -0.674  0.00  0.00    -0.084 HD
ATOM     15  H   UNL     1       2.157  -2.267   0.965  0.00  0.00    -0.084 HD
BRANCH  13  16
ATOM     16  C   UNL     1       0.249  -1.904   0.339  0.00  0.00    -0.071 C 
BRANCH  16  17
ATOM     17  C   UNL     1      -0.625  -2.261  -0.865  0.00  0.00    -0.019 C 
ATOM     18  C   UNL     1      -0.028  -1.643  -2.131  0.00  0.00    +0.002 C 
ENDBRANCH  16  17
BRANCH  16  19
ATOM     19  C   UNL     1      -0.415  -2.412   1.620  0.00  0.00    -0.016 C 
BRANCH  19  21
ATOM     20  C   UNL     1      -0.299  -2.413   4.116  0.00  0.00    +0.004 C 
ATOM     21  C   UNL     1       0.365  -1.904   2.834  0.00  0.00    -0.005 C 
ENDBRANCH  19  21
ENDBRANCH  16  19
ENDBRANCH  13  16
ENDBRANCH   1  13
TORSDOF 5
