REMARK  Name = ZINC36170640
REMARK  9 active torsions:
REMARK  status: ('A' for Active; 'I' for Inactive)
REMARK    1  A    between atoms: C_1  and  C_2
REMARK    2  A    between atoms: C_2  and  C_3
REMARK    3  A    between atoms: C_2  and  N_4
REMARK    4  A    between atoms: C_13  and  N_21
REMARK    5  A    between atoms: C_14  and  O_16
REMARK    6  A    between atoms: O_16  and  C_17
REMARK    7  A    between atoms: C_17  and  C_18
REMARK    8  A    between atoms: C_17  and  C_19
REMARK    9  A    between atoms: C_17  and  C_20
REMARK                            x       y       z     vdW  Elec       q    Type
REMARK                         _______ _______ _______ _____ _____    ______ ____
ROOT
ATOM      1  N   UNL     1      -1.335  -0.655   0.110  0.00  0.00    +0.383 N 
ATOM      2  C   UNL     1      -1.863  -0.223  -1.190  0.00  0.00    -0.059 C 
ATOM      3  C   UNL     1      -3.371  -0.492  -1.243  0.00  0.00    +0.088 C 
ATOM      4  N   UNL     1      -3.602  -1.911  -0.935  0.00  0.00    -0.319 N 
ATOM      5  C   UNL     1      -2.971  -2.472   0.270  0.00  0.00    +0.088 C 
ATOM      6  C   UNL     1      -1.482  -2.110   0.251  0.00  0.00    -0.059 C 
ATOM      7  C   UNL     1      -4.397  -2.703  -1.761  0.00  0.00    +0.125 A 
ATOM      8  C   UNL     1      -5.152  -2.107  -2.763  0.00  0.00    +0.046 A 
ATOM      9  C   UNL     1      -5.940  -2.901  -3.581  0.00  0.00    +0.031 A 
ATOM     10  C   UNL     1      -5.944  -4.275  -3.367  0.00  0.00    +0.087 A 
ATOM     11  C   UNL     1      -5.162  -4.805  -2.344  0.00  0.00    +0.238 A 
ATOM     12  N   UNL     1      -4.419  -4.016  -1.586  0.00  0.00    -0.196 NA
ATOM     13  H   UNL     1      -1.845  -0.194   0.848  0.00  0.00    -0.081 HD
ENDROOT
BRANCH   1  15
ATOM     14  C   UNL     1       0.243   1.217   0.055  0.00  0.00    -0.014 C 
ATOM     15  C   UNL     1       0.087  -0.298   0.202  0.00  0.00    -0.075 C 
ATOM     16  C   UNL     1       0.637  -0.738   1.560  0.00  0.00    -0.014 C 
ENDBRANCH   1  15
BRANCH  10  17
ATOM     17  N   UNL     1      -6.728  -5.117  -4.172  0.00  0.00    -0.354 N 
ATOM     18  H   UNL     1      -7.270  -4.741  -4.883  0.00  0.00    +0.142 HD
ATOM     19  H   UNL     1      -6.726  -6.074  -4.017  0.00  0.00    +0.142 HD
ENDBRANCH  10  17
BRANCH  11  20
ATOM     20  O   UNL     1      -5.159  -6.145  -2.125  0.00  0.00    -0.469 OA
BRANCH  20  21
ATOM     21  C   UNL     1      -4.337  -6.627  -1.061  0.00  0.00    +0.104 C 
ATOM     22  C   UNL     1      -4.788  -5.996   0.258  0.00  0.00    +0.055 C 
ATOM     23  C   UNL     1      -4.463  -8.149  -0.968  0.00  0.00    +0.055 C 
ATOM     24  C   UNL     1      -2.879  -6.251  -1.333  0.00  0.00    +0.055 C 
ENDBRANCH  20  21
ENDBRANCH  11  20
TORSDOF 4
