REMARK  Name = ZINC44563416
REMARK  8 active torsions:
REMARK  status: ('A' for Active; 'I' for Inactive)
REMARK    1  A    between atoms: C_1  and  C_2
REMARK    2  A    between atoms: C_5  and  N_22
REMARK    3  A    between atoms: C_6  and  C_21
REMARK    4  A    between atoms: C_7  and  S_8
REMARK    5  A    between atoms: S_8  and  N_11
REMARK    6  A    between atoms: N_11  and  C_12
REMARK    7  A    between atoms: C_12  and  C_13
REMARK    8  A    between atoms: N_19  and  C_20
REMARK                            x       y       z     vdW  Elec       q    Type
REMARK                         _______ _______ _______ _____ _____    ______ ____
ROOT
ATOM      1  S   UNL     1      -0.163  -0.579   2.870  0.00  0.00    +0.059 S 
ATOM      2  O   UNL     1       0.292  -1.471   3.879  0.00  0.00    -0.153 OA
ATOM      3  O   UNL     1       0.554   0.594   2.511  0.00  0.00    -0.153 OA
ENDROOT
BRANCH   1  10
ATOM      4  C   UNL     1      -0.070   0.578   0.079  0.00  0.00    +0.046 C 
ATOM      5  C   UNL     1      -0.283  -0.912   0.164  0.00  0.00    -0.024 A 
ATOM      6  C   UNL     1      -0.416  -1.656  -0.994  0.00  0.00    +0.007 A 
ATOM      7  C   UNL     1      -0.612  -3.021  -0.921  0.00  0.00    +0.023 A 
ATOM      8  C   UNL     1      -0.675  -3.646   0.319  0.00  0.00    +0.029 A 
ATOM      9  C   UNL     1      -0.541  -2.896   1.479  0.00  0.00    -0.003 A 
ATOM     10  C   UNL     1      -0.340  -1.531   1.398  0.00  0.00    +0.113 A 
ATOM     11  C   UNL     1      -0.610  -3.569   2.826  0.00  0.00    +0.048 C 
BRANCH   8  12
ATOM     12  N   UNL     1      -0.873  -5.027   0.397  0.00  0.00    -0.358 N 
ATOM     13  H   UNL     1      -0.967  -5.550  -0.415  0.00  0.00    +0.142 HD
ATOM     14  H   UNL     1      -0.917  -5.462   1.262  0.00  0.00    +0.142 HD
ENDBRANCH   8  12
ENDBRANCH   1  10
BRANCH   1  15
ATOM     15  N   UNL     1      -1.679  -0.088   3.321  0.00  0.00    -0.191 NA
ATOM     16  H   UNL     1      -1.905   0.856   3.315  0.00  0.00    +0.148 HD
BRANCH  15  17
ATOM     17  C   UNL     1      -2.679  -1.078   3.728  0.00  0.00    +0.090 C 
BRANCH  17  18
ATOM     18  C   UNL     1      -3.841  -0.371   4.427  0.00  0.00    -0.053 C 
ATOM     19  C   UNL     1      -3.344   0.263   5.728  0.00  0.00    -0.014 C 
ATOM     20  C   UNL     1      -4.511   0.969   6.424  0.00  0.00    -0.003 C 
ATOM     21  C   UNL     1      -5.113   2.003   5.468  0.00  0.00    -0.019 C 
ATOM     22  C   UNL     1      -5.545   1.305   4.177  0.00  0.00    -0.079 C 
ATOM     23  N   UNL     1      -4.380   0.672   3.546  0.00  0.00    +0.381 N 
ATOM     24  C   UNL     1      -4.784   0.071   2.268  0.00  0.00    -0.096 C 
ATOM     25  H   UNL     1      -3.669   1.369   3.378  0.00  0.00    -0.082 HD
ENDBRANCH  17  18
ENDBRANCH  15  17
ENDBRANCH   1  15
TORSDOF 5
