REMARK  Name = ZINC12550430
REMARK  2 active torsions:
REMARK  status: ('A' for Active; 'I' for Inactive)
REMARK    1  A    between atoms: C_5  and  O_27
REMARK    2  A    between atoms: C_6  and  C_7
REMARK                            x       y       z     vdW  Elec       q    Type
REMARK                         _______ _______ _______ _____ _____    ______ ____
ROOT
ATOM      1  C   UNL     1      -1.292  -0.777   0.011  0.00  0.00    +0.212 C 
ATOM      2  N   UNL     1      -2.355   0.012  -0.638  0.00  0.00    -0.294 N 
ATOM      3  C   UNL     1      -3.022   0.974   0.074  0.00  0.00    +0.160 C 
ATOM      4  N   UNL     1      -3.197   0.868   1.380  0.00  0.00    -0.302 N 
ATOM      5  C   UNL     1      -2.644  -0.190   2.020  0.00  0.00    +0.213 A 
ATOM      6  N   UNL     1      -1.726  -1.014   1.392  0.00  0.00    -0.286 N 
ATOM      7  C   UNL     1      -1.360  -1.995   2.284  0.00  0.00    +0.076 A 
ATOM      8  C   UNL     1      -0.505  -3.088   2.227  0.00  0.00    +0.077 A 
ATOM      9  C   UNL     1      -0.353  -3.902   3.333  0.00  0.00    +0.164 A 
ATOM     10  C   UNL     1      -1.053  -3.636   4.506  0.00  0.00    +0.164 A 
ATOM     11  C   UNL     1      -1.907  -2.555   4.580  0.00  0.00    +0.079 A 
ATOM     12  C   UNL     1      -2.069  -1.722   3.469  0.00  0.00    +0.095 A 
ATOM     13  N   UNL     1      -2.826  -0.605   3.246  0.00  0.00    -0.212 NA
ATOM     14  O   UNL     1      -0.888  -4.452   5.589  0.00  0.00    -0.488 OA
ATOM     15  C   UNL     1      -1.405  -5.778   5.457  0.00  0.00    +0.232 C 
ATOM     16  C   UNL     1      -0.398  -6.683   4.764  0.00  0.00    +0.082 C 
ATOM     17  C   UNL     1      -0.134  -6.261   3.327  0.00  0.00    +0.232 C 
ATOM     18  O   UNL     1       0.488  -4.976   3.281  0.00  0.00    -0.488 OA
ATOM     19  N   UNL     1      -3.517   2.069  -0.582  0.00  0.00    -0.332 N 
ATOM     20  H   UNL     1      -3.394   2.157  -1.540  0.00  0.00    +0.145 HD
ATOM     21  H   UNL     1      -3.991   2.756  -0.088  0.00  0.00    +0.145 HD
ATOM     22  H   UNL     1      -2.582  -0.150  -1.567  0.00  0.00    +0.151 HD
ATOM     23  H   UNL     1      -3.709   1.532   1.868  0.00  0.00    +0.171 HD
ENDROOT
BRANCH   1  29
ATOM     24  C   UNL     1       0.425   0.649   1.143  0.00  0.00    +0.031 A 
ATOM     25  C   UNL     1       1.613   1.358   1.137  0.00  0.00    +0.043 A 
ATOM     26  C   UNL     1       2.381   1.414  -0.013  0.00  0.00    +0.043 A 
ATOM     27  C   UNL     1       1.962   0.761  -1.157  0.00  0.00    +0.084 A 
ATOM     28  C   UNL     1       0.770   0.050  -1.152  0.00  0.00    +0.142 A 
ATOM     29  C   UNL     1       0.003  -0.005   0.002  0.00  0.00    +0.037 A 
ATOM     30 CL   UNL     1       2.925   0.832  -2.600  0.00  0.00    -0.080 Cl
ATOM     31 CL   UNL     1       2.141   2.179   2.572  0.00  0.00    -0.083 Cl
BRANCH  28  32
ATOM     32  O   UNL     1       0.356  -0.593  -2.276  0.00  0.00    -0.505 OA
ATOM     33  H   UNL     1       0.731  -1.477  -2.385  0.00  0.00    +0.292 HD
ENDBRANCH  28  32
ENDBRANCH   1  29
TORSDOF 2
