REMARK  Name = ZINC17837565
REMARK  3 active torsions:
REMARK  status: ('A' for Active; 'I' for Inactive)
REMARK    1  A    between atoms: C_1  and  C_2
REMARK    2  A    between atoms: N_4  and  C_20
REMARK    3  A    between atoms: C_8  and  C_9
REMARK                            x       y       z     vdW  Elec       q    Type
REMARK                         _______ _______ _______ _____ _____    ______ ____
ROOT
ATOM      1  C   UNL     1      -1.076   1.363   0.254  0.00  0.00    +0.068 C 
ATOM      2  C   UNL     1      -0.711  -0.096   0.164  0.00  0.00    +0.069 C 
ATOM      3  N   UNL     1      -0.873  -0.868  -0.870  0.00  0.00    -0.176 NA
ATOM      4  N   UNL     1      -0.419  -2.158  -0.586  0.00  0.00    -0.154 N 
ATOM      5  C   UNL     1       0.049  -2.210   0.676  0.00  0.00    +0.272 C 
ATOM      6  O   UNL     1       0.516  -3.186   1.238  0.00  0.00    -0.268 OA
ATOM      7  C   UNL     1      -0.102  -0.906   1.226  0.00  0.00    +0.062 C 
ATOM      8  C   UNL     1       0.252  -0.487   2.505  0.00  0.00    +0.033 C 
ENDROOT
BRANCH   8   9
ATOM      9  C   UNL     1       0.159   0.873   2.850  0.00  0.00    +0.104 A 
ATOM     10  C   UNL     1       0.994   1.837   2.233  0.00  0.00    +0.265 A 
ATOM     11  N   UNL     1       0.874   3.140   2.592  0.00  0.00    -0.274 N 
ATOM     12  H   UNL     1       1.442   3.806   2.174  0.00  0.00    +0.173 HD
ATOM     13  C   UNL     1      -0.021   3.519   3.520  0.00  0.00    +0.329 A 
ATOM     14  O   UNL     1      -0.101   4.695   3.818  0.00  0.00    -0.247 OA
ATOM     15  N   UNL     1      -0.830   2.635   4.127  0.00  0.00    -0.274 N 
ATOM     16  H   UNL     1      -1.464   2.945   4.792  0.00  0.00    +0.173 HD
ATOM     17  C   UNL     1      -0.774   1.315   3.819  0.00  0.00    +0.265 A 
ATOM     18  O   UNL     1      -1.518   0.516   4.373  0.00  0.00    -0.267 OA
ATOM     19  O   UNL     1       1.812   1.499   1.387  0.00  0.00    -0.267 OA
ENDBRANCH   8   9
BRANCH   4  20
ATOM     20  C   UNL     1      -0.448  -3.237  -1.481  0.00  0.00    +0.097 A 
ATOM     21  C   UNL     1      -1.560  -4.067  -1.535  0.00  0.00    +0.067 A 
ATOM     22  C   UNL     1      -1.585  -5.130  -2.418  0.00  0.00    +0.042 A 
ATOM     23  C   UNL     1      -0.503  -5.368  -3.248  0.00  0.00    +0.044 A 
ATOM     24  C   UNL     1       0.606  -4.543  -3.196  0.00  0.00    +0.042 A 
ATOM     25  C   UNL     1       0.634  -3.475  -2.319  0.00  0.00    +0.067 A 
ATOM     26 CL   UNL     1       2.024  -2.436  -2.260  0.00  0.00    -0.081 Cl
ATOM     27 CL   UNL     1      -0.538  -6.705  -4.355  0.00  0.00    -0.083 Cl
ATOM     28 CL   UNL     1      -2.917  -3.771  -0.494  0.00  0.00    -0.081 Cl
ENDBRANCH   4  20
TORSDOF 2
