REMARK  Name = ZINC15922232
REMARK  3 active torsions:
REMARK  status: ('A' for Active; 'I' for Inactive)
REMARK    1  A    between atoms: C_1  and  C_2
REMARK    2  A    between atoms: C_5  and  N_13
REMARK    3  A    between atoms: N_13  and  N_14
REMARK                            x       y       z     vdW  Elec       q    Type
REMARK                         _______ _______ _______ _____ _____    ______ ____
ROOT
ATOM      1  N   UNL     1      -0.103  -1.526  -4.048  0.00  0.00    -0.233 N 
ATOM      2  C   UNL     1      -0.217  -1.306  -5.411  0.00  0.00    +0.253 A 
ATOM      3  N   UNL     1      -0.331  -0.065  -5.862  0.00  0.00    -0.193 NA
ATOM      4  C   UNL     1      -0.440   0.144  -7.171  0.00  0.00    +0.163 A 
ATOM      5  C   UNL     1      -0.431  -0.975  -8.030  0.00  0.00    +0.137 A 
ATOM      6  C   UNL     1      -0.567  -0.446  -9.398  0.00  0.00    +0.029 A 
ATOM      7  C   UNL     1      -0.621  -1.040 -10.657  0.00  0.00    +0.012 A 
ATOM      8  C   UNL     1      -0.756  -0.254 -11.781  0.00  0.00    +0.001 A 
ATOM      9  C   UNL     1      -0.836   1.125 -11.662  0.00  0.00    +0.002 A 
ATOM     10  C   UNL     1      -0.782   1.726 -10.423  0.00  0.00    +0.026 A 
ATOM     11  C   UNL     1      -0.648   0.950  -9.277  0.00  0.00    +0.050 A 
ATOM     12  N   UNL     1      -0.570   1.278  -7.933  0.00  0.00    -0.338 N 
ATOM     13  H   UNL     1      -0.603   2.181  -7.581  0.00  0.00    +0.167 HD
ATOM     14  N   UNL     1      -0.315  -2.189  -7.516  0.00  0.00    -0.142 NA
ATOM     15  N   UNL     1      -0.206  -2.344  -6.240  0.00  0.00    -0.111 NA
ATOM     16  H   UNL     1      -0.110  -0.775  -3.434  0.00  0.00    +0.173 HD
ENDROOT
BRANCH   1  17
ATOM     17  N   UNL     1       0.023  -2.832  -3.557  0.00  0.00    -0.259 N 
ATOM     18  H   UNL     1       0.118  -3.575  -4.173  0.00  0.00    +0.170 HD
BRANCH  17  23
ATOM     19  C   UNL     1      -1.022   1.392  -0.009  0.00  0.00    +0.044 C 
ATOM     20  C   UNL     1      -0.711  -0.083  -0.012  0.00  0.00    -0.049 A 
ATOM     21  C   UNL     1      -0.519  -0.743  -1.210  0.00  0.00    +0.015 A 
ATOM     22  C   UNL     1      -0.231  -2.113  -1.209  0.00  0.00    +0.025 A 
ATOM     23  C   UNL     1       0.012  -3.054  -2.240  0.00  0.00    +0.116 C 
ATOM     24  C   UNL     1       0.255  -4.357  -1.529  0.00  0.00    +0.264 C 
ATOM     25  O   UNL     1       0.503  -5.427  -2.054  0.00  0.00    -0.268 OA
ATOM     26  N   UNL     1       0.150  -4.129  -0.233  0.00  0.00    -0.279 N 
ATOM     27  C   UNL     1      -0.136  -2.819   0.018  0.00  0.00    +0.057 A 
ATOM     28  C   UNL     1      -0.334  -2.127   1.210  0.00  0.00    +0.040 A 
ATOM     29  C   UNL     1      -0.614  -0.769   1.188  0.00  0.00    +0.020 A 
ATOM     30 BR   UNL     1      -0.215  -3.040   2.862  0.00  0.00    -0.048 Br
ATOM     31  H   UNL     1       0.262  -4.806   0.453  0.00  0.00    +0.155 HD
ENDBRANCH  17  23
ENDBRANCH   1  17
TORSDOF 2
