REMARK  Name = ZINC43883836
REMARK  8 active torsions:
REMARK  status: ('A' for Active; 'I' for Inactive)
REMARK    1  A    between atoms: C_1  and  C_2
REMARK    2  A    between atoms: C_2  and  C_3
REMARK    3  A    between atoms: C_3  and  C_4
REMARK    4  A    between atoms: C_8  and  N_20
REMARK    5  A    between atoms: C_10  and  N_13
REMARK    6  A    between atoms: N_13  and  C_14
REMARK    7  A    between atoms: N_13  and  C_15
REMARK    8  A    between atoms: N_20  and  C_21
REMARK                            x       y       z     vdW  Elec       q    Type
REMARK                         _______ _______ _______ _____ _____    ______ ____
ROOT
ATOM      1  C   UNL     1       0.691  -1.742   1.282  0.00  0.00    -0.013 C 
ATOM      2  C   UNL     1      -0.592  -2.533   1.017  0.00  0.00    +0.002 C 
ATOM      3  C   UNL     1      -0.240  -3.994   0.731  0.00  0.00    -0.017 C 
ATOM      4  C   UNL     1       0.487  -4.590   1.938  0.00  0.00    -0.086 C 
ATOM      5  C   UNL     1       1.769  -3.799   2.203  0.00  0.00    -0.083 C 
ATOM      6  C   UNL     1       1.417  -2.337   2.489  0.00  0.00    -0.013 C 
ENDROOT
BRANCH   4   7
ATOM      7  N   UNL     1       0.825  -5.993   1.663  0.00  0.00    +0.378 N 
ATOM      8  C   UNL     1      -0.409  -6.779   1.542  0.00  0.00    -0.100 C 
ATOM      9  H   UNL     1       1.346  -6.050   0.801  0.00  0.00    -0.086 HD
ATOM     10  H   UNL     1       1.384  -6.358   2.420  0.00  0.00    -0.086 HD
ENDBRANCH   4   7
BRANCH   5  11
ATOM     11  N   UNL     1       2.467  -4.370   3.362  0.00  0.00    +0.381 N 
ATOM     12  C   UNL     1       3.867  -3.926   3.359  0.00  0.00    -0.095 C 
ATOM     13  H   UNL     1       2.433  -5.378   3.312  0.00  0.00    -0.082 HD
BRANCH  11  14
ATOM     14  C   UNL     1       1.813  -3.920   4.598  0.00  0.00    -0.069 C 
ATOM     15  C   UNL     1       0.433  -4.603   4.762  0.00  0.00    -0.015 C 
ATOM     16  C   UNL     1       0.190  -4.521   6.290  0.00  0.00    -0.002 C 
ATOM     17  C   UNL     1       1.582  -4.766   6.908  0.00  0.00    -0.002 C 
ATOM     18  C   UNL     1       2.614  -4.384   5.833  0.00  0.00    -0.015 C 
ENDBRANCH  11  14
ENDBRANCH   5  11
BRANCH   1  19
ATOM     19  C   UNL     1       0.338  -0.281   1.568  0.00  0.00    +0.003 C 
BRANCH  19  21
ATOM     20  C   UNL     1      -0.628   1.812   0.604  0.00  0.00    +0.004 C 
ATOM     21  C   UNL     1      -0.276   0.350   0.317  0.00  0.00    -0.003 C 
ENDBRANCH  19  21
ENDBRANCH   1  19
TORSDOF 5
