REMARK  Name = ZINC55129178
REMARK  8 active torsions:
REMARK  status: ('A' for Active; 'I' for Inactive)
REMARK    1  A    between atoms: C_1  and  C_2
REMARK    2  A    between atoms: C_2  and  N_3
REMARK    3  A    between atoms: C_4  and  C_6
REMARK    4  A    between atoms: C_6  and  C_8
REMARK    5  A    between atoms: C_6  and  N_9
REMARK    6  A    between atoms: C_10  and  C_12
REMARK    7  A    between atoms: C_12  and  C_13
REMARK    8  A    between atoms: C_18  and  N_21
REMARK                            x       y       z     vdW  Elec       q    Type
REMARK                         _______ _______ _______ _____ _____    ______ ____
ROOT
ATOM      1  N   UNL     1       1.552  -3.749  -2.673  0.00  0.00    -0.304 N 
ATOM      2  C   UNL     1       1.652  -4.416  -3.840  0.00  0.00    +0.214 C 
ATOM      3  O   UNL     1       1.725  -3.803  -4.884  0.00  0.00    -0.276 OA
ATOM      4  H   UNL     1       1.493  -4.240  -1.838  0.00  0.00    +0.149 HD
ENDROOT
BRANCH   1   5
ATOM      5  C   UNL     1       1.532  -2.285  -2.665  0.00  0.00    +0.156 C 
ATOM      6  C   UNL     1       2.968  -1.755  -2.676  0.00  0.00    +0.038 C 
BRANCH   5   8
ATOM      7  N   UNL     1       0.688  -0.476  -1.203  0.00  0.00    -0.314 N 
ATOM      8  C   UNL     1       0.827  -1.799  -1.425  0.00  0.00    +0.233 C 
ATOM      9  O   UNL     1       0.384  -2.597  -0.627  0.00  0.00    -0.274 OA
ATOM     10  H   UNL     1       1.042   0.162  -1.842  0.00  0.00    +0.149 HD
BRANCH   7  12
ATOM     11  C   UNL     1      -0.019   1.526   0.010  0.00  0.00    +0.024 C 
ATOM     12  C   UNL     1       0.002  -0.004   0.002  0.00  0.00    +0.101 C 
ENDBRANCH   7  12
ENDBRANCH   5   8
ENDBRANCH   1   5
BRANCH   2  13
ATOM     13  C   UNL     1       1.672  -5.923  -3.849  0.00  0.00    +0.099 C 
BRANCH  13  14
ATOM     14  C   UNL     1       1.791  -6.423  -5.290  0.00  0.00    -0.004 C 
ATOM     15  C   UNL     1       3.142  -5.997  -5.868  0.00  0.00    +0.004 C 
ATOM     16  C   UNL     1       3.261  -6.497  -7.309  0.00  0.00    -0.001 C 
ATOM     17  C   UNL     1       3.156  -8.024  -7.329  0.00  0.00    -0.016 C 
ATOM     18  C   UNL     1       1.806  -8.450  -6.750  0.00  0.00    -0.075 C 
ATOM     19  C   UNL     1       1.687  -7.949  -5.309  0.00  0.00    -0.012 C 
BRANCH  18  20
ATOM     20  N   UNL     1       0.723  -7.874  -7.560  0.00  0.00    +0.380 N 
ATOM     21  H   UNL     1       0.801  -8.204  -8.510  0.00  0.00    -0.090 HD
ATOM     22  H   UNL     1      -0.168  -8.155  -7.178  0.00  0.00    -0.090 HD
ATOM     23  H   UNL     1       0.792  -6.868  -7.546  0.00  0.00    -0.090 HD
ENDBRANCH  18  20
ENDBRANCH  13  14
ENDBRANCH   2  13
TORSDOF 6
