REMARK  Name = ZINC63855883
REMARK  6 active torsions:
REMARK  status: ('A' for Active; 'I' for Inactive)
REMARK    1  A    between atoms: C_6  and  C_7
REMARK    2  A    between atoms: C_9  and  C_12
REMARK    3  A    between atoms: C_12  and  N_13
REMARK    4  A    between atoms: N_13  and  C_14
REMARK    5  A    between atoms: C_14  and  C_15
REMARK    6  A    between atoms: C_15  and  O_26
REMARK                            x       y       z     vdW  Elec       q    Type
REMARK                         _______ _______ _______ _____ _____    ______ ____
ROOT
ATOM      1  N   UNL     1      -5.376  -0.952  -1.343  0.00  0.00    +0.386 N 
ATOM      2  H   UNL     1      -4.936  -0.179  -1.821  0.00  0.00    -0.085 HD
ATOM      3  H   UNL     1      -5.156  -1.812  -1.821  0.00  0.00    -0.085 HD
ENDROOT
BRANCH   1   4
ATOM      4  C   UNL     1      -4.880  -1.018   0.038  0.00  0.00    -0.001 C 
BRANCH   4   7
ATOM      5  C   UNL     1      -1.265  -0.761   0.011  0.00  0.00    +0.259 A 
ATOM      6  N   UNL     1      -2.475  -0.245   0.021  0.00  0.00    -0.194 NA
ATOM      7  C   UNL     1      -3.387  -1.219   0.027  0.00  0.00    +0.155 A 
ATOM      8  N   UNL     1      -2.780  -2.372   0.021  0.00  0.00    -0.063 NA
ATOM      9  O   UNL     1      -1.386  -2.101   0.004  0.00  0.00    -0.333 OA
BRANCH   5  15
ATOM     10  C   UNL     1      -0.017   1.392   0.010  0.00  0.00    +0.017 A 
ATOM     11  C   UNL     1       1.168   2.098   0.002  0.00  0.00    +0.050 A 
ATOM     12  C   UNL     1       2.381   1.425  -0.013  0.00  0.00    +0.166 A 
ATOM     13  C   UNL     1       2.407   0.030  -0.021  0.00  0.00    +0.167 A 
ATOM     14  C   UNL     1       1.223  -0.682  -0.014  0.00  0.00    +0.062 A 
ATOM     15  C   UNL     1       0.002  -0.004   0.002  0.00  0.00    +0.043 A 
ATOM     16  O   UNL     1       3.709  -0.382  -0.037  0.00  0.00    -0.453 OA
ATOM     17  C   UNL     1       4.470   0.768  -0.451  0.00  0.00    +0.466 C 
ATOM     18  O   UNL     1       3.666   1.883  -0.023  0.00  0.00    -0.453 OA
ENDBRANCH   5  15
ENDBRANCH   4   7
ENDBRANCH   1   4
BRANCH   1  19
ATOM     19  C   UNL     1      -6.832  -0.755  -1.332  0.00  0.00    -0.049 C 
BRANCH  19  20
ATOM     20  C   UNL     1      -7.348  -0.686  -2.770  0.00  0.00    +0.039 C 
ATOM     21  C   UNL     1      -6.586   0.399  -3.532  0.00  0.00    +0.029 C 
ATOM     22  C   UNL     1      -6.868   1.753  -2.871  0.00  0.00    -0.016 C 
ATOM     23  C   UNL     1      -8.376   2.002  -2.881  0.00  0.00    -0.078 C 
ATOM     24  N   UNL     1      -9.068   0.947  -2.126  0.00  0.00    +0.383 N 
ATOM     25  C   UNL     1      -8.845  -0.357  -2.759  0.00  0.00    -0.038 C 
ATOM     26  C   UNL     1      -9.568  -1.454  -1.970  0.00  0.00    -0.013 C 
ATOM     27  C   UNL     1     -11.066  -1.152  -1.917  0.00  0.00    -0.003 C 
ATOM     28  C   UNL     1     -11.265   0.230  -1.286  0.00  0.00    -0.019 C 
ATOM     29  C   UNL     1     -10.504   1.265  -2.113  0.00  0.00    -0.078 C 
ATOM     30  H   UNL     1      -8.720   0.925  -1.180  0.00  0.00    -0.081 HD
BRANCH  20  31
ATOM     31  O   UNL     1      -7.144  -1.947  -3.410  0.00  0.00    -0.392 OA
ATOM     32  H   UNL     1      -6.217  -2.221  -3.452  0.00  0.00    +0.210 HD
ENDBRANCH  20  31
ENDBRANCH  19  20
ENDBRANCH   1  19
TORSDOF 6
