REMARK  Name = ZINC62800236
REMARK  6 active torsions:
REMARK  status: ('A' for Active; 'I' for Inactive)
REMARK    1  A    between atoms: C_1  and  N_2
REMARK    2  A    between atoms: N_2  and  C_3
REMARK    3  A    between atoms: C_6  and  C_8
REMARK    4  A    between atoms: C_8  and  O_9
REMARK    5  A    between atoms: O_9  and  C_10
REMARK    6  A    between atoms: N_19  and  O_20
REMARK                            x       y       z     vdW  Elec       q    Type
REMARK                         _______ _______ _______ _____ _____    ______ ____
ROOT
ATOM      1  C   UNL     1      -0.039  -0.308  -4.814  0.00  0.00    +0.125 A 
ATOM      2  C   UNL     1      -0.054   1.069  -4.986  0.00  0.00    +0.046 A 
ATOM      3  C   UNL     1      -0.073   1.609  -6.258  0.00  0.00    +0.004 A 
ATOM      4  C   UNL     1      -0.079   0.782  -7.362  0.00  0.00    +0.010 A 
ATOM      5  C   UNL     1      -0.064  -0.610  -7.200  0.00  0.00    +0.006 A 
ATOM      6  C   UNL     1      -0.038  -1.149  -5.917  0.00  0.00    +0.004 A 
ATOM      7  C   UNL     1      -0.019  -2.656  -6.000  0.00  0.00    +0.046 C 
ATOM      8  C   UNL     1      -0.029  -3.008  -7.494  0.00  0.00    +0.064 C 
ATOM      9  C   UNL     1      -0.066  -1.683  -8.215  0.00  0.00    +0.088 C 
ATOM     10  N   UNL     1      -0.083  -1.516  -9.498  0.00  0.00    -0.092 NA
ENDROOT
BRANCH  10  11
ATOM     11  O   UNL     1      -0.083  -2.641 -10.358  0.00  0.00    -0.409 OA
ATOM     12  H   UNL     1      -0.097  -2.416 -11.299  0.00  0.00    +0.328 HD
ENDBRANCH  10  11
BRANCH   1  13
ATOM     13  O   UNL     1      -0.020  -0.834  -3.561  0.00  0.00    -0.482 OA
BRANCH  13  14
ATOM     14  C   UNL     1      -0.023   0.089  -2.470  0.00  0.00    +0.324 C 
BRANCH  14  17
ATOM     15  C   UNL     1      -0.018   1.461   0.010  0.00  0.00    +0.132 C 
ATOM     16  N   UNL     1       0.002  -0.004   0.002  0.00  0.00    -0.299 N 
ATOM     17  C   UNL     1       0.000  -0.672  -1.169  0.00  0.00    +0.253 C 
ATOM     18  O   UNL     1       0.017  -1.884  -1.175  0.00  0.00    -0.272 OA
BRANCH  16  19
ATOM     19  C   UNL     1       0.024  -0.743   1.267  0.00  0.00    +0.076 C 
ATOM     20  C   UNL     1      -0.178   0.056   2.556  0.00  0.00    +0.024 C 
ATOM     21  C   UNL     1       1.205  -0.498   2.208  0.00  0.00    +0.024 C 
ENDBRANCH  16  19
ENDBRANCH  14  17
ENDBRANCH  13  14
ENDBRANCH   1  13
TORSDOF 5
