REMARK  Name = ZINC00134903
REMARK  6 active torsions:
REMARK  status: ('A' for Active; 'I' for Inactive)
REMARK    1  A    between atoms: C_1  and  C_2
REMARK    2  A    between atoms: C_2  and  C_16
REMARK    3  A    between atoms: C_4  and  C_7
REMARK    4  A    between atoms: C_10  and  N_13
REMARK    5  A    between atoms: C_18  and  O_23
REMARK    6  A    between atoms: C_21  and  O_22
REMARK                            x       y       z     vdW  Elec       q    Type
REMARK                         _______ _______ _______ _____ _____    ______ ____
ROOT
ATOM      1  C   UNL     1      -1.273  -3.562   2.694  0.00  0.00    +0.025 C 
ATOM      2  C   UNL     1       0.064  -2.846   2.492  0.00  0.00    +0.064 C 
ATOM      3  C   UNL     1       1.544  -2.381   4.276  0.00  0.00    -0.041 C 
ATOM      4  C   UNL     1       1.632  -3.861   3.829  0.00  0.00    +0.130 C 
ATOM      5  O   UNL     1       1.132  -3.808   2.474  0.00  0.00    -0.381 OA
ATOM      6  N   UNL     1       0.316  -1.931   3.605  0.00  0.00    +0.403 N 
ATOM      7  H   UNL     1      -0.472  -1.954   4.263  0.00  0.00    -0.081 HD
ATOM      8  H   UNL     1       0.440  -0.975   3.252  0.00  0.00    -0.081 HD
ENDROOT
BRANCH   4   9
ATOM      9  C   UNL     1       3.059  -4.345   3.859  0.00  0.00    -0.021 A 
ATOM     10  C   UNL     1       3.915  -4.039   2.817  0.00  0.00    +0.008 A 
ATOM     11  C   UNL     1       5.225  -4.478   2.846  0.00  0.00    +0.033 A 
ATOM     12  C   UNL     1       5.677  -5.233   3.913  0.00  0.00    +0.126 A 
ATOM     13  C   UNL     1       4.820  -5.544   4.952  0.00  0.00    +0.033 A 
ATOM     14  C   UNL     1       3.511  -5.100   4.925  0.00  0.00    +0.008 A 
BRANCH  12  15
ATOM     15  N   UNL     1       7.078  -5.709   3.941  0.00  0.00    +0.056 N 
ATOM     16  O   UNL     1       7.476  -6.375   4.880  0.00  0.00    -0.126 OA
ATOM     17  O   UNL     1       7.833  -5.435   3.025  0.00  0.00    -0.126 OA
ENDBRANCH  12  15
ENDBRANCH   4   9
BRANCH   2  18
ATOM     18  C   UNL     1       0.042  -2.085   1.192  0.00  0.00    +0.011 A 
ATOM     19  C   UNL     1       0.887  -2.452   0.162  0.00  0.00    +0.053 A 
ATOM     20  C   UNL     1       0.867  -1.752  -1.035  0.00  0.00    +0.117 A 
ATOM     21  C   UNL     1       0.002  -0.680  -1.196  0.00  0.00    +0.049 A 
ATOM     22  C   UNL     1      -0.847  -0.317  -0.170  0.00  0.00    +0.049 A 
ATOM     23  C   UNL     1      -0.827  -1.017   1.028  0.00  0.00    +0.121 A 
BRANCH  23  24
ATOM     24  O   UNL     1      -1.659  -0.656   2.041  0.00  0.00    -0.506 OA
ATOM     25  H   UNL     1      -1.283  -0.002   2.645  0.00  0.00    +0.292 HD
ENDBRANCH  23  24
BRANCH  20  26
ATOM     26  O   UNL     1       1.699  -2.113  -2.048  0.00  0.00    -0.507 OA
ATOM     27  H   UNL     1       1.322  -2.768  -2.652  0.00  0.00    +0.292 HD
ENDBRANCH  20  26
ENDBRANCH   2  18
TORSDOF 5
