REMARK  Name = ZINC00237652
REMARK  8 active torsions:
REMARK  status: ('A' for Active; 'I' for Inactive)
REMARK    1  A    between atoms: C_1  and  O_2
REMARK    2  A    between atoms: O_2  and  C_3
REMARK    3  A    between atoms: C_8  and  N_9
REMARK    4  A    between atoms: N_9  and  N_10
REMARK    5  A    between atoms: C_11  and  C_13
REMARK    6  A    between atoms: C_13  and  C_14
REMARK    7  A    between atoms: C_13  and  C_20
REMARK    8  A    between atoms: C_13  and  O_26
REMARK                            x       y       z     vdW  Elec       q    Type
REMARK                         _______ _______ _______ _____ _____    ______ ____
ROOT
ATOM      1  C   UNL     1       0.941  -6.407  -0.041  0.00  0.00    +0.194 C 
ENDROOT
BRANCH   1   2
ATOM      2  C   UNL     1       2.331  -6.618  -0.583  0.00  0.00    -0.003 A 
ATOM      3  C   UNL     1       2.536  -7.479  -1.646  0.00  0.00    +0.007 A 
ATOM      4  C   UNL     1       3.811  -7.673  -2.143  0.00  0.00    +0.000 A 
ATOM      5  C   UNL     1       4.882  -7.006  -1.578  0.00  0.00    +0.000 A 
ATOM      6  C   UNL     1       4.677  -6.144  -0.516  0.00  0.00    +0.000 A 
ATOM      7  C   UNL     1       3.401  -5.947  -0.022  0.00  0.00    +0.007 A 
ENDBRANCH   1   2
BRANCH   1   8
ATOM      8  C   UNL     1       0.934  -6.674   1.442  0.00  0.00    -0.003 A 
ATOM      9  C   UNL     1       1.386  -5.707   2.320  0.00  0.00    +0.007 A 
ATOM     10  C   UNL     1       1.380  -5.952   3.681  0.00  0.00    +0.000 A 
ATOM     11  C   UNL     1       0.921  -7.164   4.163  0.00  0.00    +0.000 A 
ATOM     12  C   UNL     1       0.468  -8.130   3.284  0.00  0.00    +0.000 A 
ATOM     13  C   UNL     1       0.470  -7.884   1.924  0.00  0.00    +0.007 A 
ENDBRANCH   1   8
BRANCH   1  15
ATOM     14  N   UNL     1      -0.797  -4.681  -0.380  0.00  0.00    -0.233 N 
ATOM     15  C   UNL     1       0.513  -4.985  -0.298  0.00  0.00    +0.270 C 
ATOM     16  O   UNL     1       1.347  -4.115  -0.430  0.00  0.00    -0.270 OA
ATOM     17  H   UNL     1      -1.465  -5.377  -0.274  0.00  0.00    +0.173 HD
BRANCH  14  18
ATOM     18  N   UNL     1      -1.196  -3.359  -0.618  0.00  0.00    -0.261 N 
ATOM     19  H   UNL     1      -0.528  -2.663  -0.724  0.00  0.00    +0.170 HD
BRANCH  18  25
ATOM     20  C   UNL     1      -2.955  -1.728  -0.940  0.00  0.00    +0.142 A 
ATOM     21  C   UNL     1      -4.303  -1.422  -1.030  0.00  0.00    +0.047 A 
ATOM     22  C   UNL     1      -5.250  -2.418  -0.878  0.00  0.00    +0.004 A 
ATOM     23  C   UNL     1      -4.856  -3.721  -0.637  0.00  0.00    +0.002 A 
ATOM     24  C   UNL     1      -3.513  -4.035  -0.547  0.00  0.00    +0.028 A 
ATOM     25  C   UNL     1      -2.557  -3.042  -0.703  0.00  0.00    +0.086 A 
BRANCH  20  27
ATOM     26  C   UNL     1      -2.503   0.574  -1.330  0.00  0.00    +0.277 C 
ATOM     27  O   UNL     1      -2.022  -0.750  -1.089  0.00  0.00    -0.493 OA
ENDBRANCH  20  27
ENDBRANCH  18  25
ENDBRANCH  14  18
ENDBRANCH   1  15
BRANCH   1  28
ATOM     28  O   UNL     1       0.036  -7.302  -0.691  0.00  0.00    -0.371 OA
ATOM     29  H   UNL     1      -0.011  -7.186  -1.650  0.00  0.00    +0.212 HD
ENDBRANCH   1  28
TORSDOF 7
