REMARK  Name = ZINC01330117
REMARK  6 active torsions:
REMARK  status: ('A' for Active; 'I' for Inactive)
REMARK    1  A    between atoms: C_1  and  C_2
REMARK    2  A    between atoms: C_7  and  C_22
REMARK    3  A    between atoms: C_8  and  N_11
REMARK    4  A    between atoms: N_11  and  C_12
REMARK    5  A    between atoms: C_12  and  C_13
REMARK    6  A    between atoms: C_28  and  C_34
REMARK                            x       y       z     vdW  Elec       q    Type
REMARK                         _______ _______ _______ _____ _____    ______ ____
ROOT
ATOM      1  C   UNL     1       1.051  -4.652  10.438  0.00  0.00    +0.045 C 
ATOM      2  C   UNL     1       0.934  -4.609   8.936  0.00  0.00    -0.034 A 
ATOM      3  C   UNL     1       1.030  -5.799   8.193  0.00  0.00    +0.008 A 
ATOM      4  C   UNL     1       0.924  -5.760   6.838  0.00  0.00    +0.047 A 
ATOM      5  C   UNL     1       0.720  -4.520   6.195  0.00  0.00    +0.140 A 
ATOM      6  N   UNL     1       0.586  -4.199   4.918  0.00  0.00    -0.226 NA
ATOM      7  C   UNL     1       0.409  -2.869   4.812  0.00  0.00    +0.117 A 
ATOM      8  C   UNL     1       0.441  -2.331   6.083  0.00  0.00    +0.131 A 
ATOM      9  N   UNL     1       0.630  -3.372   6.949  0.00  0.00    -0.287 N 
ATOM     10  C   UNL     1       0.738  -3.430   8.312  0.00  0.00    +0.097 A 
ENDROOT
BRANCH   7  11
ATOM     11  C   UNL     1       0.222  -2.115   3.553  0.00  0.00    +0.069 A 
ATOM     12  C   UNL     1       0.176  -0.748   3.568  0.00  0.00    +0.025 A 
ATOM     13  C   UNL     1      -0.004  -0.047   2.348  0.00  0.00    -0.001 A 
ATOM     14  C   UNL     1      -0.054   1.354   2.337  0.00  0.00    +0.010 A 
ATOM     15  C   UNL     1      -0.229   2.019   1.158  0.00  0.00    +0.001 A 
ATOM     16  C   UNL     1      -0.353   1.320  -0.035  0.00  0.00    +0.005 A 
ATOM     17  C   UNL     1      -0.313  -0.057  -0.049  0.00  0.00    -0.026 A 
ATOM     18  C   UNL     1      -0.135  -0.758   1.141  0.00  0.00    +0.052 A 
ATOM     19  N   UNL     1      -0.088  -2.138   1.133  0.00  0.00    -0.321 N 
ATOM     20  H   UNL     1      -0.179  -2.616   0.294  0.00  0.00    +0.169 HD
ATOM     21  C   UNL     1       0.083  -2.826   2.278  0.00  0.00    +0.259 A 
ATOM     22  O   UNL     1       0.122  -4.044   2.254  0.00  0.00    -0.267 OA
ATOM     23  C   UNL     1      -0.455  -0.804  -1.350  0.00  0.00    +0.046 C 
ENDBRANCH   7  11
BRANCH   8  24
ATOM     24  N   UNL     1       0.302  -0.985   6.420  0.00  0.00    -0.324 N 
ATOM     25  H   UNL     1      -0.598  -0.631   6.134  0.00  0.00    +0.148 HD
BRANCH  24  26
ATOM     26  C   UNL     1       0.516  -0.777   7.859  0.00  0.00    +0.138 C 
BRANCH  26  27
ATOM     27  C   UNL     1       0.504   0.699   8.161  0.00  0.00    -0.027 A 
ATOM     28  C   UNL     1       1.682   1.421   8.122  0.00  0.00    +0.009 A 
ATOM     29  C   UNL     1       1.675   2.776   8.393  0.00  0.00    +0.050 A 
ATOM     30  C   UNL     1       0.487   3.413   8.716  0.00  0.00    +0.166 A 
ATOM     31  C   UNL     1      -0.699   2.684   8.760  0.00  0.00    +0.167 A 
ATOM     32  C   UNL     1      -0.685   1.327   8.482  0.00  0.00    +0.054 A 
ATOM     33  O   UNL     1      -1.717   3.529   9.098  0.00  0.00    -0.453 OA
ATOM     34  C   UNL     1      -1.081   4.693   9.658  0.00  0.00    +0.466 C 
ATOM     35  O   UNL     1       0.212   4.713   9.026  0.00  0.00    -0.453 OA
ENDBRANCH  26  27
ENDBRANCH  24  26
ENDBRANCH   8  24
TORSDOF 4
