REMARK  Name = ZINC58377687
REMARK  6 active torsions:
REMARK  status: ('A' for Active; 'I' for Inactive)
REMARK    1  A    between atoms: C_1  and  C_2
REMARK    2  A    between atoms: C_10  and  C_11
REMARK    3  A    between atoms: C_11  and  C_13
REMARK    4  A    between atoms: C_11  and  N_14
REMARK    5  A    between atoms: N_14  and  C_15
REMARK    6  A    between atoms: C_15  and  C_16
REMARK                            x       y       z     vdW  Elec       q    Type
REMARK                         _______ _______ _______ _____ _____    ______ ____
ROOT
ATOM      1  N   UNL     1       1.028  -1.121   3.260  0.00  0.00    +0.386 N 
ATOM      2  H   UNL     1       0.750  -2.090   3.294  0.00  0.00    -0.085 HD
ATOM      3  H   UNL     1       1.926  -1.043   2.808  0.00  0.00    -0.085 HD
ENDROOT
BRANCH   1   4
ATOM      4  C   UNL     1       0.030  -0.352   2.503  0.00  0.00    -0.007 C 
ATOM      5  C   UNL     1      -1.354  -0.570   3.116  0.00  0.00    -0.006 C 
BRANCH   4  15
ATOM      6  C   UNL     1      -0.018   1.503   0.010  0.00  0.00    +0.048 C 
ATOM      7  C   UNL     1       0.002  -0.004   0.002  0.00  0.00    -0.003 A 
ATOM      8  C   UNL     1       0.009  -0.879  -1.177  0.00  0.00    +0.023 A 
ATOM      9  C   UNL     1       0.000  -0.660  -2.553  0.00  0.00    +0.012 A 
ATOM     10  C   UNL     1       0.011  -1.726  -3.409  0.00  0.00    +0.001 A 
ATOM     11  C   UNL     1       0.031  -3.023  -2.916  0.00  0.00    +0.004 A 
ATOM     12  C   UNL     1       0.040  -3.259  -1.558  0.00  0.00    +0.047 A 
ATOM     13  C   UNL     1       0.029  -2.190  -0.671  0.00  0.00    +0.135 A 
ATOM     14  O   UNL     1       0.033  -2.100   0.674  0.00  0.00    -0.461 OA
ATOM     15  C   UNL     1       0.023  -0.814   1.069  0.00  0.00    +0.095 A 
ENDBRANCH   4  15
ENDBRANCH   1   4
BRANCH   1  16
ATOM     16  C   UNL     1       1.120  -0.590   4.627  0.00  0.00    -0.075 C 
BRANCH  16  17
ATOM     17  C   UNL     1       2.158  -1.391   5.416  0.00  0.00    +0.010 C 
ATOM     18  C   UNL     1       3.544  -1.175   4.798  0.00  0.00    +0.106 C 
ATOM     19  N   UNL     1       4.519  -2.009   5.529  0.00  0.00    -0.329 N 
ATOM     20  C   UNL     1       4.398  -2.019   6.920  0.00  0.00    +0.117 A 
ATOM     21  C   UNL     1       5.255  -2.486   7.854  0.00  0.00    +0.064 A 
ATOM     22  C   UNL     1       4.675  -2.262   9.110  0.00  0.00    +0.136 A 
ATOM     23  N   UNL     1       3.513  -1.682   8.932  0.00  0.00    -0.178 NA
ATOM     24  N   UNL     1       3.311  -1.517   7.562  0.00  0.00    -0.251 N 
ATOM     25  C   UNL     1       2.162  -0.922   6.875  0.00  0.00    +0.148 C 
ATOM     26  H   UNL     1       5.203  -2.521   5.069  0.00  0.00    +0.147 HD
ENDBRANCH  16  17
ENDBRANCH   1  16
TORSDOF 4
