REMARK  Name = ZINC41698770
REMARK  8 active torsions:
REMARK  status: ('A' for Active; 'I' for Inactive)
REMARK    1  A    between atoms: C_6  and  C_7
REMARK    2  A    between atoms: C_7  and  C_8
REMARK    3  A    between atoms: C_8  and  N_9
REMARK    4  A    between atoms: C_10  and  C_12
REMARK    5  A    between atoms: C_12  and  C_22
REMARK    6  A    between atoms: C_13  and  C_14
REMARK    7  A    between atoms: C_17  and  O_21
REMARK    8  A    between atoms: C_18  and  O_20
REMARK                            x       y       z     vdW  Elec       q    Type
REMARK                         _______ _______ _______ _____ _____    ______ ____
ROOT
ATOM      1  C   UNL     1      -4.861  -2.865  -2.576  0.00  0.00    +0.114 C 
ATOM      2  C   UNL     1      -5.462  -3.213  -3.766  0.00  0.00    +0.032 C 
ENDROOT
BRANCH   2   3
ATOM      3  C   UNL     1      -6.660  -4.055  -3.762  0.00  0.00    -0.020 A 
ATOM      4  C   UNL     1      -6.867  -4.990  -4.786  0.00  0.00    +0.012 A 
ATOM      5  C   UNL     1      -7.995  -5.780  -4.778  0.00  0.00    +0.050 A 
ATOM      6  C   UNL     1      -8.930  -5.653  -3.758  0.00  0.00    +0.158 A 
ATOM      7  C   UNL     1      -8.732  -4.725  -2.735  0.00  0.00    +0.159 A 
ATOM      8  C   UNL     1      -7.602  -3.933  -2.730  0.00  0.00    +0.057 A 
BRANCH   7   9
ATOM      9  O   UNL     1      -9.651  -4.605  -1.740  0.00  0.00    -0.503 OA
ATOM     10  H   UNL     1      -9.486  -5.181  -0.981  0.00  0.00    +0.292 HD
ENDBRANCH   7   9
BRANCH   6  11
ATOM     11  O   UNL     1     -10.040  -6.434  -3.757  0.00  0.00    -0.503 OA
ATOM     12  H   UNL     1      -9.931  -7.272  -3.286  0.00  0.00    +0.292 HD
ENDBRANCH   6  11
ENDBRANCH   2   3
BRANCH   1  14
ATOM     13  N   UNL     1      -3.173  -1.546  -1.403  0.00  0.00    -0.310 N 
ATOM     14  C   UNL     1      -3.761  -1.887  -2.567  0.00  0.00    +0.254 C 
ATOM     15  O   UNL     1      -3.383  -1.387  -3.609  0.00  0.00    -0.269 OA
ATOM     16  H   UNL     1      -3.475  -1.944  -0.572  0.00  0.00    +0.149 HD
BRANCH  13  17
ATOM     17  C   UNL     1      -2.078  -0.573  -1.394  0.00  0.00    +0.109 C 
BRANCH  17  18
ATOM     18  C   UNL     1      -1.592  -0.365   0.042  0.00  0.00    +0.054 C 
BRANCH  18  24
ATOM     19  C   UNL     1      -0.740   1.983   0.196  0.00  0.00    +0.006 A 
ATOM     20  C   UNL     1       0.292   2.902   0.205  0.00  0.00    +0.038 A 
ATOM     21  C   UNL     1       1.601   2.473   0.070  0.00  0.00    +0.123 A 
ATOM     22  C   UNL     1       1.875   1.123  -0.074  0.00  0.00    +0.038 A 
ATOM     23  C   UNL     1       0.841   0.206  -0.083  0.00  0.00    +0.006 A 
ATOM     24  C   UNL     1      -0.466   0.636   0.052  0.00  0.00    -0.046 A 
ATOM     25  F   UNL     1       2.611   3.370   0.078  0.00  0.00    -0.205 F 
ENDBRANCH  18  24
ENDBRANCH  17  18
ENDBRANCH  13  17
ENDBRANCH   1  14
BRANCH   1  26
ATOM     26  C   UNL     1      -5.306  -3.453  -1.349  0.00  0.00    +0.104 C 
ATOM     27  N   UNL     1      -5.660  -3.920  -0.376  0.00  0.00    -0.191 NA
ENDBRANCH   1  26
TORSDOF 8
