REMARK  Name = ZINC43685148
REMARK  7 active torsions:
REMARK  status: ('A' for Active; 'I' for Inactive)
REMARK    1  A    between atoms: C_3  and  O_10
REMARK    2  A    between atoms: C_6  and  C_7
REMARK    3  A    between atoms: O_10  and  C_11
REMARK    4  A    between atoms: C_11  and  C_12
REMARK    5  A    between atoms: C_15  and  C_17
REMARK    6  A    between atoms: C_18  and  C_19
REMARK    7  A    between atoms: C_19  and  N_20
REMARK                            x       y       z     vdW  Elec       q    Type
REMARK                         _______ _______ _______ _____ _____    ______ ____
ROOT
ATOM      1  C   UNL     1       4.755   1.354  -0.036  0.00  0.00    +0.271 C 
ENDROOT
BRANCH   1   2
ATOM      2  C   UNL     1       5.936   2.290  -0.043  0.00  0.00    +0.028 A 
ATOM      3  C   UNL     1       6.619   2.810   1.009  0.00  0.00    +0.016 A 
ATOM      4  C   UNL     1       7.680   3.655   0.770  0.00  0.00    +0.025 A 
ATOM      5  C   UNL     1       8.012   3.942  -0.529  0.00  0.00    +0.062 A 
ATOM      6  S   UNL     1       6.802   2.993  -1.437  0.00  0.00    -0.081 S 
BRANCH   5   7
ATOM      7  C   UNL     1       9.059   4.782  -1.028  0.00  0.00    -0.061 C 
ATOM      8  C   UNL     1       9.918   5.470  -1.438  0.00  0.00    -0.116 C 
BRANCH   8   9
ATOM      9  C   UNL     1      10.995   6.332  -1.950  0.00  0.00    +0.005 C 
BRANCH   9  10
ATOM     10  N   UNL     1      10.963   6.335  -3.419  0.00  0.00    +0.385 N 
ATOM     11  H   UNL     1      11.094   5.394  -3.760  0.00  0.00    -0.089 HD
ATOM     12  H   UNL     1      10.071   6.686  -3.735  0.00  0.00    -0.089 HD
ATOM     13  H   UNL     1      11.701   6.926  -3.771  0.00  0.00    -0.089 HD
ENDBRANCH   9  10
ENDBRANCH   8   9
ENDBRANCH   5   7
ENDBRANCH   1   2
BRANCH   1  14
ATOM     14  O   UNL     1       3.545   2.114  -0.021  0.00  0.00    -0.487 OA
BRANCH  14  17
ATOM     15  C   UNL     1      -0.017   1.393   0.010  0.00  0.00    +0.016 A 
ATOM     16  C   UNL     1       1.167   2.096   0.002  0.00  0.00    +0.046 A 
ATOM     17  C   UNL     1       2.380   1.417  -0.013  0.00  0.00    +0.121 A 
ATOM     18  C   UNL     1       2.403   0.028  -0.021  0.00  0.00    +0.046 A 
ATOM     19  C   UNL     1       1.224  -0.682  -0.013  0.00  0.00    +0.016 A 
ATOM     20  C   UNL     1       0.002  -0.004   0.002  0.00  0.00    +0.037 A 
BRANCH  20  21
ATOM     21  C   UNL     1      -1.265  -0.761   0.011  0.00  0.00    +0.242 C 
ATOM     22  O   UNL     1      -2.327  -0.169   0.024  0.00  0.00    -0.270 OA
ATOM     23  N   UNL     1      -1.244  -2.109   0.003  0.00  0.00    -0.325 N 
ATOM     24  H   UNL     1      -0.397  -2.581  -0.008  0.00  0.00    +0.145 HD
ATOM     25  H   UNL     1      -2.077  -2.607   0.009  0.00  0.00    +0.145 HD
ENDBRANCH  20  21
ENDBRANCH  14  17
ENDBRANCH   1  14
TORSDOF 7
