REMARK  Name = ZINC03846559
REMARK  9 active torsions:
REMARK  status: ('A' for Active; 'I' for Inactive)
REMARK    1  A    between atoms: C_1  and  N_2
REMARK    2  A    between atoms: C_11  and  C_14
REMARK    3  A    between atoms: C_14  and  C_16
REMARK    4  A    between atoms: C_16  and  C_17
REMARK    5  A    between atoms: C_17  and  C_19
REMARK    6  A    between atoms: C_17  and  N_26
REMARK    7  A    between atoms: C_24  and  O_25
REMARK    8  A    between atoms: N_26  and  C_27
REMARK    9  A    between atoms: N_26  and  C_33
REMARK                            x       y       z     vdW  Elec       q    Type
REMARK                         _______ _______ _______ _____ _____    ______ ____
ROOT
ATOM      1  C   UNL     1       2.262   5.284  -0.065  0.00  0.00    +0.120 C 
ENDROOT
BRANCH   1   2
ATOM      2  C   UNL     1       1.412   5.758   1.086  0.00  0.00    +0.015 A 
ATOM      3  C   UNL     1       0.585   4.870   1.747  0.00  0.00    +0.009 A 
ATOM      4  C   UNL     1      -0.191   5.303   2.806  0.00  0.00    +0.001 A 
ATOM      5  C   UNL     1      -0.151   6.629   3.199  0.00  0.00    +0.004 A 
ATOM      6  C   UNL     1       0.670   7.521   2.537  0.00  0.00    +0.046 A 
ATOM      7  C   UNL     1       1.454   7.088   1.478  0.00  0.00    +0.122 A 
BRANCH   7   8
ATOM      8  O   UNL     1       2.262   7.964   0.826  0.00  0.00    -0.506 OA
ATOM      9  H   UNL     1       2.295   9.019   1.138  0.00  0.00    +0.292 HD
ENDBRANCH   7   8
ENDBRANCH   1   2
BRANCH   1  10
ATOM     10  C   UNL     1       1.555   5.599  -1.385  0.00  0.00    +0.107 C 
BRANCH  10  11
ATOM     11  C   UNL     1       2.481   5.297  -2.534  0.00  0.00    +0.174 C 
ATOM     12  O   UNL     1       3.597   4.870  -2.319  0.00  0.00    -0.292 OA
BRANCH  11  23
ATOM     13  C   UNL     1       3.459   5.112  -7.289  0.00  0.00    +0.152 C 
ATOM     14  N   UNL     1       2.513   5.426  -6.215  0.00  0.00    -0.310 N 
ATOM     15  C   UNL     1       1.264   5.907  -6.553  0.00  0.00    +0.055 A 
ATOM     16  C   UNL     1       0.919   6.088  -7.890  0.00  0.00    +0.026 A 
ATOM     17  C   UNL     1      -0.329   6.569  -8.220  0.00  0.00    +0.002 A 
ATOM     18  C   UNL     1      -1.254   6.878  -7.233  0.00  0.00    +0.001 A 
ATOM     19  C   UNL     1      -0.933   6.707  -5.904  0.00  0.00    +0.014 A 
ATOM     20  C   UNL     1       0.327   6.221  -5.555  0.00  0.00    +0.046 A 
ATOM     21  C   UNL     1       0.699   6.020  -4.141  0.00  0.00    +0.204 A 
ATOM     22  O   UNL     1      -0.080   6.272  -3.239  0.00  0.00    -0.286 OA
ATOM     23  C   UNL     1       2.050   5.510  -3.865  0.00  0.00    +0.129 A 
ATOM     24  C   UNL     1       2.898   5.233  -4.941  0.00  0.00    +0.266 A 
ATOM     25  O   UNL     1       4.134   4.761  -4.696  0.00  0.00    -0.267 OA
ENDBRANCH  11  23
ENDBRANCH  10  11
ENDBRANCH   1  10
BRANCH   1  26
ATOM     26  N   UNL     1       2.468   3.837   0.045  0.00  0.00    -0.292 N 
BRANCH  26  27
ATOM     27  C   UNL     1       1.913   2.978  -0.907  0.00  0.00    +0.034 A 
ATOM     28  C   UNL     1       0.537   2.794  -0.960  0.00  0.00    +0.023 A 
ATOM     29  C   UNL     1      -0.009   1.945  -1.902  0.00  0.00    +0.002 A 
ATOM     30  C   UNL     1       0.814   1.274  -2.789  0.00  0.00    +0.000 A 
ATOM     31  C   UNL     1       2.183   1.459  -2.743  0.00  0.00    +0.002 A 
ATOM     32  C   UNL     1       2.736   2.307  -1.803  0.00  0.00    +0.023 A 
ENDBRANCH  26  27
BRANCH  26  33
ATOM     33  C   UNL     1       3.221   3.317   1.101  0.00  0.00    +0.034 A 
ATOM     34  C   UNL     1       3.788   4.171   2.038  0.00  0.00    +0.023 A 
ATOM     35  C   UNL     1       4.527   3.653   3.084  0.00  0.00    +0.002 A 
ATOM     36  C   UNL     1       4.711   2.287   3.192  0.00  0.00    +0.000 A 
ATOM     37  C   UNL     1       4.152   1.434   2.258  0.00  0.00    +0.002 A 
ATOM     38  C   UNL     1       3.408   1.945   1.213  0.00  0.00    +0.023 A 
ENDBRANCH  26  33
ENDBRANCH   1  26
TORSDOF 8
