REMARK  Name = ZINC17188815
REMARK  12 active torsions:
REMARK  status: ('A' for Active; 'I' for Inactive)
REMARK    1  A    between atoms: C_1  and  C_2
REMARK    2  A    between atoms: C_2  and  C_3
REMARK    3  A    between atoms: C_3  and  C_5
REMARK    4  A    between atoms: C_3  and  C_6
REMARK    5  A    between atoms: C_6  and  C_7
REMARK    6  A    between atoms: C_8  and  C_35
REMARK    7  A    between atoms: C_16  and  S_18
REMARK    8  A    between atoms: S_18  and  C_19
REMARK    9  A    between atoms: C_19  and  C_20
REMARK   10  A    between atoms: N_22  and  N_23
REMARK   11  A    between atoms: C_24  and  C_26
REMARK   12  A    between atoms: C_29  and  N_32
REMARK                            x       y       z     vdW  Elec       q    Type
REMARK                         _______ _______ _______ _____ _____    ______ ____
ROOT
ATOM      1  S   UNL     1       5.380  -6.943  -0.085  0.00  0.00    -0.078 S 
ENDROOT
BRANCH   1  11
ATOM      2  C   UNL     1       4.298 -12.798  -0.103  0.00  0.00    -0.023 A 
ATOM      3  C   UNL     1       2.988 -13.086  -0.091  0.00  0.00    -0.007 A 
ATOM      4  S   UNL     1       2.212 -11.482  -0.076  0.00  0.00    -0.073 S 
ATOM      5  C   UNL     1       3.670 -10.470  -0.086  0.00  0.00    +0.117 A 
ATOM      6  C   UNL     1       4.719 -11.408  -0.101  0.00  0.00    +0.075 A 
ATOM      7  C   UNL     1       6.041 -10.862  -0.112  0.00  0.00    +0.261 A 
ATOM      8  O   UNL     1       7.013 -11.598  -0.125  0.00  0.00    -0.267 OA
ATOM      9  N   UNL     1       6.199  -9.526  -0.112  0.00  0.00    -0.301 N 
ATOM     10  H   UNL     1       7.094  -9.152  -0.123  0.00  0.00    +0.171 HD
ATOM     11  C   UNL     1       5.123  -8.686  -0.091  0.00  0.00    +0.170 A 
ATOM     12  N   UNL     1       3.894  -9.162  -0.082  0.00  0.00    -0.216 NA
ATOM     13  C   UNL     1       2.330 -14.442  -0.091  0.00  0.00    +0.052 C 
BRANCH   2  14
ATOM     14  C   UNL     1       5.322 -13.905  -0.119  0.00  0.00    +0.040 C 
BRANCH  14  15
ATOM     15  C   UNL     1       5.653 -14.272  -1.567  0.00  0.00    -0.010 C 
ATOM     16  C   UNL     1       6.330 -13.084  -2.253  0.00  0.00    +0.008 C 
BRANCH  15  18
ATOM     17  C   UNL     1       6.828 -15.922  -3.030  0.00  0.00    +0.004 C 
ATOM     18  C   UNL     1       6.596 -15.477  -1.584  0.00  0.00    +0.000 C 
ENDBRANCH  15  18
ENDBRANCH  14  15
ENDBRANCH   2  14
ENDBRANCH   1  11
BRANCH   1  19
ATOM     19  C   UNL     1       3.663  -6.372  -0.066  0.00  0.00    +0.174 C 
BRANCH  19  20
ATOM     20  C   UNL     1       3.635  -4.865  -0.058  0.00  0.00    +0.239 C 
ATOM     21  O   UNL     1       4.673  -4.239  -0.065  0.00  0.00    -0.273 OA
ATOM     22  N   UNL     1       2.455  -4.213  -0.043  0.00  0.00    -0.233 N 
ATOM     23  H   UNL     1       1.624  -4.714  -0.037  0.00  0.00    +0.173 HD
BRANCH  22  24
ATOM     24  N   UNL     1       2.429  -2.812  -0.036  0.00  0.00    -0.230 N 
ATOM     25  C   UNL     1       1.250  -2.160  -0.021  0.00  0.00    +0.260 C 
ATOM     26  O   UNL     1       0.208  -2.788  -0.014  0.00  0.00    -0.269 OA
ATOM     27  H   UNL     1       3.260  -2.312  -0.041  0.00  0.00    +0.173 HD
BRANCH  25  28
ATOM     28  C   UNL     1       1.222  -0.682  -0.013  0.00  0.00    +0.038 A 
ATOM     29  C   UNL     1       0.002  -0.004   0.002  0.00  0.00    +0.015 A 
ATOM     30  C   UNL     1      -0.017   1.375   0.010  0.00  0.00    +0.033 A 
ATOM     31  C   UNL     1       1.170   2.086   0.002  0.00  0.00    +0.126 A 
ATOM     32  C   UNL     1       2.383   1.420  -0.013  0.00  0.00    +0.033 A 
ATOM     33  C   UNL     1       2.416   0.041  -0.021  0.00  0.00    +0.015 A 
BRANCH  31  34
ATOM     34  N   UNL     1       1.143   3.566   0.010  0.00  0.00    +0.056 N 
ATOM     35  O   UNL     1       0.077   4.155   0.024  0.00  0.00    -0.126 OA
ATOM     36  O   UNL     1       2.186   4.195   0.004  0.00  0.00    -0.126 OA
ENDBRANCH  31  34
ENDBRANCH  25  28
ENDBRANCH  22  24
ENDBRANCH  19  20
ENDBRANCH   1  19
TORSDOF 9
