REMARK  Name = ZINC63467741
REMARK  10 active torsions:
REMARK  status: ('A' for Active; 'I' for Inactive)
REMARK    1  A    between atoms: C_1  and  C_2
REMARK    2  A    between atoms: C_2  and  C_3
REMARK    3  A    between atoms: C_2  and  C_4
REMARK    4  A    between atoms: C_2  and  O_5
REMARK    5  A    between atoms: O_5  and  C_6
REMARK    6  A    between atoms: N_8  and  C_9
REMARK    7  A    between atoms: C_9  and  C_10
REMARK    8  A    between atoms: N_12  and  C_13
REMARK    9  A    between atoms: C_15  and  N_20
REMARK   10  A    between atoms: C_18  and  O_19
REMARK                            x       y       z     vdW  Elec       q    Type
REMARK                         _______ _______ _______ _____ _____    ______ ____
ROOT
ATOM      1  C   UNL     1       6.372  -1.019  -5.398  0.00  0.00    +0.077 A 
ATOM      2  C   UNL     1       5.562  -1.261  -6.498  0.00  0.00    +0.051 A 
ATOM      3  C   UNL     1       6.091  -1.875  -7.624  0.00  0.00    +0.053 A 
ATOM      4  C   UNL     1       7.429  -2.247  -7.650  0.00  0.00    +0.028 A 
ATOM      5  C   UNL     1       8.236  -2.006  -6.554  0.00  0.00    +0.049 A 
ATOM      6  C   UNL     1       7.715  -1.387  -5.430  0.00  0.00    +0.138 A 
ENDROOT
BRANCH   3   7
ATOM      7  N   UNL     1       5.276  -2.121  -8.735  0.00  0.00    -0.207 N 
ATOM      8  C   UNL     1       3.810  -2.279  -8.743  0.00  0.00    +0.133 C 
ATOM      9  C   UNL     1       3.218  -1.820 -10.088  0.00  0.00    +0.045 C 
ATOM     10  C   UNL     1       4.139  -2.455 -11.173  0.00  0.00    +0.190 C 
ATOM     11  S   UNL     1       5.764  -2.289 -10.329  0.00  0.00    +0.046 S 
ATOM     12  O   UNL     1       6.386  -1.056 -10.668  0.00  0.00    -0.155 OA
ATOM     13  O   UNL     1       6.483  -3.514 -10.379  0.00  0.00    -0.155 OA
ENDBRANCH   3   7
BRANCH   1  16
ATOM     14  C   UNL     1       4.568  -0.643  -3.890  0.00  0.00    +0.235 C 
ATOM     15  O   UNL     1       3.857  -1.335  -4.588  0.00  0.00    -0.274 OA
ATOM     16  N   UNL     1       5.841  -0.399  -4.259  0.00  0.00    -0.281 N 
ATOM     17  H   UNL     1       6.390   0.206  -3.736  0.00  0.00    +0.155 HD
BRANCH  14  18
ATOM     18  C   UNL     1       4.028  -0.056  -2.611  0.00  0.00    +0.203 C 
BRANCH  18  21
ATOM     19  C   UNL     1       1.940  -0.057  -1.356  0.00  0.00    +0.401 C 
ATOM     20  O   UNL     1       2.474   0.651  -0.525  0.00  0.00    -0.226 OA
ATOM     21  N   UNL     1       2.632  -0.466  -2.438  0.00  0.00    -0.273 N 
ATOM     22  H   UNL     1       2.207  -1.031  -3.101  0.00  0.00    +0.153 HD
BRANCH  19  23
ATOM     23  O   UNL     1       0.657  -0.433  -1.196  0.00  0.00    -0.445 OA
BRANCH  23  25
ATOM     24  C   UNL     1      -0.033   1.567  -0.028  0.00  0.00    +0.055 C 
ATOM     25  C   UNL     1      -0.016   0.037  -0.026  0.00  0.00    +0.107 C 
ATOM     26  C   UNL     1       0.718  -0.463   1.220  0.00  0.00    +0.055 C 
ATOM     27  C   UNL     1      -1.452  -0.489  -0.018  0.00  0.00    +0.055 C 
ENDBRANCH  23  25
ENDBRANCH  19  23
ENDBRANCH  18  21
ENDBRANCH  14  18
ENDBRANCH   1  16
BRANCH   6  28
ATOM     28  O   UNL     1       8.512  -1.145  -4.354  0.00  0.00    -0.505 OA
ATOM     29  H   UNL     1       8.534  -1.866  -3.710  0.00  0.00    +0.292 HD
ENDBRANCH   6  28
TORSDOF 7
