REMARK  Name = ZINC00627694
REMARK  6 active torsions:
REMARK  status: ('A' for Active; 'I' for Inactive)
REMARK    1  A    between atoms: C_1  and  C_2
REMARK    2  A    between atoms: C_5  and  N_8
REMARK    3  A    between atoms: C_14  and  C_16
REMARK    4  A    between atoms: C_21  and  N_22
REMARK    5  A    between atoms: C_23  and  C_25
REMARK    6  A    between atoms: C_30  and  C_31
REMARK                            x       y       z     vdW  Elec       q    Type
REMARK                         _______ _______ _______ _____ _____    ______ ____
ROOT
ATOM      1  C   UNL     1       1.304  -8.743   1.185  0.00  0.00    +0.058 A 
ATOM      2  C   UNL     1       2.275  -8.495   2.158  0.00  0.00    +0.015 A 
ATOM      3  C   UNL     1       2.252  -9.194   3.346  0.00  0.00    +0.001 A 
ATOM      4  C   UNL     1       1.271 -10.143   3.580  0.00  0.00    +0.002 A 
ATOM      5  C   UNL     1       0.305 -10.399   2.628  0.00  0.00    +0.024 A 
ATOM      6  C   UNL     1       0.308  -9.701   1.428  0.00  0.00    +0.046 A 
ENDROOT
BRANCH   1  13
ATOM      7  N   UNL     1       0.107  -4.200  -0.011  0.00  0.00    -0.327 N 
ATOM      8  C   UNL     1       0.052  -4.941  -1.279  0.00  0.00    +0.124 C 
ATOM      9  C   UNL     1       1.251  -5.896  -1.340  0.00  0.00    +0.127 C 
ATOM     10  N   UNL     1       1.315  -6.651  -0.081  0.00  0.00    -0.294 N 
ATOM     11  C   UNL     1       1.369  -5.909   1.187  0.00  0.00    +0.127 C 
ATOM     12  C   UNL     1       0.176  -4.954   1.248  0.00  0.00    +0.124 C 
ATOM     13  C   UNL     1       1.323  -7.998  -0.088  0.00  0.00    +0.248 C 
ATOM     14  O   UNL     1       1.345  -8.600  -1.144  0.00  0.00    -0.270 OA
BRANCH   7  19
ATOM     15  C   UNL     1       0.074   1.471   0.021  0.00  0.00    +0.044 C 
ATOM     16  C   UNL     1       0.083  -0.036   0.012  0.00  0.00    -0.050 A 
ATOM     17  C   UNL     1       0.031  -0.733   1.206  0.00  0.00    +0.005 A 
ATOM     18  C   UNL     1       0.039  -2.114   1.202  0.00  0.00    +0.023 A 
ATOM     19  C   UNL     1       0.098  -2.803  -0.003  0.00  0.00    +0.030 A 
ATOM     20  C   UNL     1       0.150  -2.100  -1.200  0.00  0.00    +0.023 A 
ATOM     21  C   UNL     1       0.136  -0.719  -1.189  0.00  0.00    +0.005 A 
ENDBRANCH   7  19
ENDBRANCH   1  13
BRANCH   6  22
ATOM     22  N   UNL     1      -0.668  -9.953   0.469  0.00  0.00    -0.281 N 
ATOM     23  C   UNL     1      -1.148 -11.202   0.308  0.00  0.00    +0.249 C 
ATOM     24  O   UNL     1      -0.788 -12.092   1.054  0.00  0.00    -0.270 OA
ATOM     25  H   UNL     1      -1.004  -9.230  -0.083  0.00  0.00    +0.155 HD
BRANCH  23  26
ATOM     26  C   UNL     1      -2.114 -11.490  -0.775  0.00  0.00    +0.051 A 
ATOM     27  C   UNL     1      -3.301 -10.770  -0.864  0.00  0.00    +0.014 A 
ATOM     28  C   UNL     1      -4.200 -11.042  -1.879  0.00  0.00    +0.001 A 
ATOM     29  C   UNL     1      -3.929 -12.028  -2.810  0.00  0.00    +0.001 A 
ATOM     30  C   UNL     1      -2.755 -12.754  -2.738  0.00  0.00    +0.016 A 
ATOM     31  C   UNL     1      -1.834 -12.491  -1.726  0.00  0.00    +0.075 A 
BRANCH  31  32
ATOM     32  C   UNL     1      -0.576 -13.259  -1.647  0.00  0.00    +0.387 C 
ATOM     33  O   UNL     1      -0.300 -14.072  -2.518  0.00  0.00    -0.241 OA
ATOM     34  O   UNL     1       0.191 -13.083  -0.711  0.00  0.00    -0.241 OA
ENDBRANCH  31  32
ENDBRANCH  23  26
ENDBRANCH   6  22
TORSDOF 5
