REMARK  Name = ZINC62845557
REMARK  4 active torsions:
REMARK  status: ('A' for Active; 'I' for Inactive)
REMARK    1  A    between atoms: C_1  and  C_2
REMARK    2  A    between atoms: C_2  and  C_3
REMARK    3  A    between atoms: C_3  and  C_9
REMARK    4  A    between atoms: C_15  and  C_18
REMARK                            x       y       z     vdW  Elec       q    Type
REMARK                         _______ _______ _______ _____ _____    ______ ____
ROOT
ATOM      1  C   UNL     1      -2.067   0.053   1.370  0.00  0.00    +0.144 A 
ATOM      2  N   UNL     1      -3.198   0.709   1.416  0.00  0.00    -0.133 NA
ATOM      3  N   UNL     1      -3.454   1.072   2.623  0.00  0.00    -0.129 NA
ATOM      4  C   UNL     1      -2.484   0.661   3.423  0.00  0.00    +0.161 A 
ATOM      5  N   UNL     1      -1.576  -0.006   2.638  0.00  0.00    -0.285 N 
ATOM      6  C   UNL     1      -0.457  -0.555   3.189  0.00  0.00    +0.106 A 
ATOM      7  C   UNL     1      -0.226  -0.454   4.515  0.00  0.00    +0.071 A 
ATOM      8  C   UNL     1      -1.138   0.220   5.346  0.00  0.00    +0.017 A 
ATOM      9  C   UNL     1      -2.255   0.779   4.808  0.00  0.00    +0.049 A 
ENDROOT
BRANCH   1  10
ATOM     10  C   UNL     1      -1.427  -0.534   0.139  0.00  0.00    +0.027 C 
ATOM     11  C   UNL     1      -2.307  -0.253  -1.082  0.00  0.00    -0.005 C 
ATOM     12  C   UNL     1      -1.690  -0.920  -2.314  0.00  0.00    -0.082 C 
ATOM     13  N   UNL     1      -1.601  -2.369  -2.097  0.00  0.00    +0.379 N 
ATOM     14  C   UNL     1      -0.701  -2.649  -0.972  0.00  0.00    -0.082 C 
ATOM     15  C   UNL     1      -1.279  -2.049   0.311  0.00  0.00    -0.005 C 
ATOM     16  H   UNL     1      -2.518  -2.734  -1.891  0.00  0.00    -0.086 HD
ATOM     17  H   UNL     1      -1.244  -2.811  -2.930  0.00  0.00    -0.086 HD
BRANCH  10  19
ATOM     18  C   UNL     1      -0.189   1.613  -0.179  0.00  0.00    +0.005 C 
ATOM     19  C   UNL     1      -0.047   0.093  -0.070  0.00  0.00    +0.011 C 
ENDBRANCH  10  19
ENDBRANCH   1  10
BRANCH   7  20
ATOM     20  C   UNL     1       1.016  -1.067   5.109  0.00  0.00    +0.419 C 
ATOM     21  F   UNL     1       2.019  -0.096   5.198  0.00  0.00    -0.166 F 
ATOM     22  F   UNL     1       0.729  -1.559   6.386  0.00  0.00    -0.166 F 
ATOM     23  F   UNL     1       1.454  -2.116   4.293  0.00  0.00    -0.166 F 
ENDBRANCH   7  20
TORSDOF 3
