REMARK  Name = ZINC67186871
REMARK  8 active torsions:
REMARK  status: ('A' for Active; 'I' for Inactive)
REMARK    1  A    between atoms: C_1  and  C_2
REMARK    2  A    between atoms: C_2  and  C_3
REMARK    3  A    between atoms: C_2  and  C_4
REMARK    4  A    between atoms: C_2  and  C_5
REMARK    5  A    between atoms: C_7  and  C_10
REMARK    6  A    between atoms: C_10  and  N_11
REMARK    7  A    between atoms: N_11  and  C_12
REMARK    8  A    between atoms: C_18  and  C_20
REMARK                            x       y       z     vdW  Elec       q    Type
REMARK                         _______ _______ _______ _____ _____    ______ ____
ROOT
ATOM      1  N   UNL     1       4.295   0.704  -3.608  0.00  0.00    +0.385 N 
ATOM      2  H   UNL     1       3.611   0.486  -4.317  0.00  0.00    -0.085 HD
ATOM      3  H   UNL     1       3.961   1.470  -3.043  0.00  0.00    -0.085 HD
ENDROOT
BRANCH   1   4
ATOM      4  C   UNL     1       5.561   1.085  -4.250  0.00  0.00    -0.060 C 
ATOM      5  C   UNL     1       6.025  -0.044  -5.172  0.00  0.00    -0.015 C 
ATOM      6  C   UNL     1       7.343   0.352  -5.840  0.00  0.00    -0.002 C 
ATOM      7  C   UNL     1       7.136   1.627  -6.660  0.00  0.00    +0.000 C 
ATOM      8  C   UNL     1       6.671   2.756  -5.738  0.00  0.00    +0.010 C 
ATOM      9  C   UNL     1       5.354   2.360  -5.069  0.00  0.00    +0.079 C 
BRANCH   9  10
ATOM     10  C   UNL     1       4.889   3.489  -4.147  0.00  0.00    +0.391 C 
ATOM     11  F   UNL     1       5.786   3.619  -3.081  0.00  0.00    -0.171 F 
ATOM     12  F   UNL     1       4.842   4.689  -4.866  0.00  0.00    -0.171 F 
ATOM     13  F   UNL     1       3.615   3.192  -3.652  0.00  0.00    -0.171 F 
ENDBRANCH   9  10
ENDBRANCH   1   4
BRANCH   1  14
ATOM     14  C   UNL     1       4.512  -0.474  -2.758  0.00  0.00    -0.025 C 
BRANCH  14  17
ATOM     15  C   UNL     1       1.684  -0.642  -0.409  0.00  0.00    +0.084 A 
ATOM     16  N   UNL     1       2.813  -0.300  -0.978  0.00  0.00    -0.250 NA
ATOM     17  C   UNL     1       3.214  -0.865  -2.100  0.00  0.00    +0.032 A 
ATOM     18  C   UNL     1       2.404  -1.813  -2.635  0.00  0.00    +0.068 A 
ATOM     19  S   UNL     1       1.080  -1.829  -1.438  0.00  0.00    -0.080 S 
BRANCH  15  21
ATOM     20  C   UNL     1       0.830   1.397   0.715  0.00  0.00    +0.017 C 
ATOM     21  C   UNL     1       1.076  -0.106   0.862  0.00  0.00    +0.011 C 
ATOM     22  C   UNL     1       2.033  -0.355   2.029  0.00  0.00    +0.017 C 
ATOM     23  C   UNL     1      -0.252  -0.817   1.131  0.00  0.00    +0.017 C 
ENDBRANCH  15  21
ENDBRANCH  14  17
ENDBRANCH   1  14
TORSDOF 5
