REMARK  Name = ZINC39886213
REMARK  8 active torsions:
REMARK  status: ('A' for Active; 'I' for Inactive)
REMARK    1  A    between atoms: C_1  and  C_2
REMARK    2  A    between atoms: C_2  and  C_3
REMARK    3  A    between atoms: C_2  and  C_4
REMARK    4  A    between atoms: C_2  and  C_5
REMARK    5  A    between atoms: C_8  and  C_11
REMARK    6  A    between atoms: N_14  and  C_15
REMARK    7  A    between atoms: C_18  and  S_21
REMARK    8  A    between atoms: S_21  and  N_24
REMARK                            x       y       z     vdW  Elec       q    Type
REMARK                         _______ _______ _______ _____ _____    ______ ____
ROOT
ATOM      1  C   UNL     1       2.692  -1.858  -4.727  0.00  0.00    +0.026 C 
ATOM      2  C   UNL     1       3.951  -1.434  -5.001  0.00  0.00    +0.058 C 
ATOM      3  C   UNL     1       4.788  -1.688  -6.191  0.00  0.00    +0.140 C 
ATOM      4  N   UNL     1       4.362  -2.416  -7.200  0.00  0.00    -0.231 NA
ATOM      5  N   UNL     1       6.024  -1.124  -6.183  0.00  0.00    -0.260 N 
ATOM      6  C   UNL     1       6.436  -0.382  -5.136  0.00  0.00    +0.282 C 
ATOM      7  O   UNL     1       7.505   0.180  -4.988  0.00  0.00    -0.262 OA
ATOM      8  S   UNL     1       5.042  -0.412  -4.023  0.00  0.00    -0.028 S 
ATOM      9  H   UNL     1       6.617  -1.257  -6.939  0.00  0.00    +0.157 HD
ENDROOT
BRANCH   1  13
ATOM     10  C   UNL     1       1.004  -1.153  -0.901  0.00  0.00    -0.042 A 
ATOM     11  C   UNL     1       0.184  -1.492  -1.964  0.00  0.00    +0.005 A 
ATOM     12  C   UNL     1       0.725  -1.723  -3.211  0.00  0.00    +0.008 A 
ATOM     13  C   UNL     1       2.107  -1.613  -3.401  0.00  0.00    -0.024 A 
ATOM     14  C   UNL     1       2.928  -1.269  -2.321  0.00  0.00    +0.008 A 
ATOM     15  C   UNL     1       2.371  -1.037  -1.082  0.00  0.00    +0.005 A 
BRANCH  10  17
ATOM     16  C   UNL     1       0.717   0.529   0.898  0.00  0.00    +0.015 C 
ATOM     17  C   UNL     1       0.403  -0.902   0.458  0.00  0.00    -0.013 C 
ATOM     18  C   UNL     1       0.997  -1.887   1.467  0.00  0.00    +0.015 C 
ATOM     19  C   UNL     1      -1.113  -1.095   0.390  0.00  0.00    +0.015 C 
ENDBRANCH  10  17
ENDBRANCH   1  13
BRANCH   4  20
ATOM     20  C   UNL     1       5.170  -2.625  -8.281  0.00  0.00    +0.066 A 
ATOM     21  C   UNL     1       5.885  -1.561  -8.840  0.00  0.00    +0.030 A 
ATOM     22  C   UNL     1       6.699  -1.780  -9.931  0.00  0.00    +0.030 A 
ATOM     23  C   UNL     1       6.809  -3.048 -10.474  0.00  0.00    +0.105 A 
ATOM     24  C   UNL     1       6.104  -4.106  -9.927  0.00  0.00    +0.030 A 
ATOM     25  C   UNL     1       5.290  -3.904  -8.832  0.00  0.00    +0.030 A 
BRANCH  23  26
ATOM     26  S   UNL     1       7.852  -3.317 -11.868  0.00  0.00    +0.056 S 
ATOM     27  O   UNL     1       7.361  -4.478 -12.524  0.00  0.00    -0.153 OA
ATOM     28  O   UNL     1       7.978  -2.066 -12.529  0.00  0.00    -0.153 OA
BRANCH  26  29
ATOM     29  N   UNL     1       9.355  -3.701 -11.289  0.00  0.00    -0.204 NA
ATOM     30  H   UNL     1       9.511  -3.739 -10.332  0.00  0.00    +0.144 HD
ATOM     31  H   UNL     1      10.079  -3.887 -11.906  0.00  0.00    +0.144 HD
ENDBRANCH  26  29
ENDBRANCH  23  26
ENDBRANCH   4  20
TORSDOF 5
