REMARK  Name = ZINC41631667
REMARK  3 active torsions:
REMARK  status: ('A' for Active; 'I' for Inactive)
REMARK    1  A    between atoms: C_6  and  C_7
REMARK    2  A    between atoms: C_12  and  C_15
REMARK    3  A    between atoms: C_15  and  N_16
REMARK                            x       y       z     vdW  Elec       q    Type
REMARK                         _______ _______ _______ _____ _____    ______ ____
ROOT
ATOM      1  C   UNL     1      -1.267  -0.763   0.011  0.00  0.00    +0.064 A 
ATOM      2  C   UNL     1      -2.105  -0.683  -1.042  0.00  0.00    +0.075 A 
ATOM      3  S   UNL     1      -3.439  -1.756  -0.535  0.00  0.00    -0.055 S 
ATOM      4  C   UNL     1      -2.781  -2.232   1.044  0.00  0.00    +0.200 A 
ATOM      5  N   UNL     1      -1.587  -1.557   1.095  0.00  0.00    -0.274 N 
ATOM      6  C   UNL     1      -1.058  -1.923   2.319  0.00  0.00    +0.121 A 
ATOM      7  N   UNL     1      -1.895  -2.739   2.891  0.00  0.00    -0.135 NA
ATOM      8  N   UNL     1      -2.924  -2.918   2.138  0.00  0.00    -0.122 NA
ENDROOT
BRANCH   1  14
ATOM      9  C   UNL     1      -0.017   1.391   0.010  0.00  0.00    +0.011 A 
ATOM     10  C   UNL     1       1.170   2.095   0.002  0.00  0.00    +0.022 A 
ATOM     11  C   UNL     1       2.378   1.420  -0.013  0.00  0.00    +0.059 A 
ATOM     12  C   UNL     1       2.404   0.035  -0.021  0.00  0.00    +0.060 A 
ATOM     13  C   UNL     1       1.223  -0.680  -0.013  0.00  0.00    +0.031 A 
ATOM     14  C   UNL     1       0.002  -0.004   0.002  0.00  0.00    +0.001 A 
ATOM     15 CL   UNL     1       3.924  -0.804  -0.040  0.00  0.00    -0.082 Cl
ATOM     16 CL   UNL     1       3.867   2.313  -0.023  0.00  0.00    -0.082 Cl
ENDBRANCH   1  14
BRANCH   6  17
ATOM     17  C   UNL     1       0.257  -1.458   2.890  0.00  0.00    -0.008 C 
BRANCH  17  18
ATOM     18  N   UNL     1       0.046  -0.233   3.672  0.00  0.00    +0.383 N 
ATOM     19  H   UNL     1      -0.335   0.486   3.075  0.00  0.00    -0.089 HD
ATOM     20  H   UNL     1      -0.600  -0.422   4.425  0.00  0.00    -0.089 HD
ATOM     21  H   UNL     1       0.926   0.078   4.055  0.00  0.00    -0.089 HD
ENDBRANCH  17  18
ENDBRANCH   6  17
TORSDOF 3
