REMARK  Name = ZINC37351051
REMARK  7 active torsions:
REMARK  status: ('A' for Active; 'I' for Inactive)
REMARK    1  A    between atoms: C_1  and  C_2
REMARK    2  A    between atoms: C_2  and  O_3
REMARK    3  A    between atoms: O_3  and  C_4
REMARK    4  A    between atoms: C_7  and  C_10
REMARK    5  A    between atoms: C_11  and  C_16
REMARK    6  A    between atoms: C_14  and  N_15
REMARK    7  A    between atoms: C_17  and  C_21
REMARK                            x       y       z     vdW  Elec       q    Type
REMARK                         _______ _______ _______ _____ _____    ______ ____
ROOT
ATOM      1  C   UNL     1       1.108  -6.020  -1.844  0.00  0.00    +0.071 A 
ATOM      2  C   UNL     1       2.345  -6.807  -1.842  0.00  0.00    +0.130 A 
ATOM      3  N   UNL     1       2.005  -8.062  -2.030  0.00  0.00    -0.075 NA
ATOM      4  O   UNL     1       0.599  -8.139  -2.156  0.00  0.00    -0.339 OA
ATOM      5  C   UNL     1       0.073  -6.910  -2.037  0.00  0.00    +0.224 A 
ENDROOT
BRANCH   1   9
ATOM      6  C   UNL     1       0.777  -1.810  -1.336  0.00  0.00    +0.121 A 
ATOM      7  C   UNL     1       0.241  -2.667  -0.384  0.00  0.00    +0.046 A 
ATOM      8  C   UNL     1       0.347  -4.033  -0.546  0.00  0.00    +0.012 A 
ATOM      9  C   UNL     1       0.993  -4.553  -1.667  0.00  0.00    -0.011 A 
ATOM     10  C   UNL     1       1.529  -3.689  -2.622  0.00  0.00    +0.012 A 
ATOM     11  C   UNL     1       1.415  -2.325  -2.456  0.00  0.00    +0.046 A 
BRANCH   6  12
ATOM     12  O   UNL     1       0.671  -0.465  -1.174  0.00  0.00    -0.492 OA
BRANCH  12  14
ATOM     13  C   UNL     1      -0.019   1.526   0.010  0.00  0.00    +0.048 C 
ATOM     14  C   UNL     1       0.002  -0.004   0.002  0.00  0.00    +0.225 C 
ENDBRANCH  12  14
ENDBRANCH   6  12
ENDBRANCH   1   9
BRANCH   2  15
ATOM     15  C   UNL     1       3.716  -6.287  -1.663  0.00  0.00    +0.044 A 
ATOM     16  C   UNL     1       4.904  -6.969  -1.657  0.00  0.00    -0.034 A 
ATOM     17  C   UNL     1       6.071  -6.263  -1.471  0.00  0.00    +0.011 A 
ATOM     18  C   UNL     1       6.011  -4.917  -1.299  0.00  0.00    +0.046 A 
ATOM     19  S   UNL     1       4.256  -4.604  -1.406  0.00  0.00    -0.095 S 
ATOM     20  C   UNL     1       4.933  -8.463  -1.851  0.00  0.00    +0.045 C 
ENDBRANCH   2  15
BRANCH   5  21
ATOM     21  N   UNL     1      -1.269  -6.593  -2.100  0.00  0.00    -0.327 N 
ATOM     22  H   UNL     1      -1.554  -5.671  -2.004  0.00  0.00    +0.145 HD
ATOM     23  H   UNL     1      -1.927  -7.292  -2.239  0.00  0.00    +0.145 HD
ENDBRANCH   5  21
TORSDOF 5
