REMARK  Name = ZINC47027417
REMARK  6 active torsions:
REMARK  status: ('A' for Active; 'I' for Inactive)
REMARK    1  A    between atoms: C_1  and  C_2
REMARK    2  A    between atoms: C_2  and  C_4
REMARK    3  A    between atoms: C_2  and  N_10
REMARK    4  A    between atoms: C_4  and  N_5
REMARK    5  A    between atoms: N_13  and  N_14
REMARK    6  A    between atoms: N_14  and  C_15
REMARK                            x       y       z     vdW  Elec       q    Type
REMARK                         _______ _______ _______ _____ _____    ______ ____
ROOT
ATOM      1  N   UNL     1       0.711  -0.489   1.189  0.00  0.00    -0.294 N 
ATOM      2  C   UNL     1       0.051  -0.633   2.355  0.00  0.00    +0.316 C 
ATOM      3  O   UNL     1      -1.132  -0.361   2.423  0.00  0.00    -0.251 OA
ATOM      4  N   UNL     1       0.703  -1.080   3.447  0.00  0.00    -0.220 N 
ATOM      5  H   UNL     1       1.654  -0.707   1.135  0.00  0.00    +0.151 HD
ATOM      6  H   UNL     1       0.229  -1.184   4.287  0.00  0.00    +0.174 HD
ENDROOT
BRANCH   1   8
ATOM      7  C   UNL     1      -0.019   1.526   0.010  0.00  0.00    +0.029 C 
ATOM      8  C   UNL     1       0.002  -0.004   0.002  0.00  0.00    +0.091 C 
BRANCH   8   9
ATOM      9  C   UNL     1       0.718  -0.497  -1.257  0.00  0.00    +0.144 C 
BRANCH   9  10
ATOM     10  N   UNL     1       0.634  -1.958  -1.325  0.00  0.00    -0.337 N 
ATOM     11  C   UNL     1       1.525  -2.849  -0.791  0.00  0.00    +0.104 A 
ATOM     12  C   UNL     1       1.068  -4.082  -1.085  0.00  0.00    +0.101 A 
ATOM     13  N   UNL     1      -0.072  -3.947  -1.779  0.00  0.00    -0.352 N 
ATOM     14  C   UNL     1      -0.341  -2.678  -1.923  0.00  0.00    +0.173 A 
ATOM     15  H   UNL     1      -0.613  -4.677  -2.118  0.00  0.00    +0.166 HD
ENDBRANCH   9  10
ENDBRANCH   8   9
ENDBRANCH   1   8
BRANCH   4  16
ATOM     16  N   UNL     1       2.066  -1.394   3.370  0.00  0.00    -0.262 N 
ATOM     17  H   UNL     1       2.541  -1.290   2.530  0.00  0.00    +0.170 HD
BRANCH  16  18
ATOM     18  C   UNL     1       2.743  -1.858   4.503  0.00  0.00    +0.059 A 
ATOM     19  C   UNL     1       2.063  -2.012   5.704  0.00  0.00    +0.028 A 
ATOM     20  C   UNL     1       2.733  -2.470   6.822  0.00  0.00    +0.040 A 
ATOM     21  C   UNL     1       4.081  -2.776   6.746  0.00  0.00    +0.125 A 
ATOM     22  C   UNL     1       4.761  -2.623   5.550  0.00  0.00    +0.055 A 
ATOM     23  C   UNL     1       4.094  -2.170   4.427  0.00  0.00    +0.043 A 
ATOM     24 BR   UNL     1       5.022  -1.968   2.792  0.00  0.00    -0.048 Br
ATOM     25  F   UNL     1       4.734  -3.223   7.840  0.00  0.00    -0.205 F 
ENDBRANCH  16  18
ENDBRANCH   4  16
TORSDOF 5
