REMARK  Name = ZINC39394537
REMARK  8 active torsions:
REMARK  status: ('A' for Active; 'I' for Inactive)
REMARK    1  A    between atoms: C_1  and  C_2
REMARK    2  A    between atoms: C_4  and  C_9
REMARK    3  A    between atoms: C_5  and  C_8
REMARK    4  A    between atoms: C_9  and  C_10
REMARK    5  A    between atoms: C_10  and  N_11
REMARK    6  A    between atoms: N_11  and  C_12
REMARK    7  A    between atoms: N_11  and  C_13
REMARK    8  A    between atoms: C_22  and  O_24
REMARK                            x       y       z     vdW  Elec       q    Type
REMARK                         _______ _______ _______ _____ _____    ______ ____
ROOT
ATOM      1  C   UNL     1      -1.813  -2.219  -5.022  0.00  0.00    -0.008 C 
ATOM      2  C   UNL     1      -1.206  -3.593  -4.825  0.00  0.00    -0.055 A 
ATOM      3  C   UNL     1      -1.104  -4.373  -3.686  0.00  0.00    +0.002 A 
ATOM      4  C   UNL     1      -0.499  -5.613  -3.744  0.00  0.00    +0.000 A 
ATOM      5  C   UNL     1       0.006  -6.078  -4.943  0.00  0.00    +0.000 A 
ATOM      6  C   UNL     1      -0.096  -5.303  -6.081  0.00  0.00    +0.004 A 
ATOM      7  C   UNL     1      -0.702  -4.058  -6.026  0.00  0.00    -0.037 A 
ATOM      8  C   UNL     1      -0.941  -3.032  -7.107  0.00  0.00    +0.017 C 
ATOM      9  C   UNL     1      -2.016  -2.079  -6.547  0.00  0.00    +0.116 C 
ATOM     10  C   UNL     1      -1.451  -3.705  -8.378  0.00  0.00    -0.005 C 
ATOM     11  C   UNL     1      -1.639  -2.648  -9.470  0.00  0.00    -0.082 C 
ATOM     12  N   UNL     1      -0.359  -1.978  -9.730  0.00  0.00    +0.379 N 
ATOM     13  C   UNL     1       0.082  -1.258  -8.530  0.00  0.00    -0.082 C 
ATOM     14  C   UNL     1       0.342  -2.257  -7.399  0.00  0.00    -0.005 C 
ATOM     15  H   UNL     1       0.335  -2.666  -9.982  0.00  0.00    -0.086 HD
ATOM     16  H   UNL     1      -0.471  -1.324 -10.491  0.00  0.00    -0.086 HD
ENDROOT
BRANCH   1  17
ATOM     17  N   UNL     1      -0.895  -1.182  -4.533  0.00  0.00    +0.384 N 
ATOM     18  C   UNL     1      -1.487   0.143  -4.761  0.00  0.00    -0.095 C 
ATOM     19  H   UNL     1      -0.018  -1.248  -5.028  0.00  0.00    -0.081 HD
BRANCH  17  20
ATOM     20  C   UNL     1      -0.661  -1.373  -3.096  0.00  0.00    -0.074 C 
BRANCH  20  21
ATOM     21  C   UNL     1       0.389  -0.371  -2.612  0.00  0.00    +0.016 C 
BRANCH  21  24
ATOM     22  C   UNL     1      -0.080   1.548   0.009  0.00  0.00    +0.039 C 
ATOM     23  C   UNL     1      -0.154   0.020   0.024  0.00  0.00    +0.153 C 
ATOM     24  C   UNL     1       0.629  -0.567  -1.137  0.00  0.00    -0.023 C 
ATOM     25  C   UNL     1       1.579  -1.297  -0.548  0.00  0.00    +0.061 C 
ATOM     26  N   UNL     1       1.472  -1.228   0.797  0.00  0.00    -0.159 NA
ATOM     27  N   UNL     1       0.540  -0.523   1.204  0.00  0.00    -0.180 NA
ATOM     28  C   UNL     1       2.627  -2.091  -1.284  0.00  0.00    +0.067 C 
ENDBRANCH  21  24
ENDBRANCH  20  21
ENDBRANCH  17  20
ENDBRANCH   1  17
BRANCH   9  29
ATOM     29  O   UNL     1      -3.325  -2.510  -6.927  0.00  0.00    -0.392 OA
ATOM     30  H   UNL     1      -4.040  -1.996  -6.526  0.00  0.00    +0.210 HD
ENDBRANCH   9  29
TORSDOF 5
