REMARK  Name = ZINC36244401
REMARK  6 active torsions:
REMARK  status: ('A' for Active; 'I' for Inactive)
REMARK    1  A    between atoms: C_1  and  C_2
REMARK    2  A    between atoms: C_2  and  C_3
REMARK    3  A    between atoms: C_2  and  C_4
REMARK    4  A    between atoms: C_2  and  C_5
REMARK    5  A    between atoms: C_6  and  C_15
REMARK    6  A    between atoms: C_15  and  N_16
REMARK                            x       y       z     vdW  Elec       q    Type
REMARK                         _______ _______ _______ _____ _____    ______ ____
ROOT
ATOM      1  C   UNL     1       0.666  -0.391  -1.266  0.00  0.00    +0.067 A 
ATOM      2  C   UNL     1       0.867  -1.648  -1.721  0.00  0.00    +0.031 A 
ATOM      3  N   UNL     1       1.653  -1.553  -2.838  0.00  0.00    -0.292 N 
ATOM      4  C   UNL     1       1.912  -0.222  -3.034  0.00  0.00    +0.139 A 
ATOM      5  N   UNL     1       1.300   0.461  -2.076  0.00  0.00    -0.232 NA
ATOM      6  C   UNL     1       2.707   0.180  -4.125  0.00  0.00    +0.047 A 
ATOM      7  C   UNL     1       3.207  -0.763  -4.969  0.00  0.00    +0.006 A 
ATOM      8  C   UNL     1       2.925  -2.119  -4.742  0.00  0.00    +0.034 A 
ATOM      9  C   UNL     1       2.160  -2.490  -3.691  0.00  0.00    +0.091 A 
ATOM     10 BR   UNL     1       1.790  -4.321  -3.401  0.00  0.00    -0.030 Br
ENDROOT
BRANCH   1  12
ATOM     11  C   UNL     1       0.004   1.486   0.212  0.00  0.00    +0.017 C 
ATOM     12  C   UNL     1      -0.143  -0.014  -0.053  0.00  0.00    +0.006 C 
ATOM     13  C   UNL     1       0.361  -0.798   1.160  0.00  0.00    +0.017 C 
ATOM     14  C   UNL     1      -1.616  -0.346  -0.299  0.00  0.00    +0.017 C 
ENDBRANCH   1  12
BRANCH   2  15
ATOM     15  C   UNL     1       0.327  -2.916  -1.111  0.00  0.00    -0.030 C 
BRANCH  15  16
ATOM     16  N   UNL     1       1.356  -3.526  -0.259  0.00  0.00    +0.382 N 
ATOM     17  H   UNL     1       1.558  -2.913   0.517  0.00  0.00    -0.090 HD
ATOM     18  H   UNL     1       1.022  -4.412   0.091  0.00  0.00    -0.090 HD
ATOM     19  H   UNL     1       2.196  -3.673  -0.798  0.00  0.00    -0.090 HD
ENDBRANCH  15  16
ENDBRANCH   2  15
TORSDOF 3
