REMARK  Name = ZINC54628625
REMARK  6 active torsions:
REMARK  status: ('A' for Active; 'I' for Inactive)
REMARK    1  A    between atoms: C_1  and  C_2
REMARK    2  A    between atoms: C_2  and  C_3
REMARK    3  A    between atoms: C_3  and  C_5
REMARK    4  A    between atoms: C_3  and  N_11
REMARK    5  A    between atoms: C_19  and  N_21
REMARK    6  A    between atoms: N_21  and  C_22
REMARK                            x       y       z     vdW  Elec       q    Type
REMARK                         _______ _______ _______ _____ _____    ______ ____
ROOT
ATOM      1  N   UNL     1      -2.133  -0.144   0.917  0.00  0.00    +0.385 N 
ATOM      2  C   UNL     1      -3.616  -0.238   0.845  0.00  0.00    -0.069 C 
ATOM      3  C   UNL     1      -4.046   1.081   0.162  0.00  0.00    -0.017 C 
ATOM      4  C   UNL     1      -2.909   2.076   0.473  0.00  0.00    -0.017 C 
ATOM      5  C   UNL     1      -1.895   1.269   1.315  0.00  0.00    -0.069 C 
ATOM      6  C   UNL     1      -2.299   1.401   2.792  0.00  0.00    -0.031 C 
ATOM      7  C   UNL     1      -3.802   1.136   2.920  0.00  0.00    -0.075 C 
ATOM      8  C   UNL     1      -4.144  -0.231   2.288  0.00  0.00    -0.031 C 
ATOM      9  H   UNL     1      -1.769  -0.776   1.615  0.00  0.00    -0.081 HD
ENDROOT
BRANCH   7  10
ATOM     10  N   UNL     1      -4.545   2.201   2.233  0.00  0.00    +0.379 N 
ATOM     11  C   UNL     1      -4.243   3.494   2.861  0.00  0.00    -0.100 C 
ATOM     12  H   UNL     1      -4.274   2.227   1.262  0.00  0.00    -0.086 HD
ATOM     13  H   UNL     1      -5.535   2.017   2.301  0.00  0.00    -0.086 HD
ENDBRANCH   7  10
BRANCH   1  14
ATOM     14  C   UNL     1      -1.533  -0.421  -0.395  0.00  0.00    -0.065 C 
BRANCH  14  15
ATOM     15  C   UNL     1      -1.713  -1.902  -0.736  0.00  0.00    -0.025 C 
ATOM     16  C   UNL     1      -1.186  -2.759   0.416  0.00  0.00    +0.002 C 
ATOM     17  C   UNL     1      -1.366  -4.239   0.075  0.00  0.00    +0.000 C 
ATOM     18  C   UNL     1      -0.589  -4.567  -1.202  0.00  0.00    +0.000 C 
ATOM     19  C   UNL     1      -1.117  -3.709  -2.354  0.00  0.00    +0.000 C 
ATOM     20  C   UNL     1      -0.936  -2.229  -2.013  0.00  0.00    +0.002 C 
ENDBRANCH  14  15
BRANCH  14  22
ATOM     21  C   UNL     1       0.443   0.262  -1.763  0.00  0.00    +0.002 C 
ATOM     22  C   UNL     1      -0.041  -0.086  -0.353  0.00  0.00    -0.018 C 
ENDBRANCH  14  22
ENDBRANCH   1  14
TORSDOF 4
