REMARK  Name = ZINC44863410
REMARK  10 active torsions:
REMARK  status: ('A' for Active; 'I' for Inactive)
REMARK    1  A    between atoms: C_1  and  C_2
REMARK    2  A    between atoms: C_2  and  C_3
REMARK    3  A    between atoms: C_3  and  C_5
REMARK    4  A    between atoms: C_3  and  C_9
REMARK    5  A    between atoms: N_6  and  O_7
REMARK    6  A    between atoms: N_11  and  C_12
REMARK    7  A    between atoms: C_12  and  C_13
REMARK    8  A    between atoms: C_13  and  C_14
REMARK    9  A    between atoms: C_14  and  N_15
REMARK   10  A    between atoms: C_20  and  C_22
REMARK                            x       y       z     vdW  Elec       q    Type
REMARK                         _______ _______ _______ _____ _____    ______ ____
ROOT
ATOM      1  C   UNL     1       2.208  -0.296  -1.092  0.00  0.00    +0.223 C 
ATOM      2  O   UNL     1       3.021  -1.196  -1.125  0.00  0.00    -0.275 OA
ATOM      3  N   UNL     1       2.620   0.980  -0.963  0.00  0.00    -0.315 N 
ATOM      4  H   UNL     1       1.977   1.704  -1.010  0.00  0.00    +0.149 HD
ENDROOT
BRANCH   1   5
ATOM      5  C   UNL     1       0.737  -0.607  -1.196  0.00  0.00    +0.141 C 
BRANCH   5   6
ATOM      6  C   UNL     1       0.538  -1.806  -2.087  0.00  0.00    +0.144 C 
ATOM      7  N   UNL     1       0.435  -2.985  -1.569  0.00  0.00    -0.076 NA
ATOM      8  N   UNL     1       0.466  -1.645  -3.453  0.00  0.00    -0.343 N 
ATOM      9  H   UNL     1       0.544  -0.760  -3.842  0.00  0.00    +0.144 HD
ATOM     10  H   UNL     1       0.339  -2.417  -4.026  0.00  0.00    +0.144 HD
BRANCH   7  11
ATOM     11  O   UNL     1       0.249  -4.112  -2.406  0.00  0.00    -0.408 OA
ATOM     12  H   UNL     1       0.183  -4.950  -1.928  0.00  0.00    +0.328 HD
ENDBRANCH   7  11
ENDBRANCH   5   6
BRANCH   5  14
ATOM     13  C   UNL     1      -1.338  -1.081   0.111  0.00  0.00    +0.005 C 
ATOM     14  C   UNL     1       0.179  -0.907   0.196  0.00  0.00    +0.017 C 
ENDBRANCH   5  14
ENDBRANCH   1   5
BRANCH   3  15
ATOM     15  C   UNL     1       4.040   1.274  -0.751  0.00  0.00    +0.102 C 
BRANCH  15  16
ATOM     16  C   UNL     1       4.236   2.787  -0.637  0.00  0.00    +0.000 C 
BRANCH  16  17
ATOM     17  C   UNL     1       5.718   3.094  -0.416  0.00  0.00    -0.077 C 
BRANCH  17  18
ATOM     18  N   UNL     1       5.907   4.546  -0.307  0.00  0.00    +0.381 N 
ATOM     19  C   UNL     1       5.217   5.039   0.891  0.00  0.00    -0.078 C 
ATOM     20  C   UNL     1       5.342   6.562   0.966  0.00  0.00    -0.019 C 
ATOM     21  C   UNL     1       6.823   6.945   1.034  0.00  0.00    -0.003 C 
ATOM     22  C   UNL     1       7.547   6.362  -0.183  0.00  0.00    -0.016 C 
ATOM     23  C   UNL     1       7.341   4.847  -0.215  0.00  0.00    -0.072 C 
ATOM     24  C   UNL     1       8.063   4.260  -1.429  0.00  0.00    -0.013 C 
ATOM     25  H   UNL     1       5.522   4.997  -1.124  0.00  0.00    -0.081 HD
ENDBRANCH  17  18
ENDBRANCH  16  17
ENDBRANCH  15  16
ENDBRANCH   3  15
TORSDOF 8
