REMARK  Name = ZINC08915056
REMARK  8 active torsions:
REMARK  status: ('A' for Active; 'I' for Inactive)
REMARK    1  A    between atoms: C_3  and  N_35
REMARK    2  A    between atoms: C_6  and  C_7
REMARK    3  A    between atoms: C_10  and  C_11
REMARK    4  A    between atoms: C_10  and  O_21
REMARK    5  A    between atoms: N_26  and  C_27
REMARK    6  A    between atoms: C_27  and  C_28
REMARK    7  A    between atoms: C_28  and  C_29
REMARK    8  A    between atoms: C_29  and  N_64
REMARK                            x       y       z     vdW  Elec       q    Type
REMARK                         _______ _______ _______ _____ _____    ______ ____
ROOT
ATOM      1  C   UNL     1      -3.321   6.145  -1.560  0.00  0.00    +0.144 C 
ATOM      2  C   UNL     1      -3.118   7.642  -1.603  0.00  0.00    +0.071 C 
ATOM      3  C   UNL     1      -3.739   8.587  -0.810  0.00  0.00    +0.133 C 
ATOM      4  C   UNL     1      -2.176   7.879  -2.615  0.00  0.00    +0.249 C 
ATOM      5  O   UNL     1      -1.754   8.969  -2.957  0.00  0.00    -0.282 OA
ATOM      6  C   UNL     1      -1.782   6.568  -3.200  0.00  0.00    +0.288 C 
ATOM      7  O   UNL     1      -0.982   6.420  -4.101  0.00  0.00    -0.266 OA
ATOM      8  N   UNL     1      -2.443   5.573  -2.585  0.00  0.00    -0.284 N 
ENDROOT
BRANCH   3   9
ATOM      9  C   UNL     1      -3.324   9.996  -0.882  0.00  0.00    +0.021 A 
ATOM     10  C   UNL     1      -1.972  10.337  -0.759  0.00  0.00    +0.015 A 
ATOM     11  C   UNL     1      -1.587  11.656  -0.831  0.00  0.00    +0.050 A 
ATOM     12  C   UNL     1      -2.537  12.655  -1.016  0.00  0.00    +0.162 A 
ATOM     13  C   UNL     1      -3.885  12.324  -1.137  0.00  0.00    +0.163 A 
ATOM     14  C   UNL     1      -4.279  11.001  -1.070  0.00  0.00    +0.061 A 
ATOM     15  O   UNL     1      -4.825  13.290  -1.327  0.00  0.00    -0.485 OA
ATOM     16  C   UNL     1      -4.438  14.633  -1.020  0.00  0.00    +0.270 C 
ATOM     17  C   UNL     1      -3.058  14.889  -1.639  0.00  0.00    +0.270 C 
ATOM     18  O   UNL     1      -2.133  13.952  -1.076  0.00  0.00    -0.485 OA
ENDBRANCH   3   9
BRANCH   1  24
ATOM     19  C   UNL     1      -1.609   5.454   0.131  0.00  0.00    +0.008 A 
ATOM     20  C   UNL     1      -1.262   4.972   1.379  0.00  0.00    +0.033 A 
ATOM     21  C   UNL     1      -2.246   4.641   2.291  0.00  0.00    +0.126 A 
ATOM     22  C   UNL     1      -3.579   4.797   1.957  0.00  0.00    +0.033 A 
ATOM     23  C   UNL     1      -3.926   5.284   0.710  0.00  0.00    +0.008 A 
ATOM     24  C   UNL     1      -2.942   5.614  -0.202  0.00  0.00    -0.022 A 
BRANCH  21  25
ATOM     25  N   UNL     1      -1.874   4.121   3.626  0.00  0.00    +0.056 N 
ATOM     26  O   UNL     1      -2.742   3.830   4.429  0.00  0.00    -0.126 OA
ATOM     27  O   UNL     1      -0.700   3.984   3.920  0.00  0.00    -0.126 OA
ENDBRANCH  21  25
ENDBRANCH   1  24
BRANCH   3  28
ATOM     28  O   UNL     1      -4.728   8.217   0.032  0.00  0.00    -0.506 OA
ATOM     29  H   UNL     1      -5.063   9.019   0.525  0.00  0.00    +0.292 HD
ENDBRANCH   3  28
BRANCH   8  30
ATOM     30  C   UNL     1      -2.311   4.146  -2.894  0.00  0.00    +0.107 C 
BRANCH  30  31
ATOM     31  C   UNL     1      -1.200   3.539  -2.035  0.00  0.00    +0.000 C 
BRANCH  31  32
ATOM     32  C   UNL     1      -1.063   2.050  -2.357  0.00  0.00    -0.077 C 
BRANCH  32  38
ATOM     33  C   UNL     1       1.316   2.020  -1.900  0.00  0.00    -0.050 C 
ATOM     34  C   UNL     1       2.388   1.432  -0.979  0.00  0.00    +0.141 C 
ATOM     35  O   UNL     1       2.357   0.005  -1.070  0.00  0.00    -0.383 OA
ATOM     36  C   UNL     1       1.094  -0.568  -0.719  0.00  0.00    +0.141 C 
ATOM     37  C   UNL     1       0.009   0.001  -1.637  0.00  0.00    -0.050 C 
ATOM     38  N   UNL     1       0.001   1.473  -1.506  0.00  0.00    +0.383 N 
ATOM     39  H   UNL     1      -0.184   1.720  -0.527  0.00  0.00    -0.082 HD
ENDBRANCH  32  38
ENDBRANCH  31  32
ENDBRANCH  30  31
ENDBRANCH   8  30
TORSDOF 8
