REMARK  Name = ZINC21320829
REMARK  11 active torsions:
REMARK  status: ('A' for Active; 'I' for Inactive)
REMARK    1  A    between atoms: C_4  and  C_7
REMARK    2  A    between atoms: C_7  and  O_8
REMARK    3  A    between atoms: O_8  and  C_9
REMARK    4  A    between atoms: C_14  and  C_15
REMARK    5  A    between atoms: N_16  and  N_17
REMARK    6  A    between atoms: C_21  and  S_24
REMARK    7  A    between atoms: N_22  and  N_23
REMARK    8  A    between atoms: S_24  and  C_25
REMARK    9  A    between atoms: C_25  and  C_26
REMARK   10  A    between atoms: N_28  and  C_29
REMARK   11  A    between atoms: C_34  and  N_35
REMARK                            x       y       z     vdW  Elec       q    Type
REMARK                         _______ _______ _______ _____ _____    ______ ____
ROOT
ATOM      1  N   UNL     1      -4.825   0.977   0.141  0.00  0.00    -0.204 N 
ATOM      2  C   UNL     1      -6.035   1.655   0.137  0.00  0.00    +0.254 A 
ATOM      3  N   UNL     1      -6.190   2.957   0.156  0.00  0.00    -0.109 NA
ATOM      4  N   UNL     1      -7.564   3.230   0.140  0.00  0.00    -0.119 NA
ATOM      5  C   UNL     1      -8.204   2.086   0.121  0.00  0.00    +0.210 A 
ATOM      6  N   UNL     1      -7.277   1.083   0.118  0.00  0.00    -0.211 N 
ATOM      7  H   UNL     1      -4.810  -0.122   0.129  0.00  0.00    +0.177 HD
ENDROOT
BRANCH   6   8
ATOM      8  N   UNL     1      -7.543  -0.257   0.100  0.00  0.00    -0.294 N 
ATOM      9  H   UNL     1      -8.585  -0.611   0.086  0.00  0.00    +0.163 HD
ATOM     10  H   UNL     1      -6.716  -0.982   0.100  0.00  0.00    +0.163 HD
ENDBRANCH   6   8
BRANCH   1  12
ATOM     11  C   UNL     1      -2.488   1.059   0.165  0.00  0.00    +0.142 C 
ATOM     12  N   UNL     1      -3.621   1.694   0.161  0.00  0.00    -0.187 NA
BRANCH  11  18
ATOM     13  C   UNL     1      -1.236   3.214   0.207  0.00  0.00    +0.130 A 
ATOM     14  C   UNL     1      -0.040   3.913   0.220  0.00  0.00    +0.046 A 
ATOM     15  C   UNL     1       1.162   3.230   0.219  0.00  0.00    +0.004 A 
ATOM     16  C   UNL     1       1.181   1.846   0.204  0.00  0.00    +0.001 A 
ATOM     17  C   UNL     1      -0.001   1.134   0.190  0.00  0.00    +0.013 A 
ATOM     18  C   UNL     1      -1.222   1.813   0.186  0.00  0.00    +0.036 A 
BRANCH  13  19
ATOM     19  O   UNL     1      -2.417   3.884   0.210  0.00  0.00    -0.487 OA
BRANCH  19  20
ATOM     20  C   UNL     1      -2.353   5.312   0.226  0.00  0.00    +0.264 C 
BRANCH  20  24
ATOM     21  C   UNL     1      -6.312   6.915   0.227  0.00  0.00    +0.000 A 
ATOM     22  C   UNL     1      -5.677   6.642   1.424  0.00  0.00    +0.000 A 
ATOM     23  C   UNL     1      -4.396   6.123   1.424  0.00  0.00    +0.007 A 
ATOM     24  C   UNL     1      -3.750   5.877   0.227  0.00  0.00    -0.010 A 
ATOM     25  C   UNL     1      -4.383   6.155  -0.970  0.00  0.00    +0.007 A 
ATOM     26  C   UNL     1      -5.667   6.669  -0.970  0.00  0.00    +0.000 A 
ENDBRANCH  20  24
ENDBRANCH  19  20
ENDBRANCH  13  19
ENDBRANCH  11  18
ENDBRANCH   1  12
BRANCH   5  27
ATOM     27  S   UNL     1      -9.954   1.878   0.102  0.00  0.00    -0.075 S 
BRANCH  27  28
ATOM     28  C   UNL     1     -10.597   3.575   0.116  0.00  0.00    +0.173 C 
BRANCH  28  29
ATOM     29  C   UNL     1     -12.104   3.541   0.101  0.00  0.00    +0.228 C 
ATOM     30  O   UNL     1     -12.686   2.477   0.084  0.00  0.00    -0.275 OA
ATOM     31  N   UNL     1     -12.803   4.692   0.108  0.00  0.00    -0.283 N 
ATOM     32  H   UNL     1     -12.278   5.655   0.197  0.00  0.00    +0.155 HD
BRANCH  31  33
ATOM     33  C   UNL     1     -14.198   4.664   0.001  0.00  0.00    +0.064 A 
ATOM     34  C   UNL     1     -14.921   3.634   0.591  0.00  0.00    +0.025 A 
ATOM     35  C   UNL     1     -16.297   3.612   0.488  0.00  0.00    +0.002 A 
ATOM     36  C   UNL     1     -16.957   4.607  -0.209  0.00  0.00    +0.002 A 
ATOM     37  C   UNL     1     -16.240   5.631  -0.802  0.00  0.00    +0.034 A 
ATOM     38  C   UNL     1     -14.863   5.662  -0.699  0.00  0.00    +0.147 A 
BRANCH  38  39
ATOM     39  N   UNL     1     -14.097   6.757  -1.335  0.00  0.00    +0.058 N 
ATOM     40  O   UNL     1     -14.684   7.684  -1.863  0.00  0.00    -0.126 OA
ATOM     41  O   UNL     1     -12.879   6.731  -1.329  0.00  0.00    -0.126 OA
ENDBRANCH  38  39
ENDBRANCH  31  33
ENDBRANCH  28  29
ENDBRANCH  27  28
ENDBRANCH   5  27
TORSDOF 11
