REMARK  Name = ZINC41730902
REMARK  7 active torsions:
REMARK  status: ('A' for Active; 'I' for Inactive)
REMARK    1  A    between atoms: C_1  and  C_2
REMARK    2  A    between atoms: N_6  and  C_7
REMARK    3  A    between atoms: C_7  and  C_9
REMARK    4  A    between atoms: C_7  and  C_10
REMARK    5  A    between atoms: C_14  and  C_19
REMARK    6  A    between atoms: C_14  and  C_20
REMARK    7  A    between atoms: C_16  and  N_18
REMARK                            x       y       z     vdW  Elec       q    Type
REMARK                         _______ _______ _______ _____ _____    ______ ____
ROOT
ATOM      1  C   UNL     1      -0.104   1.620   0.113  0.00  0.00    +0.063 C 
ATOM      2  C   UNL     1      -0.005   0.119   0.023  0.00  0.00    +0.017 A 
ATOM      3  C   UNL     1      -0.048  -0.610  -1.114  0.00  0.00    +0.024 A 
ATOM      4  C   UNL     1       0.079  -1.958  -0.749  0.00  0.00    -0.041 A 
ATOM      5  C   UNL     1       0.196  -2.009   0.598  0.00  0.00    +0.022 A 
ATOM      6  N   UNL     1       0.150  -0.738   1.075  0.00  0.00    -0.336 N 
ATOM      7  C   UNL     1       0.357  -3.287   1.384  0.00  0.00    +0.060 C 
ATOM      8  C   UNL     1       0.775  -4.401   0.417  0.00  0.00    -0.031 C 
ATOM      9  C   UNL     1      -0.168  -4.412  -0.789  0.00  0.00    -0.005 C 
ATOM     10  C   UNL     1       0.087  -3.168  -1.649  0.00  0.00    -0.042 C 
ATOM     11  C   UNL     1       0.704  -5.751   1.133  0.00  0.00    +0.011 C 
ATOM     12  C   UNL     1       2.208  -4.152  -0.059  0.00  0.00    +0.011 C 
ENDROOT
BRANCH  10  13
ATOM     13  N   UNL     1      -0.972  -3.039  -2.659  0.00  0.00    +0.383 N 
ATOM     14  H   UNL     1      -0.811  -2.210  -3.211  0.00  0.00    -0.089 HD
ATOM     15  H   UNL     1      -0.964  -3.850  -3.260  0.00  0.00    -0.089 HD
ATOM     16  H   UNL     1      -1.868  -2.970  -2.200  0.00  0.00    -0.089 HD
ENDBRANCH  10  13
BRANCH   6  17
ATOM     17  C   UNL     1       0.247  -0.350   2.485  0.00  0.00    +0.169 C 
ATOM     18  C   UNL     1       1.619  -0.751   3.030  0.00  0.00    +0.041 C 
BRANCH  17  19
ATOM     19  C   UNL     1      -0.830  -1.049   3.273  0.00  0.00    +0.233 C 
ATOM     20  O   UNL     1      -1.603  -1.797   2.713  0.00  0.00    -0.274 OA
ATOM     21  N   UNL     1      -0.935  -0.843   4.601  0.00  0.00    -0.328 N 
ATOM     22  H   UNL     1      -0.317  -0.245   5.049  0.00  0.00    +0.145 HD
ATOM     23  H   UNL     1      -1.628  -1.292   5.109  0.00  0.00    +0.145 HD
ENDBRANCH  17  19
ENDBRANCH   6  17
TORSDOF 3
