REMARK  Name = ZINC12468305
REMARK  7 active torsions:
REMARK  status: ('A' for Active; 'I' for Inactive)
REMARK    1  A    between atoms: C_1  and  C_2
REMARK    2  A    between atoms: C_2  and  C_4
REMARK    3  A    between atoms: C_2  and  O_36
REMARK    4  A    between atoms: C_9  and  N_10
REMARK    5  A    between atoms: C_11  and  C_13
REMARK    6  A    between atoms: C_19  and  C_28
REMARK    7  A    between atoms: C_22  and  C_24
REMARK                            x       y       z     vdW  Elec       q    Type
REMARK                         _______ _______ _______ _____ _____    ______ ____
ROOT
ATOM      1  C   UNL     1      -1.459  -0.276  -4.830  0.00  0.00    +0.096 A 
ATOM      2  C   UNL     1      -0.136   0.206  -4.998  0.00  0.00    +0.149 A 
ATOM      3  N   UNL     1       0.103   0.307  -6.278  0.00  0.00    -0.177 NA
ATOM      4  N   UNL     1      -1.027  -0.096  -6.988  0.00  0.00    -0.238 N 
ATOM      5  C   UNL     1      -1.981  -0.457  -6.097  0.00  0.00    +0.130 A 
ATOM      6  N   UNL     1      -3.231  -0.911  -6.476  0.00  0.00    -0.319 N 
ATOM      7  C   UNL     1      -3.590  -0.722  -7.896  0.00  0.00    +0.140 C 
ATOM      8  C   UNL     1      -2.379  -1.096  -8.757  0.00  0.00    +0.066 C 
ATOM      9  C   UNL     1      -1.211  -0.149  -8.442  0.00  0.00    +0.215 C 
ATOM     10  H   UNL     1      -3.838  -1.330  -5.846  0.00  0.00    +0.148 HD
ENDROOT
BRANCH   7  11
ATOM     11  C   UNL     1      -4.758  -1.608  -8.245  0.00  0.00    +0.125 A 
ATOM     12  C   UNL     1      -5.793  -1.271  -9.036  0.00  0.00    +0.046 A 
ATOM     13  C   UNL     1      -6.650  -2.394  -9.090  0.00  0.00    +0.041 A 
ATOM     14  C   UNL     1      -6.088  -3.350  -8.329  0.00  0.00    +0.195 A 
ATOM     15  O   UNL     1      -4.939  -2.871  -7.825  0.00  0.00    -0.466 OA
ENDBRANCH   7  11
BRANCH   1  17
ATOM     16  N   UNL     1      -1.500  -0.313  -2.391  0.00  0.00    -0.281 N 
ATOM     17  C   UNL     1      -2.140  -0.538  -3.556  0.00  0.00    +0.253 C 
ATOM     18  O   UNL     1      -3.281  -0.959  -3.552  0.00  0.00    -0.270 OA
ATOM     19  H   UNL     1      -0.615   0.083  -2.393  0.00  0.00    +0.155 HD
BRANCH  16  25
ATOM     20  C   UNL     1      -1.349  -1.120  -0.120  0.00  0.00    +0.005 A 
ATOM     21  C   UNL     1      -1.952  -1.450   1.079  0.00  0.00    +0.057 A 
ATOM     22  C   UNL     1      -3.323  -1.318   1.226  0.00  0.00    +0.167 A 
ATOM     23  C   UNL     1      -4.095  -0.852   0.163  0.00  0.00    +0.168 A 
ATOM     24  C   UNL     1      -3.490  -0.523  -1.037  0.00  0.00    +0.073 A 
ATOM     25  C   UNL     1      -2.114  -0.651  -1.179  0.00  0.00    +0.043 A 
ATOM     26  O   UNL     1      -5.402  -0.813   0.557  0.00  0.00    -0.453 OA
ATOM     27  C   UNL     1      -5.474  -1.644   1.731  0.00  0.00    +0.466 C 
ATOM     28  O   UNL     1      -4.147  -1.570   2.285  0.00  0.00    -0.453 OA
BRANCH  20  30
ATOM     29  C   UNL     1       0.819   0.076   0.020  0.00  0.00    +0.043 C 
ATOM     30  C   UNL     1       0.143  -1.265  -0.276  0.00  0.00    +0.143 C 
BRANCH  30  31
ATOM     31  O   UNL     1       0.624  -2.253   0.637  0.00  0.00    -0.387 OA
ATOM     32  H   UNL     1       1.579  -2.399   0.592  0.00  0.00    +0.210 HD
ENDBRANCH  30  31
ENDBRANCH  20  30
ENDBRANCH  16  25
ENDBRANCH   1  17
BRANCH   9  33
ATOM     33  C   UNL     1       0.061  -0.687  -9.100  0.00  0.00    +0.412 C 
ATOM     34  F   UNL     1       0.328  -1.973  -8.618  0.00  0.00    -0.168 F 
ATOM     35  F   UNL     1      -0.117  -0.737 -10.487  0.00  0.00    -0.168 F 
ATOM     36  F   UNL     1       1.135   0.157  -8.798  0.00  0.00    -0.168 F 
ENDBRANCH   9  33
TORSDOF 6
