REMARK  Name = ZINC37868088
REMARK  9 active torsions:
REMARK  status: ('A' for Active; 'I' for Inactive)
REMARK    1  A    between atoms: C_1  and  C_2
REMARK    2  A    between atoms: C_7  and  C_37
REMARK    3  A    between atoms: C_8  and  C_33
REMARK    4  A    between atoms: C_10  and  C_31
REMARK    5  A    between atoms: C_10  and  C_32
REMARK    6  A    between atoms: C_11  and  O_12
REMARK    7  A    between atoms: C_17  and  O_30
REMARK    8  A    between atoms: C_23  and  C_25
REMARK    9  A    between atoms: C_33  and  C_34
REMARK                            x       y       z     vdW  Elec       q    Type
REMARK                         _______ _______ _______ _____ _____    ______ ____
ROOT
ATOM      1  C   UNL     1       6.912  -0.805  -0.452  0.00  0.00    +0.020 C 
ATOM      2  C   UNL     1       5.627  -1.516  -0.019  0.00  0.00    +0.033 C 
ATOM      3  C   UNL     1       6.083  -2.760   0.697  0.00  0.00    +0.015 C 
ATOM      4  C   UNL     1       7.066  -2.444   1.826  0.00  0.00    +0.008 C 
ATOM      5  C   UNL     1       6.884  -1.009   2.330  0.00  0.00    +0.039 C 
ATOM      6  C   UNL     1       7.633  -0.806   3.648  0.00  0.00    +0.040 C 
ATOM      7  C   UNL     1       7.175  -1.736   4.762  0.00  0.00    +0.026 C 
ATOM      8  C   UNL     1       6.659  -1.009   6.010  0.00  0.00    +0.027 C 
ATOM      9  C   UNL     1       5.686   0.076   5.600  0.00  0.00    +0.107 C 
ATOM     10  C   UNL     1       5.841   0.483   4.377  0.00  0.00    +0.036 C 
ATOM     11  C   UNL     1       7.254   0.612   4.080  0.00  0.00    +0.169 C 
ATOM     12  O   UNL     1       7.960   1.597   4.156  0.00  0.00    -0.292 OA
ATOM     13  C   UNL     1       5.013   0.572   3.164  0.00  0.00    +0.081 C 
ATOM     14  C   UNL     1       5.400  -0.661   2.362  0.00  0.00    +0.096 C 
ATOM     15  C   UNL     1       4.952  -0.563   0.925  0.00  0.00    -0.021 C 
ATOM     16  C   UNL     1       4.025   0.281   0.507  0.00  0.00    +0.094 C 
ATOM     17  C   UNL     1       3.639   0.261  -0.919  0.00  0.00    +0.333 C 
ATOM     18  O   UNL     1       2.658   0.862  -1.308  0.00  0.00    -0.246 OA
ATOM     19  O   UNL     1       4.409  -0.446  -1.784  0.00  0.00    -0.453 OA
ATOM     20  C   UNL     1       4.850  -1.740  -1.286  0.00  0.00    +0.220 C 
ATOM     21  C   UNL     1       7.837  -0.381   6.757  0.00  0.00    +0.019 C 
ATOM     22  C   UNL     1       5.950  -2.009   6.925  0.00  0.00    +0.019 C 
ATOM     23  C   UNL     1       9.143  -0.932   3.432  0.00  0.00    +0.020 C 
ENDROOT
BRANCH  20  24
ATOM     24  C   UNL     1       5.741  -2.383  -2.317  0.00  0.00    +0.031 A 
ATOM     25  C   UNL     1       5.996  -3.765  -2.465  0.00  0.00    +0.048 A 
ATOM     26  C   UNL     1       6.841  -3.897  -3.504  0.00  0.00    +0.195 A 
ATOM     27  O   UNL     1       7.109  -2.674  -3.990  0.00  0.00    -0.471 OA
ATOM     28  C   UNL     1       6.441  -1.752  -3.277  0.00  0.00    +0.202 A 
ENDBRANCH  20  24
BRANCH   9  29
ATOM     29  O   UNL     1       4.747   0.573   6.428  0.00  0.00    -0.510 OA
ATOM     30  H   UNL     1       4.196   1.261   6.030  0.00  0.00    +0.292 HD
ENDBRANCH   9  29
BRANCH  14  31
ATOM     31  O   UNL     1       4.716  -1.781   2.928  0.00  0.00    -0.384 OA
ATOM     32  H   UNL     1       3.758  -1.663   2.995  0.00  0.00    +0.211 HD
ENDBRANCH  14  31
BRANCH   7  33
ATOM     33  C   UNL     1       8.352  -2.624   5.171  0.00  0.00    +0.130 C 
BRANCH  33  34
ATOM     34  C   UNL     1       9.404  -1.784   5.848  0.00  0.00    +0.356 C 
ATOM     35  O   UNL     1       9.412  -0.574   5.692  0.00  0.00    -0.246 OA
ATOM     36  O   UNL     1      10.246  -2.313   6.553  0.00  0.00    -0.246 OA
ENDBRANCH  33  34
ENDBRANCH   7  33
TORSDOF 5
