REMARK  Name = ZINC55042082
REMARK  9 active torsions:
REMARK  status: ('A' for Active; 'I' for Inactive)
REMARK    1  A    between atoms: C_1  and  C_2
REMARK    2  A    between atoms: C_2  and  C_3
REMARK    3  A    between atoms: C_3  and  C_4
REMARK    4  A    between atoms: C_4  and  C_5
REMARK    5  A    between atoms: N_7  and  C_8
REMARK    6  A    between atoms: C_11  and  N_14
REMARK    7  A    between atoms: C_15  and  C_17
REMARK    8  A    between atoms: C_17  and  C_18
REMARK    9  A    between atoms: C_19  and  C_27
REMARK                            x       y       z     vdW  Elec       q    Type
REMARK                         _______ _______ _______ _____ _____    ______ ____
ROOT
ATOM      1  N   UNL     1       4.529  -5.417  -7.183  0.00  0.00    -0.285 N 
ATOM      2  C   UNL     1       4.164  -6.513  -7.877  0.00  0.00    +0.223 C 
ATOM      3  O   UNL     1       3.252  -7.206  -7.480  0.00  0.00    -0.275 OA
ATOM      4  H   UNL     1       5.301  -4.900  -7.462  0.00  0.00    +0.155 HD
ENDROOT
BRANCH   1   8
ATOM      5  C   UNL     1       2.338  -4.247  -3.833  0.00  0.00    +0.033 A 
ATOM      6  C   UNL     1       2.903  -3.287  -4.663  0.00  0.00    +0.025 A 
ATOM      7  C   UNL     1       3.628  -3.675  -5.772  0.00  0.00    +0.025 A 
ATOM      8  C   UNL     1       3.793  -5.024  -6.057  0.00  0.00    +0.034 A 
ATOM      9  C   UNL     1       3.229  -5.983  -5.227  0.00  0.00    +0.025 A 
ATOM     10  C   UNL     1       2.508  -5.596  -4.115  0.00  0.00    +0.025 A 
BRANCH   5  13
ATOM     11  C   UNL     1       1.654  -4.588  -1.579  0.00  0.00    +0.217 C 
ATOM     12  O   UNL     1       2.270  -5.632  -1.562  0.00  0.00    -0.275 OA
ATOM     13  N   UNL     1       1.602  -3.854  -2.708  0.00  0.00    -0.285 N 
ATOM     14  H   UNL     1       1.055  -3.053  -2.742  0.00  0.00    +0.155 HD
BRANCH  11  15
ATOM     15  C   UNL     1       0.946  -4.110  -0.337  0.00  0.00    +0.096 C 
BRANCH  15  16
ATOM     16  C   UNL     1       1.162  -5.119   0.793  0.00  0.00    +0.009 C 
BRANCH  16  18
ATOM     17  C   UNL     1       0.658  -5.644   3.183  0.00  0.00    +0.004 C 
ATOM     18  C   UNL     1       0.443  -4.635   2.054  0.00  0.00    -0.003 C 
ENDBRANCH  16  18
ENDBRANCH  15  16
ENDBRANCH  11  15
ENDBRANCH   5  13
ENDBRANCH   1   8
BRANCH   2  19
ATOM     19  C   UNL     1       4.891  -6.878  -9.146  0.00  0.00    +0.151 C 
BRANCH  19  20
ATOM     20  C   UNL     1       4.294  -8.135  -9.723  0.00  0.00    +0.053 A 
ATOM     21  C   UNL     1       4.676  -9.402  -9.451  0.00  0.00    +0.035 A 
ATOM     22  N   UNL     1       3.909 -10.239 -10.156  0.00  0.00    -0.343 N 
ATOM     23  C   UNL     1       3.044  -9.536 -10.873  0.00  0.00    +0.116 A 
ATOM     24  N   UNL     1       3.259  -8.207 -10.616  0.00  0.00    -0.304 N 
ATOM     25  C   UNL     1       2.496  -7.253 -11.224  0.00  0.00    +0.093 A 
ATOM     26  C   UNL     1       1.516  -7.602 -12.084  0.00  0.00    +0.018 A 
ATOM     27  C   UNL     1       1.269  -8.956 -12.365  0.00  0.00    +0.005 A 
ATOM     28  C   UNL     1       2.028  -9.916 -11.773  0.00  0.00    +0.045 A 
ATOM     29  C   UNL     1       5.782  -9.804  -8.511  0.00  0.00    +0.065 C 
ATOM     30  H   UNL     1       3.976 -11.206 -10.144  0.00  0.00    +0.167 HD
ENDBRANCH  19  20
ENDBRANCH   2  19
TORSDOF 7
