REMARK  Name = ZINC49121771
REMARK  4 active torsions:
REMARK  status: ('A' for Active; 'I' for Inactive)
REMARK    1  A    between atoms: C_1  and  C_2
REMARK    2  A    between atoms: C_2  and  C_3
REMARK    3  A    between atoms: C_6  and  N_9
REMARK    4  A    between atoms: C_10  and  C_12
REMARK                            x       y       z     vdW  Elec       q    Type
REMARK                         _______ _______ _______ _____ _____    ______ ____
ROOT
ATOM      1  N   UNL     1       1.444  -2.586  -4.905  0.00  0.00    -0.314 N 
ATOM      2  C   UNL     1       1.246  -3.845  -5.343  0.00  0.00    +0.199 C 
ATOM      3  O   UNL     1       0.500  -4.587  -4.740  0.00  0.00    -0.278 OA
ATOM      4  H   UNL     1       2.040  -1.993  -5.388  0.00  0.00    +0.149 HD
ENDROOT
BRANCH   2   5
ATOM      5  C   UNL     1       1.951  -4.331  -6.583  0.00  0.00    +0.017 C 
ATOM      6  C   UNL     1       1.519  -3.487  -7.798  0.00  0.00    -0.005 C 
ATOM      7  C   UNL     1       0.857  -4.501  -8.774  0.00  0.00    -0.026 C 
ATOM      8  C   UNL     1      -0.641  -4.494  -8.461  0.00  0.00    +0.002 C 
ATOM      9  C   UNL     1      -1.328  -5.713  -9.072  0.00  0.00    +0.000 C 
ATOM     10  C   UNL     1      -0.730  -6.977  -8.442  0.00  0.00    -0.002 C 
ATOM     11  C   UNL     1       0.750  -7.046  -8.816  0.00  0.00    -0.015 C 
ATOM     12  C   UNL     1       1.511  -5.825  -8.340  0.00  0.00    -0.068 C 
ATOM     13  N   UNL     1       1.567  -5.735  -6.865  0.00  0.00    +0.389 N 
ATOM     14  H   UNL     1       2.261  -6.369  -6.499  0.00  0.00    -0.084 HD
ATOM     15  H   UNL     1       0.662  -5.938  -6.468  0.00  0.00    -0.084 HD
ENDBRANCH   2   5
BRANCH   1  19
ATOM     16  C   UNL     1       0.718  -0.497  -1.257  0.00  0.00    -0.011 C 
ATOM     17  C   UNL     1      -0.089  -0.097  -2.493  0.00  0.00    +0.005 C 
ATOM     18  C   UNL     1       0.627  -0.590  -3.752  0.00  0.00    +0.022 C 
ATOM     19  C   UNL     1       0.758  -2.114  -3.700  0.00  0.00    +0.073 C 
ATOM     20  C   UNL     1       1.565  -2.514  -2.464  0.00  0.00    +0.022 C 
ATOM     21  C   UNL     1       0.849  -2.021  -1.205  0.00  0.00    +0.005 C 
BRANCH  16  23
ATOM     22  C   UNL     1      -0.019   1.526   0.010  0.00  0.00    +0.004 C 
ATOM     23  C   UNL     1       0.002  -0.004   0.002  0.00  0.00    -0.000 C 
ENDBRANCH  16  23
ENDBRANCH   1  19
TORSDOF 3
