REMARK  Name = ZINC20120700
REMARK  6 active torsions:
REMARK  status: ('A' for Active; 'I' for Inactive)
REMARK    1  A    between atoms: C_1  and  C_2
REMARK    2  A    between atoms: C_2  and  C_3
REMARK    3  A    between atoms: C_2  and  C_4
REMARK    4  A    between atoms: C_2  and  N_16
REMARK    5  A    between atoms: C_4  and  N_5
REMARK    6  A    between atoms: N_5  and  C_6
REMARK                            x       y       z     vdW  Elec       q    Type
REMARK                         _______ _______ _______ _____ _____    ______ ____
ROOT
ATOM      1  N   UNL     1       0.436   4.103  -1.152  0.00  0.00    +0.382 N 
ATOM      2  H   UNL     1       1.094   3.721  -0.358  0.00  0.00    -0.085 HD
ATOM      3  H   UNL     1       0.852   3.835  -2.134  0.00  0.00    -0.085 HD
ENDROOT
BRANCH   1   4
ATOM      4  C   UNL     1       0.376   5.567  -1.050  0.00  0.00    -0.071 C 
ATOM      5  C   UNL     1       0.037   6.160  -2.420  0.00  0.00    -0.011 C 
ATOM      6  C   UNL     1      -0.029   7.685  -2.313  0.00  0.00    +0.063 C 
ATOM      7  C   UNL     1       1.323   8.221  -1.840  0.00  0.00    +0.170 C 
ATOM      8  C   UNL     1       1.668   7.627  -0.474  0.00  0.00    +0.063 C 
ATOM      9  C   UNL     1       1.731   6.102  -0.584  0.00  0.00    -0.011 C 
ATOM     10  O   UNL     1       2.339   7.858  -2.790  0.00  0.00    -0.346 OA
ATOM     11  C   UNL     1       2.466   9.011  -3.655  0.00  0.00    +0.191 C 
ATOM     12  C   UNL     1       2.251  10.178  -2.659  0.00  0.00    +0.191 C 
ATOM     13  O   UNL     1       1.269   9.650  -1.745  0.00  0.00    -0.346 OA
ENDBRANCH   1   4
BRANCH   1  14
ATOM     14  C   UNL     1      -0.901   3.510  -1.008  0.00  0.00    -0.060 C 
BRANCH  14  16
ATOM     15  C   UNL     1      -0.347   1.609  -2.532  0.00  0.00    +0.025 C 
ATOM     16  C   UNL     1      -0.798   1.988  -1.120  0.00  0.00    +0.001 C 
ATOM     17  C   UNL     1      -2.165   1.363  -0.836  0.00  0.00    +0.025 C 
BRANCH  16  18
ATOM     18  N   UNL     1       0.180   1.490  -0.143  0.00  0.00    -0.295 NA
ATOM     19  C   UNL     1       0.325   0.031  -0.240  0.00  0.00    +0.113 C 
ATOM     20  C   UNL     1       1.394  -0.437   0.751  0.00  0.00    +0.175 C 
ATOM     21  O   UNL     1       1.034  -0.015   2.069  0.00  0.00    -0.377 OA
ATOM     22  C   UNL     1       0.884   1.402   2.199  0.00  0.00    +0.175 C 
ATOM     23  C   UNL     1      -0.190   1.888   1.223  0.00  0.00    +0.113 C 
ENDBRANCH  16  18
ENDBRANCH  14  16
ENDBRANCH   1  14
TORSDOF 4
