REMARK  Name = ZINC05214861
REMARK  3 active torsions:
REMARK  status: ('A' for Active; 'I' for Inactive)
REMARK    1  A    between atoms: C_6  and  C_7
REMARK    2  A    between atoms: N_11  and  C_15
REMARK    3  A    between atoms: C_15  and  C_16
REMARK                            x       y       z     vdW  Elec       q    Type
REMARK                         _______ _______ _______ _____ _____    ______ ____
ROOT
ATOM      1  C   UNL     1       1.584   3.323   0.005  0.00  0.00    +0.028 C 
ATOM      2  C   UNL     1       1.257   2.048   0.332  0.00  0.00    +0.080 C 
ATOM      3  C   UNL     1      -0.075   1.420   0.457  0.00  0.00    +0.261 C 
ATOM      4  O   UNL     1      -1.099   2.046   0.253  0.00  0.00    -0.269 OA
ATOM      5  N   UNL     1      -0.098   0.142   0.795  0.00  0.00    -0.219 N 
ATOM      6  C   UNL     1       1.039  -0.549   1.014  0.00  0.00    +0.286 C 
ATOM      7  O   UNL     1       1.164  -1.718   1.328  0.00  0.00    -0.262 OA
ATOM      8  S   UNL     1       2.317   0.666   0.732  0.00  0.00    -0.026 S 
ENDROOT
BRANCH   1  14
ATOM      9  C   UNL     1       3.941   2.951   0.707  0.00  0.00    +0.009 A 
ATOM     10  C   UNL     1       5.249   3.377   0.792  0.00  0.00    +0.020 A 
ATOM     11  C   UNL     1       5.612   4.618   0.294  0.00  0.00    +0.041 A 
ATOM     12  C   UNL     1       4.665   5.438  -0.298  0.00  0.00    +0.020 A 
ATOM     13  C   UNL     1       3.354   5.024  -0.396  0.00  0.00    +0.009 A 
ATOM     14  C   UNL     1       2.980   3.772   0.105  0.00  0.00    -0.024 A 
ATOM     15 CL   UNL     1       7.261   5.148   0.412  0.00  0.00    -0.084 Cl
ENDBRANCH   1  14
BRANCH   5  16
ATOM     16  C   UNL     1      -1.387  -0.539   0.934  0.00  0.00    +0.213 C 
BRANCH  16  17
ATOM     17  C   UNL     1      -1.786  -1.137  -0.391  0.00  0.00    +0.228 C 
ATOM     18  O   UNL     1      -1.063  -1.006  -1.356  0.00  0.00    -0.274 OA
ATOM     19  N   UNL     1      -2.944  -1.816  -0.503  0.00  0.00    -0.328 N 
ATOM     20  H   UNL     1      -3.522  -1.920   0.269  0.00  0.00    +0.145 HD
ATOM     21  H   UNL     1      -3.201  -2.200  -1.356  0.00  0.00    +0.145 HD
ENDBRANCH  16  17
ENDBRANCH   5  16
TORSDOF 3
