REMARK  Name = ZINC67202562
REMARK  8 active torsions:
REMARK  status: ('A' for Active; 'I' for Inactive)
REMARK    1  A    between atoms: C_1  and  C_2
REMARK    2  A    between atoms: C_3  and  C_14
REMARK    3  A    between atoms: C_4  and  C_13
REMARK    4  A    between atoms: C_14  and  C_15
REMARK    5  A    between atoms: N_17  and  C_18
REMARK    6  A    between atoms: C_18  and  C_19
REMARK    7  A    between atoms: N_24  and  C_25
REMARK    8  A    between atoms: C_25  and  C_26
REMARK                            x       y       z     vdW  Elec       q    Type
REMARK                         _______ _______ _______ _____ _____    ______ ____
ROOT
ATOM      1  C   UNL     1      -2.891   0.356   1.435  0.00  0.00    +0.217 C 
ATOM      2  O   UNL     1      -2.158   0.039   2.347  0.00  0.00    -0.275 OA
ATOM      3  N   UNL     1      -4.038   1.016   1.690  0.00  0.00    -0.317 N 
ATOM      4  H   UNL     1      -4.624   1.270   0.960  0.00  0.00    +0.149 HD
ENDROOT
BRANCH   1   5
ATOM      5  C   UNL     1      -2.519   0.013   0.015  0.00  0.00    +0.134 C 
BRANCH   5   8
ATOM      6  C   UNL     1      -0.018   1.503   0.010  0.00  0.00    +0.066 C 
ATOM      7  C   UNL     1       0.002  -0.004   0.002  0.00  0.00    +0.046 A 
ATOM      8  C   UNL     1      -1.201  -0.718   0.004  0.00  0.00    +0.003 A 
ATOM      9  C   UNL     1      -1.171  -2.077  -0.004  0.00  0.00    +0.045 A 
ATOM     10  N   UNL     1       0.030  -2.713  -0.014  0.00  0.00    -0.238 N 
ATOM     11  C   UNL     1       1.191  -1.982  -0.015  0.00  0.00    +0.158 A 
ATOM     12  N   UNL     1       1.151  -0.644  -0.012  0.00  0.00    -0.233 NA
ATOM     13  C   UNL     1       2.253  -2.884  -0.026  0.00  0.00    +0.119 A 
ATOM     14  C   UNL     1       1.717  -4.170  -0.030  0.00  0.00    +0.267 A 
ATOM     15  O   UNL     1       2.356  -5.210  -0.040  0.00  0.00    -0.266 OA
ATOM     16  N   UNL     1       0.374  -4.071  -0.023  0.00  0.00    -0.258 N 
ATOM     17  H   UNL     1      -0.249  -4.814  -0.024  0.00  0.00    +0.191 HD
ATOM     18  C   UNL     1      -2.453  -2.868  -0.002  0.00  0.00    +0.066 C 
ENDBRANCH   5   8
ENDBRANCH   1   5
BRANCH   3  19
ATOM     19  C   UNL     1      -4.400   1.350   3.070  0.00  0.00    +0.089 C 
BRANCH  19  20
ATOM     20  C   UNL     1      -5.737   2.092   3.081  0.00  0.00    -0.051 C 
ATOM     21  C   UNL     1      -6.210   2.300   4.535  0.00  0.00    -0.016 C 
ATOM     22  C   UNL     1      -7.743   2.082   4.439  0.00  0.00    -0.020 C 
ATOM     23  C   UNL     1      -7.834   0.966   3.369  0.00  0.00    -0.078 C 
ATOM     24  N   UNL     1      -6.764   1.286   2.395  0.00  0.00    +0.383 N 
ATOM     25  H   UNL     1      -6.351   0.433   2.050  0.00  0.00    -0.081 HD
BRANCH  24  26
ATOM     26  C   UNL     1      -7.325   2.051   1.273  0.00  0.00    -0.075 C 
BRANCH  26  27
ATOM     27  C   UNL     1      -8.298   1.168   0.490  0.00  0.00    -0.028 C 
ATOM     28  C   UNL     1      -7.532   0.010  -0.153  0.00  0.00    +0.002 C 
ATOM     29  C   UNL     1      -8.505  -0.873  -0.936  0.00  0.00    +0.000 C 
ATOM     30  C   UNL     1      -9.182  -0.042  -2.028  0.00  0.00    +0.000 C 
ATOM     31  C   UNL     1      -9.949   1.116  -1.385  0.00  0.00    +0.000 C 
ATOM     32  C   UNL     1      -8.976   1.999  -0.601  0.00  0.00    +0.002 C 
ENDBRANCH  26  27
ENDBRANCH  24  26
ENDBRANCH  19  20
ENDBRANCH   3  19
TORSDOF 6
