REMARK  Name = ZINC62704463
REMARK  8 active torsions:
REMARK  status: ('A' for Active; 'I' for Inactive)
REMARK    1  A    between atoms: C_1  and  C_2
REMARK    2  A    between atoms: C_2  and  C_4
REMARK    3  A    between atoms: C_2  and  N_18
REMARK    4  A    between atoms: C_4  and  C_5
REMARK    5  A    between atoms: C_8  and  O_12
REMARK    6  A    between atoms: O_12  and  C_13
REMARK    7  A    between atoms: C_13  and  C_14
REMARK    8  A    between atoms: C_14  and  C_15
REMARK                            x       y       z     vdW  Elec       q    Type
REMARK                         _______ _______ _______ _____ _____    ______ ____
ROOT
ATOM      1  C   UNL     1       0.870  -2.011   1.172  0.00  0.00    -0.048 A 
ATOM      2  C   UNL     1      -0.118  -2.814   1.711  0.00  0.00    +0.007 A 
ATOM      3  C   UNL     1      -0.004  -4.189   1.649  0.00  0.00    +0.047 A 
ATOM      4  C   UNL     1       1.104  -4.765   1.045  0.00  0.00    +0.134 A 
ATOM      5  C   UNL     1       2.095  -3.958   0.504  0.00  0.00    +0.060 A 
ATOM      6  C   UNL     1       1.973  -2.582   0.564  0.00  0.00    +0.022 A 
ATOM      7 BR   UNL     1       3.607  -4.738  -0.320  0.00  0.00    -0.047 Br
ENDROOT
BRANCH   1   8
ATOM      8  C   UNL     1       0.742  -0.511   1.242  0.00  0.00    +0.019 C 
BRANCH   8  10
ATOM      9  C   UNL     1      -0.019   1.526   0.010  0.00  0.00    -0.014 C 
ATOM     10  C   UNL     1       0.002  -0.004   0.002  0.00  0.00    -0.074 C 
BRANCH  10  11
ATOM     11  N   UNL     1      -1.376  -0.512   0.012  0.00  0.00    +0.380 N 
ATOM     12  H   UNL     1      -1.864  -0.178  -0.805  0.00  0.00    -0.090 HD
ATOM     13  H   UNL     1      -1.362  -1.521   0.007  0.00  0.00    -0.090 HD
ATOM     14  H   UNL     1      -1.848  -0.187   0.843  0.00  0.00    -0.090 HD
ENDBRANCH  10  11
ENDBRANCH   8  10
ENDBRANCH   1   8
BRANCH   4  15
ATOM     15  O   UNL     1       1.219  -6.118   0.983  0.00  0.00    -0.490 OA
BRANCH  15  16
ATOM     16  C   UNL     1       0.162  -6.886   1.561  0.00  0.00    +0.238 C 
BRANCH  16  17
ATOM     17  C   UNL     1       0.466  -8.377   1.397  0.00  0.00    +0.136 C 
BRANCH  17  18
ATOM     18  C   UNL     1      -0.649  -9.187   2.006  0.00  0.00    +0.214 C 
ATOM     19  O   UNL     1      -1.594  -8.627   2.521  0.00  0.00    -0.276 OA
ATOM     20  N   UNL     1      -0.597 -10.533   1.978  0.00  0.00    -0.329 N 
ATOM     21  H   UNL     1       0.159 -10.981   1.567  0.00  0.00    +0.145 HD
ATOM     22  H   UNL     1      -1.315 -11.055   2.371  0.00  0.00    +0.145 HD
ENDBRANCH  17  18
ENDBRANCH  16  17
ENDBRANCH  15  16
ENDBRANCH   4  15
TORSDOF 7
