REMARK  Name = ZINC43883231
REMARK  5 active torsions:
REMARK  status: ('A' for Active; 'I' for Inactive)
REMARK    1  A    between atoms: C_1  and  C_2
REMARK    2  A    between atoms: C_2  and  C_3
REMARK    3  A    between atoms: N_9  and  C_10
REMARK    4  A    between atoms: C_21  and  N_23
REMARK    5  A    between atoms: N_23  and  C_24
REMARK                            x       y       z     vdW  Elec       q    Type
REMARK                         _______ _______ _______ _____ _____    ______ ____
ROOT
ATOM      1  C   UNL     1      -0.197   2.141  -2.574  0.00  0.00    -0.078 C 
ATOM      2  C   UNL     1      -0.917   3.049  -1.596  0.00  0.00    -0.016 C 
ATOM      3  C   UNL     1      -1.010   4.497  -2.037  0.00  0.00    +0.003 C 
ATOM      4  C   UNL     1      -1.932   4.640  -3.251  0.00  0.00    +0.035 C 
ATOM      5  C   UNL     1      -1.120   4.383  -4.503  0.00  0.00    -0.046 A 
ATOM      6  C   UNL     1      -0.825   5.435  -5.352  0.00  0.00    +0.004 A 
ATOM      7  C   UNL     1      -0.083   5.202  -6.496  0.00  0.00    +0.000 A 
ATOM      8  C   UNL     1       0.360   3.925  -6.786  0.00  0.00    +0.000 A 
ATOM      9  C   UNL     1       0.061   2.878  -5.934  0.00  0.00    +0.002 A 
ATOM     10  C   UNL     1      -0.682   3.117  -4.791  0.00  0.00    -0.060 A 
ATOM     11  C   UNL     1      -1.010   1.968  -3.859  0.00  0.00    -0.055 C 
ENDROOT
BRANCH   1  17
ATOM     12  C   UNL     1       0.867   0.006  -2.812  0.00  0.00    -0.069 C 
ATOM     13  C   UNL     1       1.149  -1.334  -2.130  0.00  0.00    -0.015 C 
ATOM     14  C   UNL     1      -0.175  -2.064  -1.885  0.00  0.00    -0.003 C 
ATOM     15  C   UNL     1      -1.093  -1.168  -1.048  0.00  0.00    -0.019 C 
ATOM     16  C   UNL     1      -1.292   0.166  -1.771  0.00  0.00    -0.078 C 
ATOM     17  N   UNL     1       0.007   0.826  -1.951  0.00  0.00    +0.383 N 
ATOM     18  H   UNL     1       0.450   0.947  -1.052  0.00  0.00    -0.081 HD
BRANCH  12  20
ATOM     19  C   UNL     1       3.041  -0.064  -4.043  0.00  0.00    +0.002 C 
ATOM     20  C   UNL     1       2.187   0.739  -3.059  0.00  0.00    -0.019 C 
ENDBRANCH  12  20
ENDBRANCH   1  17
BRANCH  11  21
ATOM     21  N   UNL     1      -2.444   1.982  -3.542  0.00  0.00    +0.381 N 
ATOM     22  C   UNL     1      -3.205   2.380  -4.734  0.00  0.00    -0.100 C 
ATOM     23  H   UNL     1      -2.733   1.061  -3.250  0.00  0.00    -0.086 HD
ATOM     24  H   UNL     1      -2.617   2.641  -2.797  0.00  0.00    -0.086 HD
ENDBRANCH  11  21
TORSDOF 3
