REMARK  Name = ZINC28802197
REMARK  11 active torsions:
REMARK  status: ('A' for Active; 'I' for Inactive)
REMARK    1  A    between atoms: C_1  and  C_2
REMARK    2  A    between atoms: C_3  and  C_25
REMARK    3  A    between atoms: C_4  and  C_24
REMARK    4  A    between atoms: C_7  and  C_8
REMARK    5  A    between atoms: C_8  and  C_10
REMARK    6  A    between atoms: C_10  and  O_11
REMARK    7  A    between atoms: O_11  and  C_12
REMARK    8  A    between atoms: C_12  and  C_14
REMARK    9  A    between atoms: C_16  and  N_21
REMARK   10  A    between atoms: C_19  and  N_20
REMARK   11  A    between atoms: C_25  and  C_27
REMARK                            x       y       z     vdW  Elec       q    Type
REMARK                         _______ _______ _______ _____ _____    ______ ____
ROOT
ATOM      1  O   UNL     1       0.117  -0.797   4.917  0.00  0.00    -0.453 OA
ENDROOT
BRANCH   1   2
ATOM      2  C   UNL     1       0.108  -1.596   6.002  0.00  0.00    +0.341 C 
ATOM      3  O   UNL     1       0.107  -2.804   5.867  0.00  0.00    -0.245 OA
BRANCH   2   4
ATOM      4  C   UNL     1       0.098  -1.006   7.351  0.00  0.00    +0.082 A 
ATOM      5  C   UNL     1      -0.025   0.377   7.513  0.00  0.00    +0.049 A 
ATOM      6  C   UNL     1      -0.033   0.923   8.778  0.00  0.00    +0.127 A 
ATOM      7  C   UNL     1       0.081   0.108   9.893  0.00  0.00    +0.034 A 
ATOM      8  C   UNL     1       0.203  -1.259   9.751  0.00  0.00    +0.026 A 
ATOM      9  C   UNL     1       0.207  -1.829   8.484  0.00  0.00    +0.039 A 
BRANCH   9  10
ATOM     10  N   UNL     1       0.324  -3.205   8.338  0.00  0.00    -0.357 N 
ATOM     11  H   UNL     1       0.249  -3.607   7.458  0.00  0.00    +0.142 HD
ATOM     12  H   UNL     1       0.481  -3.763   9.115  0.00  0.00    +0.142 HD
ENDBRANCH   9  10
BRANCH   6  13
ATOM     13  N   UNL     1      -0.163   2.388   8.946  0.00  0.00    +0.056 N 
ATOM     14  O   UNL     1      -0.262   3.102   7.976  0.00  0.00    -0.126 OA
ATOM     15  O   UNL     1      -0.171   2.870  10.055  0.00  0.00    -0.126 OA
ENDBRANCH   6  13
ENDBRANCH   2   4
ENDBRANCH   1   2
BRANCH   1  16
ATOM     16  C   UNL     1       0.126  -1.438   3.639  0.00  0.00    +0.313 C 
BRANCH  16  17
ATOM     17  C   UNL     1       0.136  -0.393   2.554  0.00  0.00    +0.217 C 
ATOM     18  O   UNL     1       0.135   0.786   2.845  0.00  0.00    -0.287 OA
BRANCH  17  25
ATOM     19  C   UNL     1       0.156   1.568   0.143  0.00  0.00    +0.047 C 
ATOM     20  C   UNL     1       0.155   0.061   0.107  0.00  0.00    -0.012 A 
ATOM     21  C   UNL     1       0.170  -0.754  -1.047  0.00  0.00    +0.041 A 
ATOM     22  C   UNL     1       0.162  -2.073  -0.615  0.00  0.00    +0.024 A 
ATOM     23  N   UNL     1       0.144  -2.084   0.725  0.00  0.00    -0.355 N 
ATOM     24  H   UNL     1       0.136  -2.881   1.279  0.00  0.00    +0.166 HD
ATOM     25  C   UNL     1       0.145  -0.786   1.193  0.00  0.00    +0.090 A 
ATOM     26  C   UNL     1       0.173  -3.289  -1.504  0.00  0.00    +0.064 C 
BRANCH  21  27
ATOM     27  C   UNL     1       0.188  -0.294  -2.439  0.00  0.00    +0.162 C 
ATOM     28  O   UNL     1      -0.851  -0.189  -3.057  0.00  0.00    -0.292 OA
ATOM     29  C   UNL     1       1.497   0.049  -3.102  0.00  0.00    +0.091 C 
ENDBRANCH  21  27
ENDBRANCH  17  25
ENDBRANCH  16  17
ENDBRANCH   1  16
TORSDOF 8
