REMARK  Name = ZINC41035619
REMARK  5 active torsions:
REMARK  status: ('A' for Active; 'I' for Inactive)
REMARK    1  A    between atoms: C_1  and  C_2
REMARK    2  A    between atoms: C_7  and  C_8
REMARK    3  A    between atoms: C_10  and  C_13
REMARK    4  A    between atoms: C_13  and  N_21
REMARK    5  A    between atoms: C_17  and  C_20
REMARK                            x       y       z     vdW  Elec       q    Type
REMARK                         _______ _______ _______ _____ _____    ______ ____
ROOT
ATOM      1  C   UNL     1      -0.016   0.917   2.767  0.00  0.00    +0.202 A 
ATOM      2  N   UNL     1      -0.440   0.692   4.023  0.00  0.00    -0.193 NA
ATOM      3  C   UNL     1       0.581   0.556   4.821  0.00  0.00    +0.216 A 
ATOM      4  O   UNL     1       1.703   0.691   4.102  0.00  0.00    -0.339 OA
ATOM      5  N   UNL     1       1.294   0.921   2.761  0.00  0.00    -0.056 NA
ENDROOT
BRANCH   1  12
ATOM      6  C   UNL     1      -2.249  -0.863   2.305  0.00  0.00    +0.044 C 
ATOM      7  C   UNL     1      -1.965   0.270   1.353  0.00  0.00    -0.040 A 
ATOM      8  C   UNL     1      -2.776   0.469   0.253  0.00  0.00    +0.004 A 
ATOM      9  C   UNL     1      -2.516   1.508  -0.622  0.00  0.00    +0.000 A 
ATOM     10  C   UNL     1      -1.444   2.353  -0.401  0.00  0.00    +0.001 A 
ATOM     11  C   UNL     1      -0.626   2.164   0.695  0.00  0.00    +0.012 A 
ATOM     12  C   UNL     1      -0.887   1.122   1.583  0.00  0.00    +0.025 A 
ENDBRANCH   1  12
BRANCH   3  13
ATOM     13  C   UNL     1       0.512   0.293   6.303  0.00  0.00    +0.010 C 
ATOM     14  C   UNL     1       1.925   0.303   6.889  0.00  0.00    -0.004 C 
ATOM     15  C   UNL     1       2.570   1.669   6.644  0.00  0.00    -0.001 C 
ATOM     16  C   UNL     1       1.731   2.757   7.317  0.00  0.00    +0.003 C 
ATOM     17  C   UNL     1       0.317   2.747   6.731  0.00  0.00    -0.015 C 
ATOM     18  C   UNL     1      -0.327   1.381   6.976  0.00  0.00    -0.001 C 
ATOM     19  C   UNL     1       0.388   3.014   5.226  0.00  0.00    +0.007 C 
BRANCH  13  20
ATOM     20  N   UNL     1      -0.107  -1.018   6.539  0.00  0.00    +0.388 N 
ATOM     21  H   UNL     1       0.447  -1.736   6.095  0.00  0.00    -0.089 HD
ATOM     22  H   UNL     1      -0.153  -1.195   7.531  0.00  0.00    -0.089 HD
ATOM     23  H   UNL     1      -1.039  -1.025   6.152  0.00  0.00    -0.089 HD
ENDBRANCH  13  20
ENDBRANCH   3  13
TORSDOF 3
