REMARK  Name = ZINC23466009
REMARK  10 active torsions:
REMARK  status: ('A' for Active; 'I' for Inactive)
REMARK    1  A    between atoms: C_1  and  C_2
REMARK    2  A    between atoms: C_2  and  C_3
REMARK    3  A    between atoms: C_2  and  C_4
REMARK    4  A    between atoms: C_2  and  C_28
REMARK    5  A    between atoms: C_4  and  N_5
REMARK    6  A    between atoms: C_6  and  C_8
REMARK    7  A    between atoms: C_8  and  C_9
REMARK    8  A    between atoms: N_16  and  C_17
REMARK    9  A    between atoms: C_17  and  C_18
REMARK   10  A    between atoms: C_28  and  O_29
REMARK                            x       y       z     vdW  Elec       q    Type
REMARK                         _______ _______ _______ _____ _____    ______ ____
ROOT
ATOM      1  C   UNL     1       1.658   4.952   1.997  0.00  0.00    +0.028 C 
ATOM      2  C   UNL     1       1.930   5.157   3.460  0.00  0.00    +0.200 C 
ATOM      3  O   UNL     1       1.302   6.007   4.055  0.00  0.00    -0.278 OA
ATOM      4  N   UNL     1       2.837   4.441   4.135  0.00  0.00    -0.318 N 
ATOM      5  C   UNL     1       3.670   3.421   3.505  0.00  0.00    +0.085 C 
ATOM      6  C   UNL     1       3.060   2.998   2.168  0.00  0.00    -0.058 C 
ATOM      7  N   UNL     1       2.763   4.205   1.381  0.00  0.00    +0.391 N 
ATOM      8  H   UNL     1       2.940   4.650   5.210  0.00  0.00    +0.149 HD
ATOM      9  H   UNL     1       3.656   4.848   1.373  0.00  0.00    -0.080 HD
ENDROOT
BRANCH   1  10
ATOM     10  C   UNL     1       1.520   6.313   1.310  0.00  0.00    +0.089 C 
BRANCH  10  12
ATOM     11  N   UNL     1       2.975   8.241   0.776  0.00  0.00    -0.315 N 
ATOM     12  C   UNL     1       2.829   7.055   1.400  0.00  0.00    +0.212 C 
ATOM     13  O   UNL     1       3.751   6.585   2.032  0.00  0.00    -0.276 OA
ATOM     14  H   UNL     1       2.139   8.667   0.202  0.00  0.00    +0.149 HD
BRANCH  11  15
ATOM     15  C   UNL     1       4.247   8.963   0.863  0.00  0.00    +0.112 C 
BRANCH  15  17
ATOM     16  C   UNL     1       3.836   9.958  -1.392  0.00  0.00    +0.015 C 
ATOM     17  C   UNL     1       4.146  10.270   0.073  0.00  0.00    +0.004 C 
ATOM     18  C   UNL     1       3.029  11.135   0.659  0.00  0.00    +0.015 C 
BRANCH  17  19
ATOM     19  C   UNL     1       5.475  11.023   0.164  0.00  0.00    +0.163 C 
BRANCH  19  20
ATOM     20  O   UNL     1       5.381  12.244  -0.574  0.00  0.00    -0.394 OA
ATOM     21  H   UNL     1       6.245  12.924  -0.624  0.00  0.00    +0.209 HD
ENDBRANCH  19  20
ENDBRANCH  17  19
ENDBRANCH  15  17
ENDBRANCH  11  15
ENDBRANCH  10  12
ENDBRANCH   1  10
BRANCH   7  22
ATOM     22  C   UNL     1       2.453   3.862  -0.014  0.00  0.00    -0.041 C 
BRANCH  22  23
ATOM     23  C   UNL     1       3.612   3.110  -0.616  0.00  0.00    -0.056 A 
ATOM     24  C   UNL     1       4.585   3.780  -1.292  0.00  0.00    +0.002 A 
ATOM     25  C   UNL     1       5.665   3.103  -1.855  0.00  0.00    +0.001 A 
ATOM     26  C   UNL     1       5.775   1.750  -1.749  0.00  0.00    +0.008 A 
ATOM     27  C   UNL     1       4.793   1.025  -1.054  0.00  0.00    -0.018 A 
ATOM     28  C   UNL     1       3.695   1.714  -0.481  0.00  0.00    -0.017 A 
ATOM     29  C   UNL     1       2.709   0.988   0.209  0.00  0.00    +0.009 A 
ATOM     30  C   UNL     1       2.822  -0.364   0.319  0.00  0.00    +0.001 A 
ATOM     31  C   UNL     1       3.902  -1.042  -0.244  0.00  0.00    +0.001 A 
ATOM     32  C   UNL     1       4.875  -0.372  -0.920  0.00  0.00    +0.008 A 
ENDBRANCH  22  23
ENDBRANCH   7  22
TORSDOF 8
