REMARK  Name = ZINC52541250
REMARK  7 active torsions:
REMARK  status: ('A' for Active; 'I' for Inactive)
REMARK    1  A    between atoms: C_1  and  N_2
REMARK    2  A    between atoms: N_2  and  C_3
REMARK    3  A    between atoms: N_2  and  C_11
REMARK    4  A    between atoms: C_3  and  C_4
REMARK    5  A    between atoms: C_11  and  C_12
REMARK    6  A    between atoms: C_16  and  C_19
REMARK    7  A    between atoms: C_19  and  N_20
REMARK                            x       y       z     vdW  Elec       q    Type
REMARK                         _______ _______ _______ _____ _____    ______ ____
ROOT
ATOM      1  C   UNL     1      -0.142   1.551   0.302  0.00  0.00    -0.096 C 
ATOM      2  N   UNL     1      -0.030   0.103   0.080  0.00  0.00    +0.382 N 
ATOM      3  H   UNL     1       0.385  -0.068  -0.824  0.00  0.00    -0.082 HD
ENDROOT
BRANCH   2   4
ATOM      4  C   UNL     1       0.814  -0.489   1.126  0.00  0.00    -0.042 C 
BRANCH   4   5
ATOM      5  C   UNL     1       2.221   0.033   0.992  0.00  0.00    -0.050 A 
ATOM      6  C   UNL     1       2.690   0.991   1.872  0.00  0.00    +0.003 A 
ATOM      7  C   UNL     1       3.981   1.470   1.749  0.00  0.00    +0.000 A 
ATOM      8  C   UNL     1       4.804   0.991   0.746  0.00  0.00    +0.001 A 
ATOM      9  C   UNL     1       4.335   0.034  -0.134  0.00  0.00    +0.015 A 
ATOM     10  C   UNL     1       3.045  -0.450  -0.008  0.00  0.00    +0.019 A 
ATOM     11 BR   UNL     1       2.407  -1.765  -1.208  0.00  0.00    -0.050 Br
ENDBRANCH   4   5
ENDBRANCH   2   4
BRANCH   2  12
ATOM     12  C   UNL     1      -1.367  -0.505   0.127  0.00  0.00    -0.047 C 
BRANCH  12  13
ATOM     13  C   UNL     1      -2.207   0.020  -1.040  0.00  0.00    +0.102 C 
ATOM     14  C   UNL     1      -3.647  -0.550  -0.975  0.00  0.00    +0.032 C 
ATOM     15  C   UNL     1      -4.096  -0.464  -2.454  0.00  0.00    +0.032 C 
ATOM     16  C   UNL     1      -2.776  -0.391  -3.246  0.00  0.00    +0.101 C 
ATOM     17  O   UNL     1      -1.700  -0.479  -2.296  0.00  0.00    -0.377 OA
BRANCH  16  18
ATOM     18  C   UNL     1      -2.699  -1.555  -4.236  0.00  0.00    -0.054 C 
BRANCH  18  19
ATOM     19  N   UNL     1      -1.438  -1.477  -4.986  0.00  0.00    +0.380 N 
ATOM     20  H   UNL     1      -1.400  -0.604  -5.490  0.00  0.00    -0.090 HD
ATOM     21  H   UNL     1      -0.661  -1.529  -4.344  0.00  0.00    -0.090 HD
ATOM     22  H   UNL     1      -1.387  -2.244  -5.639  0.00  0.00    -0.090 HD
ENDBRANCH  18  19
ENDBRANCH  16  18
ENDBRANCH  12  13
ENDBRANCH   2  12
TORSDOF 6
