REMARK  Name = ZINC62797138
REMARK  3 active torsions:
REMARK  status: ('A' for Active; 'I' for Inactive)
REMARK    1  A    between atoms: C_8  and  C_10
REMARK    2  A    between atoms: C_12  and  C_15
REMARK    3  A    between atoms: C_15  and  N_20
REMARK                            x       y       z     vdW  Elec       q    Type
REMARK                         _______ _______ _______ _____ _____    ______ ____
ROOT
ATOM      1  C   UNL     1       3.796  -3.333  -0.053  0.00  0.00    +0.237 A 
ATOM      2  N   UNL     1       5.142  -3.366  -0.061  0.00  0.00    -0.190 NA
ATOM      3  C   UNL     1       5.557  -4.601  -0.074  0.00  0.00    +0.216 A 
ATOM      4  O   UNL     1       4.489  -5.409  -0.074  0.00  0.00    -0.339 OA
ATOM      5  N   UNL     1       3.347  -4.566  -0.055  0.00  0.00    -0.053 NA
ENDROOT
BRANCH   1  13
ATOM      6  C   UNL     1      -0.017   1.363   0.009  0.00  0.00    +0.001 A 
ATOM      7  C   UNL     1       1.171   2.082   0.002  0.00  0.00    +0.004 A 
ATOM      8  C   UNL     1       2.387   1.433  -0.013  0.00  0.00    +0.047 A 
ATOM      9  C   UNL     1       2.430   0.044  -0.021  0.00  0.00    +0.136 A 
ATOM     10  C   UNL     1       1.224  -0.679  -0.013  0.00  0.00    +0.021 A 
ATOM     11  C   UNL     1       0.002  -0.004   0.002  0.00  0.00    +0.011 A 
ATOM     12  C   UNL     1       1.610  -2.092  -0.025  0.00  0.00    +0.061 A 
ATOM     13  C   UNL     1       2.964  -2.111  -0.038  0.00  0.00    +0.176 A 
ATOM     14  O   UNL     1       3.439  -0.850  -0.036  0.00  0.00    -0.452 OA
ENDBRANCH   1  13
BRANCH   3  15
ATOM     15  C   UNL     1       6.997  -5.045  -0.086  0.00  0.00    +0.010 C 
ATOM     16  C   UNL     1       7.686  -4.613  -1.405  0.00  0.00    -0.004 C 
ATOM     17  C   UNL     1       7.227  -5.704  -2.403  0.00  0.00    -0.001 C 
ATOM     18  C   UNL     1       7.233  -7.004  -1.573  0.00  0.00    -0.001 C 
ATOM     19  C   UNL     1       7.087  -6.585  -0.099  0.00  0.00    -0.004 C 
BRANCH  15  20
ATOM     20  N   UNL     1       7.713  -4.498   1.074  0.00  0.00    +0.388 N 
ATOM     21  H   UNL     1       7.283  -4.833   1.923  0.00  0.00    -0.089 HD
ATOM     22  H   UNL     1       8.677  -4.794   1.045  0.00  0.00    -0.089 HD
ATOM     23  H   UNL     1       7.670  -3.490   1.051  0.00  0.00    -0.089 HD
ENDBRANCH  15  20
ENDBRANCH   3  15
TORSDOF 3
