REMARK  Name = ZINC38134999
REMARK  7 active torsions:
REMARK  status: ('A' for Active; 'I' for Inactive)
REMARK    1  A    between atoms: C_1  and  N_2
REMARK    2  A    between atoms: N_2  and  C_3
REMARK    3  A    between atoms: C_3  and  C_5
REMARK    4  A    between atoms: C_3  and  C_14
REMARK    5  A    between atoms: C_5  and  C_6
REMARK    6  A    between atoms: C_11  and  O_12
REMARK    7  A    between atoms: O_12  and  C_13
REMARK                            x       y       z     vdW  Elec       q    Type
REMARK                         _______ _______ _______ _____ _____    ______ ____
ROOT
ATOM      1  C   UNL     1       0.576  -0.470  -1.170  0.00  0.00    -0.030 C 
ENDROOT
BRANCH   1   2
ATOM      2  C   UNL     1      -0.156   0.005  -2.398  0.00  0.00    -0.023 A 
ATOM      3  C   UNL     1      -1.020   1.041  -2.529  0.00  0.00    +0.010 A 
ATOM      4  C   UNL     1      -1.579   1.296  -3.767  0.00  0.00    +0.023 A 
ATOM      5  C   UNL     1      -1.246   0.501  -4.814  0.00  0.00    +0.055 A 
ATOM      6  S   UNL     1      -0.105  -0.646  -4.059  0.00  0.00    -0.088 S 
ATOM      7 BR   UNL     1      -1.834   0.588  -6.610  0.00  0.00    -0.043 Br
ENDBRANCH   1   2
BRANCH   1   9
ATOM      8  C   UNL     1       1.182  -2.403   0.116  0.00  0.00    -0.100 C 
ATOM      9  N   UNL     1       0.594  -1.939  -1.148  0.00  0.00    +0.382 N 
ATOM     10  H   UNL     1       1.145  -2.280  -1.921  0.00  0.00    -0.085 HD
ATOM     11  H   UNL     1      -0.350  -2.288  -1.227  0.00  0.00    -0.085 HD
ENDBRANCH   1   9
BRANCH   1  12
ATOM     12  C   UNL     1       2.012   0.057  -1.196  0.00  0.00    +0.028 C 
BRANCH  12  13
ATOM     13  C   UNL     1       1.998   1.559  -1.083  0.00  0.00    -0.007 A 
ATOM     14  C   UNL     1       2.136   2.339  -2.215  0.00  0.00    +0.007 A 
ATOM     15  C   UNL     1       2.124   3.718  -2.112  0.00  0.00    +0.000 A 
ATOM     16  C   UNL     1       1.973   4.320  -0.876  0.00  0.00    +0.004 A 
ATOM     17  C   UNL     1       1.835   3.544   0.259  0.00  0.00    +0.046 A 
ATOM     18  C   UNL     1       1.841   2.160   0.157  0.00  0.00    +0.123 A 
BRANCH  18  19
ATOM     19  O   UNL     1       1.699   1.395   1.271  0.00  0.00    -0.495 OA
ATOM     20  C   UNL     1       1.542   2.082   2.514  0.00  0.00    +0.277 C 
ENDBRANCH  18  19
ENDBRANCH  12  13
ENDBRANCH   1  12
TORSDOF 5
