REMARK  Name = ZINC62425573
REMARK  5 active torsions:
REMARK  status: ('A' for Active; 'I' for Inactive)
REMARK    1  A    between atoms: C_1  and  C_2
REMARK    2  A    between atoms: C_5  and  C_8
REMARK    3  A    between atoms: C_9  and  C_10
REMARK    4  A    between atoms: C_11  and  C_20
REMARK    5  A    between atoms: C_20  and  N_21
REMARK                            x       y       z     vdW  Elec       q    Type
REMARK                         _______ _______ _______ _____ _____    ______ ____
ROOT
ATOM      1  C   UNL     1       0.093  -6.393   1.132  0.00  0.00    +0.091 A 
ATOM      2  C   UNL     1       0.948  -7.214   1.836  0.00  0.00    +0.073 A 
ATOM      3  N   UNL     1       0.644  -8.479   1.560  0.00  0.00    -0.135 NA
ATOM      4  N   UNL     1      -0.339  -8.534   0.734  0.00  0.00    -0.058 NA
ATOM      5  N   UNL     1      -0.741  -7.226   0.426  0.00  0.00    -0.188 N 
ATOM      6  C   UNL     1      -1.776  -6.847  -0.426  0.00  0.00    +0.196 A 
ATOM      7  N   UNL     1      -2.172  -5.634  -0.742  0.00  0.00    -0.229 NA
ATOM      8  C   UNL     1      -3.178  -5.438  -1.571  0.00  0.00    +0.121 A 
ATOM      9  C   UNL     1      -3.781  -6.542  -2.081  0.00  0.00    +0.068 A 
ATOM     10  S   UNL     1      -2.818  -7.832  -1.307  0.00  0.00    -0.056 S 
ENDROOT
BRANCH   1  12
ATOM     11  C   UNL     1       0.059  -4.246  -0.021  0.00  0.00    +0.010 C 
ATOM     12  C   UNL     1       0.074  -4.926   1.140  0.00  0.00    +0.030 C 
BRANCH  11  17
ATOM     13  C   UNL     1      -0.018   1.503   0.010  0.00  0.00    +0.044 C 
ATOM     14  C   UNL     1       0.002  -0.004   0.002  0.00  0.00    -0.050 A 
ATOM     15  C   UNL     1       0.006  -0.686  -1.202  0.00  0.00    +0.004 A 
ATOM     16  C   UNL     1       0.024  -2.065  -1.218  0.00  0.00    +0.008 A 
ATOM     17  C   UNL     1       0.040  -2.774  -0.013  0.00  0.00    -0.025 A 
ATOM     18  C   UNL     1       0.036  -2.078   1.199  0.00  0.00    +0.008 A 
ATOM     19  C   UNL     1       0.023  -0.699   1.199  0.00  0.00    +0.004 A 
ENDBRANCH  11  17
ENDBRANCH   1  12
BRANCH   2  20
ATOM     20  C   UNL     1       2.044  -6.755   2.763  0.00  0.00    -0.026 C 
BRANCH  20  21
ATOM     21  N   UNL     1       1.510  -6.623   4.125  0.00  0.00    +0.382 N 
ATOM     22  H   UNL     1       0.762  -5.947   4.129  0.00  0.00    -0.090 HD
ATOM     23  H   UNL     1       1.159  -7.516   4.436  0.00  0.00    -0.090 HD
ATOM     24  H   UNL     1       2.244  -6.316   4.746  0.00  0.00    -0.090 HD
ENDBRANCH  20  21
ENDBRANCH   2  20
TORSDOF 4
