REMARK  Name = ZINC37063033
REMARK  4 active torsions:
REMARK  status: ('A' for Active; 'I' for Inactive)
REMARK    1  A    between atoms: C_2  and  N_22
REMARK    2  A    between atoms: C_5  and  S_8
REMARK    3  A    between atoms: S_8  and  N_11
REMARK    4  A    between atoms: N_11  and  C_12
REMARK                            x       y       z     vdW  Elec       q    Type
REMARK                         _______ _______ _______ _____ _____    ______ ____
ROOT
ATOM      1  S   UNL     1       1.229  -2.443  -0.024  0.00  0.00    +0.061 S 
ATOM      2  O   UNL     1      -0.017  -2.860  -0.565  0.00  0.00    -0.153 OA
ATOM      3  O   UNL     1       2.474  -2.831  -0.589  0.00  0.00    -0.153 OA
ENDROOT
BRANCH   1   8
ATOM      4  C   UNL     1      -0.017   1.378   0.010  0.00  0.00    +0.044 A 
ATOM      5  C   UNL     1       1.177   2.088   0.002  0.00  0.00    +0.027 A 
ATOM      6  C   UNL     1       2.387   1.406  -0.013  0.00  0.00    +0.044 A 
ATOM      7  C   UNL     1       2.400   0.023  -0.021  0.00  0.00    +0.070 A 
ATOM      8  C   UNL     1       1.209  -0.681  -0.014  0.00  0.00    +0.142 A 
ATOM      9  C   UNL     1       0.002  -0.004   0.002  0.00  0.00    +0.070 A 
ATOM     10 CL   UNL     1      -1.490  -0.892   0.011  0.00  0.00    -0.081 Cl
ATOM     11 CL   UNL     1       3.912  -0.830  -0.040  0.00  0.00    -0.081 Cl
BRANCH   5  12
ATOM     12  N   UNL     1       1.161   3.484   0.009  0.00  0.00    -0.358 N 
ATOM     13  H   UNL     1       0.316   3.959   0.019  0.00  0.00    +0.142 HD
ATOM     14  H   UNL     1       1.996   3.979   0.004  0.00  0.00    +0.142 HD
ENDBRANCH   5  12
ENDBRANCH   1   8
BRANCH   1  15
ATOM     15  N   UNL     1       1.250  -2.941   1.555  0.00  0.00    -0.188 NA
ATOM     16  H   UNL     1       2.020  -3.417   1.904  0.00  0.00    +0.148 HD
BRANCH  15  17
ATOM     17  C   UNL     1       0.104  -2.664   2.426  0.00  0.00    +0.063 C 
ATOM     18  C   UNL     1      -0.831  -3.875   2.445  0.00  0.00    -0.058 C 
ATOM     19  N   UNL     1      -0.958  -4.390   3.810  0.00  0.00    +0.381 N 
ATOM     20  C   UNL     1       0.344  -4.832   4.317  0.00  0.00    -0.078 C 
ATOM     21  C   UNL     1       1.318  -3.653   4.360  0.00  0.00    -0.014 C 
ATOM     22  C   UNL     1       0.598  -2.394   3.853  0.00  0.00    +0.002 C 
ATOM     23  C   UNL     1      -0.624  -2.143   4.748  0.00  0.00    -0.014 C 
ATOM     24  C   UNL     1      -1.536  -3.374   4.693  0.00  0.00    -0.078 C 
ATOM     25  H   UNL     1      -1.574  -5.188   3.794  0.00  0.00    -0.082 HD
ENDBRANCH  15  17
ENDBRANCH   1  15
TORSDOF 4
