REMARK  Name = ZINC65575210
REMARK  10 active torsions:
REMARK  status: ('A' for Active; 'I' for Inactive)
REMARK    1  A    between atoms: C_1  and  C_2
REMARK    2  A    between atoms: C_3  and  C_12
REMARK    3  A    between atoms: C_4  and  C_11
REMARK    4  A    between atoms: N_5  and  C_7
REMARK    5  A    between atoms: C_7  and  C_8
REMARK    6  A    between atoms: C_8  and  C_9
REMARK    7  A    between atoms: C_8  and  C_10
REMARK    8  A    between atoms: C_12  and  C_13
REMARK    9  A    between atoms: N_15  and  C_16
REMARK   10  A    between atoms: C_23  and  C_26
REMARK                            x       y       z     vdW  Elec       q    Type
REMARK                         _______ _______ _______ _____ _____    ______ ____
ROOT
ATOM      1  C   UNL     1       1.410  -0.165  -3.050  0.00  0.00    +0.218 C 
ATOM      2  O   UNL     1       2.339  -0.400  -2.307  0.00  0.00    -0.275 OA
ATOM      3  N   UNL     1       1.644   0.256  -4.309  0.00  0.00    -0.310 N 
ATOM      4  H   UNL     1       0.901   0.445  -4.903  0.00  0.00    +0.149 HD
ENDROOT
BRANCH   3   5
ATOM      5  C   UNL     1       3.020   0.429  -4.779  0.00  0.00    +0.093 C 
ATOM      6  C   UNL     1       3.559  -0.912  -5.283  0.00  0.00    +0.032 C 
ATOM      7  C   UNL     1       5.065  -0.785  -5.552  0.00  0.00    +0.078 C 
ATOM      8  C   UNL     1       5.291   0.457  -6.377  0.00  0.00    +0.134 A 
ATOM      9  N   UNL     1       6.344   0.795  -7.057  0.00  0.00    -0.134 NA
ATOM     10  N   UNL     1       6.140   1.934  -7.627  0.00  0.00    -0.135 NA
ATOM     11  C   UNL     1       4.942   2.369  -7.329  0.00  0.00    +0.130 A 
ATOM     12  N   UNL     1       4.374   1.446  -6.529  0.00  0.00    -0.313 N 
ATOM     13  C   UNL     1       3.045   1.454  -5.920  0.00  0.00    +0.147 C 
ATOM     14  C   UNL     1       4.317   3.659  -7.793  0.00  0.00    +0.088 C 
ENDBRANCH   3   5
BRANCH   1  15
ATOM     15  C   UNL     1      -0.006  -0.343  -2.566  0.00  0.00    +0.134 C 
BRANCH  15  18
ATOM     16  C   UNL     1      -0.018   1.503   0.010  0.00  0.00    +0.068 C 
ATOM     17  C   UNL     1       0.002  -0.004   0.002  0.00  0.00    +0.064 A 
ATOM     18  C   UNL     1       0.008  -0.818  -1.135  0.00  0.00    +0.005 A 
ATOM     19  C   UNL     1       0.028  -2.107  -0.725  0.00  0.00    +0.040 A 
ATOM     20  N   UNL     1       0.034  -2.109   0.625  0.00  0.00    -0.268 N 
ATOM     21  N   UNL     1       0.023  -0.777   1.058  0.00  0.00    -0.176 NA
ATOM     22  C   UNL     1       0.040  -3.323  -1.615  0.00  0.00    +0.065 C 
BRANCH  20  23
ATOM     23  C   UNL     1       0.055  -3.295   1.485  0.00  0.00    +0.146 C 
BRANCH  23  24
ATOM     24  C   UNL     1       1.504  -3.688   1.777  0.00  0.00    +0.004 C 
ATOM     25  C   UNL     1       2.177  -2.583   2.595  0.00  0.00    +0.009 C 
ATOM     26  C   UNL     1       1.528  -4.995   2.571  0.00  0.00    +0.009 C 
ENDBRANCH  23  24
ENDBRANCH  20  23
ENDBRANCH  15  18
ENDBRANCH   1  15
TORSDOF 5
