REMARK  Name = ZINC57930409
REMARK  10 active torsions:
REMARK  status: ('A' for Active; 'I' for Inactive)
REMARK    1  A    between atoms: C_1  and  C_2
REMARK    2  A    between atoms: C_7  and  C_8
REMARK    3  A    between atoms: N_9  and  C_18
REMARK    4  A    between atoms: C_12  and  C_15
REMARK    5  A    between atoms: C_15  and  C_16
REMARK    6  A    between atoms: C_15  and  C_17
REMARK    7  A    between atoms: C_18  and  C_19
REMARK    8  A    between atoms: C_19  and  N_20
REMARK    9  A    between atoms: N_20  and  C_21
REMARK   10  A    between atoms: N_20  and  C_22
REMARK                            x       y       z     vdW  Elec       q    Type
REMARK                         _______ _______ _______ _____ _____    ______ ____
ROOT
ATOM      1  C   UNL     1      -0.018   1.503   0.010  0.00  0.00    +0.044 C 
ATOM      2  C   UNL     1       0.002  -0.004   0.002  0.00  0.00    -0.046 A 
ATOM      3  C   UNL     1       0.006  -0.688  -1.202  0.00  0.00    +0.028 A 
ATOM      4  C   UNL     1       0.025  -2.070  -1.205  0.00  0.00    +0.050 A 
ATOM      5  C   UNL     1       0.044  -2.776   0.000  0.00  0.00    +0.057 A 
ATOM      6  C   UNL     1       0.038  -2.083   1.200  0.00  0.00    +0.029 A 
ATOM      7  C   UNL     1       0.023  -0.700   1.196  0.00  0.00    -0.046 A 
ATOM      8  C   UNL     1       0.023   0.053   2.502  0.00  0.00    +0.044 C 
ATOM      9  N   UNL     1       0.076  -4.175  -0.019  0.00  0.00    -0.270 N 
ATOM     10  C   UNL     1      -0.198  -4.853  -1.149  0.00  0.00    +0.240 C 
ATOM     11  O   UNL     1      -0.123  -6.064  -1.155  0.00  0.00    -0.273 OA
ATOM     12  C   UNL     1      -0.596  -4.126  -2.408  0.00  0.00    +0.160 C 
ATOM     13  N   UNL     1       0.023  -2.792  -2.407  0.00  0.00    -0.331 N 
ATOM     14  H   UNL     1       0.417  -2.422  -3.213  0.00  0.00    +0.147 HD
ENDROOT
BRANCH  12  15
ATOM     15  C   UNL     1      -2.119  -3.985  -2.457  0.00  0.00    +0.012 C 
ATOM     16  C   UNL     1      -2.522  -3.246  -3.735  0.00  0.00    +0.009 C 
ATOM     17  C   UNL     1      -2.760  -5.374  -2.447  0.00  0.00    +0.009 C 
ENDBRANCH  12  15
BRANCH   9  18
ATOM     18  C   UNL     1       0.410  -4.909   1.204  0.00  0.00    +0.095 C 
BRANCH  18  19
ATOM     19  C   UNL     1      -0.870  -5.201   1.989  0.00  0.00    -0.060 C 
BRANCH  19  20
ATOM     20  N   UNL     1      -0.536  -5.938   3.216  0.00  0.00    +0.377 N 
ATOM     21  C   UNL     1       0.273  -5.082   4.095  0.00  0.00    -0.097 C 
ATOM     22  C   UNL     1      -1.772  -6.322   3.909  0.00  0.00    -0.097 C 
ATOM     23  H   UNL     1      -0.012  -6.766   2.978  0.00  0.00    -0.083 HD
ENDBRANCH  19  20
ENDBRANCH  18  19
ENDBRANCH   9  18
TORSDOF 4
