REMARK  Name = ZINC62344531
REMARK  3 active torsions:
REMARK  status: ('A' for Active; 'I' for Inactive)
REMARK    1  A    between atoms: C_6  and  C_7
REMARK    2  A    between atoms: C_7  and  C_9
REMARK    3  A    between atoms: C_9  and  N_10
REMARK                            x       y       z     vdW  Elec       q    Type
REMARK                         _______ _______ _______ _____ _____    ______ ____
ROOT
ATOM      1  C   UNL     1      -0.017   1.379   0.010  0.00  0.00    +0.007 A 
ATOM      2  C   UNL     1       1.168   2.090   0.002  0.00  0.00    +0.030 A 
ATOM      3  C   UNL     1       2.377   1.414  -0.013  0.00  0.00    +0.087 A 
ATOM      4  C   UNL     1       2.397   0.019  -0.021  0.00  0.00    +0.157 A 
ATOM      5  C   UNL     1       1.204  -0.685  -0.013  0.00  0.00    +0.053 A 
ATOM      6  C   UNL     1       0.002  -0.004   0.002  0.00  0.00    -0.025 A 
ATOM      7  O   UNL     1       3.697  -0.364  -0.036  0.00  0.00    -0.408 OA
ATOM      8  C   UNL     1       4.479   0.727  -0.038  0.00  0.00    +0.419 A 
ATOM      9  O   UNL     1       5.695   0.719  -0.050  0.00  0.00    -0.223 OA
ATOM     10  N   UNL     1       3.708   1.832  -0.024  0.00  0.00    -0.288 N 
ATOM     11  H   UNL     1       4.021   2.750  -0.022  0.00  0.00    +0.172 HD
ENDROOT
BRANCH   6  12
ATOM     12  C   UNL     1      -1.295  -0.772   0.010  0.00  0.00    +0.124 C 
ATOM     13 CL   UNL     1      -2.295  -0.246   1.415  0.00  0.00    -0.115 Cl
BRANCH  12  14
ATOM     14  C   UNL     1      -2.057  -0.500  -1.288  0.00  0.00    +0.108 C 
BRANCH  14  15
ATOM     15  N   UNL     1      -3.321  -1.248  -1.280  0.00  0.00    -0.296 NA
ATOM     16  C   UNL     1      -3.075  -2.697  -1.323  0.00  0.00    +0.112 C 
ATOM     17  C   UNL     1      -4.413  -3.438  -1.253  0.00  0.00    +0.175 C 
ATOM     18  O   UNL     1      -5.253  -2.999  -2.325  0.00  0.00    -0.377 OA
ATOM     19  C   UNL     1      -5.513  -1.593  -2.313  0.00  0.00    +0.175 C 
ATOM     20  C   UNL     1      -4.186  -0.833  -2.394  0.00  0.00    +0.112 C 
ENDBRANCH  14  15
ENDBRANCH  12  14
ENDBRANCH   6  12
TORSDOF 3
