REMARK  Name = ZINC08789537
REMARK  6 active torsions:
REMARK  status: ('A' for Active; 'I' for Inactive)
REMARK    1  A    between atoms: C_1  and  O_2
REMARK    2  A    between atoms: O_2  and  C_3
REMARK    3  A    between atoms: C_8  and  C_9
REMARK    4  A    between atoms: C_9  and  N_10
REMARK    5  A    between atoms: C_15  and  C_31
REMARK    6  A    between atoms: C_31  and  C_32
REMARK                            x       y       z     vdW  Elec       q    Type
REMARK                         _______ _______ _______ _____ _____    ______ ____
ROOT
ATOM      1  N   UNL     1       2.978   4.001  -1.366  0.00  0.00    -0.237 N 
ATOM      2  C   UNL     1       3.815   3.079  -1.854  0.00  0.00    +0.224 C 
ATOM      3  O   UNL     1       4.226   2.114  -1.245  0.00  0.00    -0.275 OA
ATOM      4  C   UNL     1       4.166   3.424  -3.283  0.00  0.00    +0.073 C 
ATOM      5  C   UNL     1       5.652   3.839  -3.349  0.00  0.00    -0.053 C 
ATOM      6  C   UNL     1       4.455   5.804  -3.751  0.00  0.00    +0.050 C 
ATOM      7  C   UNL     1       3.375   4.737  -3.539  0.00  0.00    +0.088 C 
ATOM      8  C   UNL     1       2.667   4.979  -2.225  0.00  0.00    +0.225 C 
ATOM      9  O   UNL     1       1.933   5.913  -1.986  0.00  0.00    -0.275 OA
ATOM     10  C   UNL     1       4.035   6.820  -4.775  0.00  0.00    -0.028 A 
ATOM     11  C   UNL     1       3.676   6.735  -6.102  0.00  0.00    +0.004 A 
ATOM     12  C   UNL     1       3.332   7.879  -6.800  0.00  0.00    +0.000 A 
ATOM     13  C   UNL     1       3.351   9.106  -6.163  0.00  0.00    +0.002 A 
ATOM     14  C   UNL     1       3.709   9.196  -4.835  0.00  0.00    +0.023 A 
ATOM     15  C   UNL     1       4.057   8.049  -4.124  0.00  0.00    +0.036 A 
ATOM     16  N   UNL     1       4.449   7.884  -2.794  0.00  0.00    -0.286 N 
ATOM     17  C   UNL     1       4.700   6.595  -2.494  0.00  0.00    +0.211 C 
ATOM     18  O   UNL     1       5.055   6.157  -1.421  0.00  0.00    -0.277 OA
ATOM     19  H   UNL     1       4.532   8.613  -2.159  0.00  0.00    +0.155 HD
ATOM     20  N   UNL     1       5.641   5.067  -4.147  0.00  0.00    +0.394 N 
ATOM     21  H   UNL     1       5.599   4.839  -5.148  0.00  0.00    -0.083 HD
ATOM     22  H   UNL     1       6.484   5.621  -3.958  0.00  0.00    -0.083 HD
ENDROOT
BRANCH   1  23
ATOM     23  C   UNL     1       2.449   3.948  -0.001  0.00  0.00    +0.155 C 
BRANCH  23  29
ATOM     24  C   UNL     1       1.179   1.786   0.000  0.00  0.00    +0.125 A 
ATOM     25  C   UNL     1      -0.013   1.076   0.008  0.00  0.00    +0.046 A 
ATOM     26  C   UNL     1      -1.218   1.751   0.017  0.00  0.00    +0.004 A 
ATOM     27  C   UNL     1      -1.237   3.133   0.031  0.00  0.00    +0.001 A 
ATOM     28  C   UNL     1      -0.051   3.844   0.023  0.00  0.00    +0.009 A 
ATOM     29  C   UNL     1       1.157   3.173   0.008  0.00  0.00    +0.012 A 
BRANCH  24  31
ATOM     30  C   UNL     1       2.313  -0.303  -0.021  0.00  0.00    +0.277 C 
ATOM     31  O   UNL     1       2.366   1.125  -0.014  0.00  0.00    -0.495 OA
ENDBRANCH  24  31
ENDBRANCH  23  29
ENDBRANCH   1  23
BRANCH   5  32
ATOM     32  C   UNL     1       6.481   2.743  -4.021  0.00  0.00    +0.022 C 
BRANCH  32  33
ATOM     33  C   UNL     1       7.933   3.148  -4.033  0.00  0.00    -0.024 A 
ATOM     34  C   UNL     1       8.585   3.754  -5.038  0.00  0.00    +0.087 A 
ATOM     35  N   UNL     1       9.890   3.967  -4.686  0.00  0.00    -0.360 N 
ATOM     36  H   UNL     1      10.556   4.393  -5.248  0.00  0.00    +0.165 HD
ATOM     37  C   UNL     1      10.118   3.483  -3.417  0.00  0.00    +0.047 A 
ATOM     38  C   UNL     1       8.902   2.949  -2.952  0.00  0.00    +0.003 A 
ATOM     39  C   UNL     1       8.833   2.381  -1.679  0.00  0.00    +0.010 A 
ATOM     40  C   UNL     1       9.948   2.346  -0.890  0.00  0.00    +0.001 A 
ATOM     41  C   UNL     1      11.149   2.872  -1.344  0.00  0.00    +0.002 A 
ATOM     42  C   UNL     1      11.240   3.438  -2.597  0.00  0.00    +0.026 A 
ENDBRANCH  32  33
ENDBRANCH   5  32
TORSDOF 5
