REMARK  Name = ZINC39332239
REMARK  3 active torsions:
REMARK  status: ('A' for Active; 'I' for Inactive)
REMARK    1  A    between atoms: C_1  and  C_2
REMARK    2  A    between atoms: C_4  and  C_17
REMARK    3  A    between atoms: N_8  and  C_9
REMARK                            x       y       z     vdW  Elec       q    Type
REMARK                         _______ _______ _______ _____ _____    ______ ____
ROOT
ATOM      1  C   UNL     1      -0.019   1.526   0.010  0.00  0.00    +0.028 C 
ATOM      2  C   UNL     1       0.002  -0.004   0.002  0.00  0.00    +0.077 C 
ATOM      3  C   UNL     1      -1.440  -0.562   0.051  0.00  0.00    +0.003 C 
ATOM      4  N   UNL     1      -1.287  -1.710   0.990  0.00  0.00    +0.403 N 
ATOM      5  N   UNL     1      -0.287  -1.218   1.945  0.00  0.00    -0.285 NA
ATOM      6  N   UNL     1       0.649  -0.515   1.224  0.00  0.00    -0.278 N 
ATOM      7  H   UNL     1      -2.160  -1.909   1.456  0.00  0.00    -0.058 HD
ATOM      8  H   UNL     1       0.142  -1.982   2.445  0.00  0.00    +0.122 HD
ATOM      9  H   UNL     1      -0.946  -2.526   0.503  0.00  0.00    -0.058 HD
ENDROOT
BRANCH   6  10
ATOM     10  C   UNL     1       1.985  -0.318   1.585  0.00  0.00    +0.063 A 
ATOM     11  C   UNL     1       2.500   0.968   1.671  0.00  0.00    +0.045 A 
ATOM     12  C   UNL     1       3.822   1.159   2.028  0.00  0.00    +0.043 A 
ATOM     13  C   UNL     1       4.631   0.070   2.299  0.00  0.00    +0.021 A 
ATOM     14  C   UNL     1       4.122  -1.212   2.214  0.00  0.00    +0.023 A 
ATOM     15  C   UNL     1       2.799  -1.410   1.863  0.00  0.00    +0.063 A 
ATOM     16 CL   UNL     1       2.158  -3.020   1.764  0.00  0.00    -0.082 Cl
ATOM     17 CL   UNL     1       4.467   2.767   2.137  0.00  0.00    -0.083 Cl
ENDBRANCH   6  10
BRANCH   3  18
ATOM     18  C   UNL     1      -1.890  -1.039  -1.331  0.00  0.00    +0.143 C 
ATOM     19  C   UNL     1      -3.283  -1.640  -1.264  0.00  0.00    +0.021 C 
ATOM     20  C   UNL     1      -3.106  -2.906  -1.648  0.00  0.00    +0.132 C 
ATOM     21  N   UNL     1      -1.806  -3.143  -1.934  0.00  0.00    -0.162 NA
ATOM     22  N   UNL     1      -1.061  -2.167  -1.789  0.00  0.00    -0.182 NA
ENDBRANCH   3  18
TORSDOF 2
