REMARK  Name = ZINC33959577
REMARK  12 active torsions:
REMARK  status: ('A' for Active; 'I' for Inactive)
REMARK    1  A    between atoms: C_4  and  C_7
REMARK    2  A    between atoms: N_9  and  C_10
REMARK    3  A    between atoms: C_10  and  C_11
REMARK    4  A    between atoms: C_11  and  C_12
REMARK    5  A    between atoms: C_12  and  C_13
REMARK    6  A    between atoms: C_13  and  C_14
REMARK    7  A    between atoms: C_14  and  C_16
REMARK    8  A    between atoms: C_14  and  N_35
REMARK    9  A    between atoms: N_18  and  N_19
REMARK   10  A    between atoms: C_20  and  C_21
REMARK   11  A    between atoms: C_24  and  C_26
REMARK   12  A    between atoms: C_29  and  N_32
REMARK                            x       y       z     vdW  Elec       q    Type
REMARK                         _______ _______ _______ _____ _____    ______ ____
ROOT
ATOM      1  C   UNL     1       7.208  -7.155  -0.036  0.00  0.00    +0.021 C 
ENDROOT
BRANCH   1   2
ATOM      2  N   UNL     1       7.828  -6.880   1.267  0.00  0.00    +0.387 N 
ATOM      3  C   UNL     1       7.844  -5.432   1.504  0.00  0.00    -0.078 C 
ATOM      4  C   UNL     1       8.415  -5.145   2.894  0.00  0.00    -0.019 C 
ATOM      5  C   UNL     1       9.843  -5.693   2.977  0.00  0.00    -0.004 C 
ATOM      6  C   UNL     1       9.823  -7.190   2.655  0.00  0.00    -0.019 C 
ATOM      7  C   UNL     1       9.200  -7.401   1.274  0.00  0.00    -0.078 C 
ATOM      8  H   UNL     1       7.294  -7.332   1.994  0.00  0.00    -0.081 HD
ENDBRANCH   1   2
BRANCH   1   9
ATOM      9  C   UNL     1       7.072  -8.644  -0.224  0.00  0.00    +0.219 C 
ATOM     10  O   UNL     1       7.103  -9.379   0.735  0.00  0.00    -0.276 OA
ATOM     11  N   UNL     1       6.917  -9.156  -1.461  0.00  0.00    -0.208 N 
ATOM     12  H   UNL     1       6.892  -8.566  -2.230  0.00  0.00    +0.177 HD
BRANCH  11  13
ATOM     13  N   UNL     1       6.801 -10.431  -1.621  0.00  0.00    -0.185 NA
ATOM     14  C   UNL     1       6.647 -10.935  -2.840  0.00  0.00    +0.176 C 
BRANCH  14  15
ATOM     15  C   UNL     1       6.522 -12.307  -3.012  0.00  0.00    +0.148 A 
ATOM     16  C   UNL     1       6.353 -13.013  -4.292  0.00  0.00    +0.051 A 
ATOM     17  C   UNL     1       6.274 -14.334  -3.992  0.00  0.00    +0.050 A 
ATOM     18  C   UNL     1       6.388 -14.460  -2.585  0.00  0.00    +0.136 A 
ATOM     19  O   UNL     1       6.539 -13.242  -2.037  0.00  0.00    -0.454 OA
BRANCH  18  20
ATOM     20  C   UNL     1       6.354 -15.681  -1.867  0.00  0.00    +0.017 A 
ATOM     21  C   UNL     1       6.201 -16.902  -2.552  0.00  0.00    +0.014 A 
ATOM     22  C   UNL     1       6.170 -18.073  -1.850  0.00  0.00    +0.033 A 
ATOM     23  C   UNL     1       6.287 -18.063  -0.467  0.00  0.00    +0.126 A 
ATOM     24  C   UNL     1       6.438 -16.866   0.218  0.00  0.00    +0.033 A 
ATOM     25  C   UNL     1       6.477 -15.683  -0.464  0.00  0.00    +0.014 A 
BRANCH  23  26
ATOM     26  N   UNL     1       6.251 -19.339   0.283  0.00  0.00    +0.056 N 
ATOM     27  O   UNL     1       6.108 -20.478  -0.363  0.00  0.00    -0.126 OA
ATOM     28  O   UNL     1       6.362 -19.335   1.595  0.00  0.00    -0.126 OA
ENDBRANCH  23  26
ENDBRANCH  18  20
ENDBRANCH  14  15
ENDBRANCH  11  13
ENDBRANCH   1   9
BRANCH   1  29
ATOM     29  C   UNL     1       5.823  -6.506  -0.089  0.00  0.00    -0.006 C 
BRANCH  29  30
ATOM     30  C   UNL     1       4.966  -7.040   1.060  0.00  0.00    +0.000 C 
BRANCH  30  31
ATOM     31  C   UNL     1       3.623  -6.307   1.078  0.00  0.00    +0.019 C 
BRANCH  31  32
ATOM     32  C   UNL     1       2.765  -6.841   2.227  0.00  0.00    +0.104 C 
BRANCH  32  35
ATOM     33  C   UNL     1       0.556  -6.446   3.176  0.00  0.00    +0.244 C 
ATOM     34  O   UNL     1       0.790  -7.306   4.003  0.00  0.00    -0.270 OA
ATOM     35  N   UNL     1       1.480  -6.139   2.244  0.00  0.00    -0.311 N 
ATOM     36  H   UNL     1       1.293  -5.454   1.584  0.00  0.00    +0.149 HD
BRANCH  33  40
ATOM     37  C   UNL     1      -3.171  -4.410   3.226  0.00  0.00    +0.000 A 
ATOM     38  C   UNL     1      -2.908  -5.388   4.169  0.00  0.00    +0.001 A 
ATOM     39  C   UNL     1      -1.700  -6.053   4.158  0.00  0.00    +0.013 A 
ATOM     40  C   UNL     1      -0.741  -5.738   3.193  0.00  0.00    +0.037 A 
ATOM     41  C   UNL     1      -1.013  -4.750   2.245  0.00  0.00    +0.013 A 
ATOM     42  C   UNL     1      -2.226  -4.092   2.267  0.00  0.00    +0.001 A 
ENDBRANCH  33  40
ENDBRANCH  32  35
ENDBRANCH  31  32
ENDBRANCH  30  31
ENDBRANCH  29  30
ENDBRANCH   1  29
TORSDOF 12
