REMARK  Name = ZINC39652596
REMARK  9 active torsions:
REMARK  status: ('A' for Active; 'I' for Inactive)
REMARK    1  A    between atoms: C_1  and  C_2
REMARK    2  A    between atoms: C_2  and  O_3
REMARK    3  A    between atoms: O_3  and  C_4
REMARK    4  A    between atoms: C_9  and  C_10
REMARK    5  A    between atoms: C_10  and  C_11
REMARK    6  A    between atoms: C_11  and  N_12
REMARK    7  A    between atoms: C_13  and  C_15
REMARK    8  A    between atoms: C_26  and  C_28
REMARK    9  A    between atoms: C_33  and  C_34
REMARK                            x       y       z     vdW  Elec       q    Type
REMARK                         _______ _______ _______ _____ _____    ______ ____
ROOT
ATOM      1  C   UNL     1      -7.240   1.912  -2.390  0.00  0.00    +0.100 C 
ATOM      2  C   UNL     1      -8.337   0.910  -1.968  0.00  0.00    +0.121 C 
ATOM      3  N   UNL     1      -9.483   1.212  -2.858  0.00  0.00    -0.296 N 
ATOM      4  C   UNL     1      -8.863   1.492  -4.175  0.00  0.00    +0.115 C 
ATOM      5  C   UNL     1      -7.588   2.291  -3.840  0.00  0.00    -0.004 C 
ATOM      6  C   UNL     1      -6.453   1.891  -4.777  0.00  0.00    -0.010 C 
ATOM      7  C   UNL     1      -6.796   2.330  -6.204  0.00  0.00    -0.082 C 
ATOM      8  N   UNL     1      -6.994   3.784  -6.235  0.00  0.00    +0.379 N 
ATOM      9  C   UNL     1      -8.146   4.151  -5.403  0.00  0.00    -0.082 C 
ATOM     10  C   UNL     1      -7.860   3.788  -3.943  0.00  0.00    -0.010 C 
ATOM     11  C   UNL     1     -10.793   1.229  -2.542  0.00  0.00    +0.247 C 
ATOM     12  O   UNL     1     -11.626   1.401  -3.410  0.00  0.00    -0.270 OA
ATOM     13  H   UNL     1      -6.167   4.243  -5.883  0.00  0.00    -0.086 HD
ATOM     14  H   UNL     1      -7.159   4.079  -7.186  0.00  0.00    -0.086 HD
ENDROOT
BRANCH  11  15
ATOM     15  C   UNL     1     -11.217   1.038  -1.138  0.00  0.00    +0.040 A 
ATOM     16  C   UNL     1     -10.517   0.161  -0.308  0.00  0.00    +0.013 A 
ATOM     17  C   UNL     1     -10.918  -0.012   1.001  0.00  0.00    +0.001 A 
ATOM     18  C   UNL     1     -12.011   0.681   1.490  0.00  0.00    +0.000 A 
ATOM     19  C   UNL     1     -12.709   1.552   0.673  0.00  0.00    +0.004 A 
ATOM     20  C   UNL     1     -12.315   1.739  -0.636  0.00  0.00    -0.038 A 
ATOM     21  C   UNL     1     -13.072   2.692  -1.524  0.00  0.00    +0.044 C 
ENDBRANCH  11  15
BRANCH   1  23
ATOM     22  N   UNL     1      -4.785   2.008  -2.097  0.00  0.00    -0.315 N 
ATOM     23  C   UNL     1      -5.883   1.260  -2.330  0.00  0.00    +0.218 C 
ATOM     24  O   UNL     1      -5.777   0.062  -2.490  0.00  0.00    -0.275 OA
ATOM     25  H   UNL     1      -4.870   2.966  -1.969  0.00  0.00    +0.149 HD
BRANCH  22  26
ATOM     26  C   UNL     1      -3.466   1.374  -2.038  0.00  0.00    +0.109 C 
BRANCH  26  27
ATOM     27  C   UNL     1      -2.401   2.438  -1.764  0.00  0.00    +0.057 C 
BRANCH  27  33
ATOM     28  C   UNL     1      -0.329   1.562  -2.871  0.00  0.00    +0.124 A 
ATOM     29  C   UNL     1       0.923   0.966  -2.811  0.00  0.00    +0.046 A 
ATOM     30  C   UNL     1       1.452   0.593  -1.591  0.00  0.00    +0.004 A 
ATOM     31  C   UNL     1       0.735   0.813  -0.429  0.00  0.00    +0.000 A 
ATOM     32  C   UNL     1      -0.513   1.406  -0.486  0.00  0.00    +0.007 A 
ATOM     33  C   UNL     1      -1.044   1.786  -1.704  0.00  0.00    -0.004 A 
BRANCH  28  34
ATOM     34  O   UNL     1      -0.851   1.930  -4.070  0.00  0.00    -0.492 OA
BRANCH  34  36
ATOM     35  C   UNL     1      -0.805   2.148  -6.477  0.00  0.00    +0.048 C 
ATOM     36  C   UNL     1      -0.059   1.668  -5.230  0.00  0.00    +0.225 C 
ENDBRANCH  34  36
ENDBRANCH  28  34
ENDBRANCH  27  33
ENDBRANCH  26  27
ENDBRANCH  22  26
ENDBRANCH   1  23
TORSDOF 7
