REMARK  Name = ZINC52094295
REMARK  3 active torsions:
REMARK  status: ('A' for Active; 'I' for Inactive)
REMARK    1  A    between atoms: C_2  and  C_14
REMARK    2  A    between atoms: C_14  and  C_16
REMARK    3  A    between atoms: C_14  and  N_21
REMARK                            x       y       z     vdW  Elec       q    Type
REMARK                         _______ _______ _______ _____ _____    ______ ____
ROOT
ATOM      1  C   UNL     1       0.795   1.438  -1.208  0.00  0.00    +0.031 A 
ATOM      2  C   UNL     1       1.050   2.090  -0.016  0.00  0.00    -0.046 A 
ATOM      3  C   UNL     1       1.213   1.367   1.154  0.00  0.00    +0.022 A 
ATOM      4  C   UNL     1       1.121  -0.012   1.139  0.00  0.00    +0.043 A 
ATOM      5  C   UNL     1       0.866  -0.674  -0.052  0.00  0.00    +0.068 A 
ATOM      6  C   UNL     1       0.702   0.055  -1.232  0.00  0.00    +0.067 A 
ATOM      7  N   UNL     1       0.461  -0.869  -2.246  0.00  0.00    -0.306 N 
ATOM      8  H   UNL     1       0.307  -0.659  -3.181  0.00  0.00    +0.170 HD
ATOM      9  C   UNL     1       0.478  -2.103  -1.708  0.00  0.00    +0.325 A 
ATOM     10  O   UNL     1       0.301  -3.138  -2.323  0.00  0.00    -0.247 OA
ATOM     11  N   UNL     1       0.720  -2.018  -0.386  0.00  0.00    -0.306 N 
ATOM     12  H   UNL     1       0.782  -2.766   0.228  0.00  0.00    +0.170 HD
ATOM     13 BR   UNL     1       1.562   2.270   2.778  0.00  0.00    -0.050 Br
ENDROOT
BRANCH   2  14
ATOM     14  C   UNL     1       1.151   3.593   0.010  0.00  0.00    -0.040 C 
BRANCH  14  15
ATOM     15  C   UNL     1       1.382   4.113  -1.410  0.00  0.00    -0.021 C 
ATOM     16  C   UNL     1       2.723   3.583  -1.956  0.00  0.00    +0.002 C 
ATOM     17  C   UNL     1       3.290   4.763  -2.784  0.00  0.00    +0.000 C 
ATOM     18  C   UNL     1       2.890   5.997  -1.938  0.00  0.00    +0.000 C 
ATOM     19  C   UNL     1       1.488   5.648  -1.398  0.00  0.00    +0.002 C 
ENDBRANCH  14  15
BRANCH  14  20
ATOM     20  N   UNL     1      -0.095   4.159   0.543  0.00  0.00    +0.383 N 
ATOM     21  H   UNL     1      -0.027   5.165   0.560  0.00  0.00    -0.089 HD
ATOM     22  H   UNL     1      -0.868   3.884  -0.046  0.00  0.00    -0.089 HD
ATOM     23  H   UNL     1      -0.247   3.815   1.479  0.00  0.00    -0.089 HD
ENDBRANCH  14  20
ENDBRANCH   2  14
TORSDOF 3
