REMARK  Name = ZINC39350932
REMARK  11 active torsions:
REMARK  status: ('A' for Active; 'I' for Inactive)
REMARK    1  A    between atoms: C_1  and  C_2
REMARK    2  A    between atoms: C_2  and  O_3
REMARK    3  A    between atoms: O_3  and  C_4
REMARK    4  A    between atoms: C_5  and  O_28
REMARK    5  A    between atoms: C_7  and  C_11
REMARK    6  A    between atoms: C_11  and  C_13
REMARK    7  A    between atoms: C_11  and  C_20
REMARK    8  A    between atoms: C_14  and  C_19
REMARK    9  A    between atoms: C_21  and  C_27
REMARK   10  A    between atoms: C_24  and  O_26
REMARK   11  A    between atoms: O_28  and  C_29
REMARK                            x       y       z     vdW  Elec       q    Type
REMARK                         _______ _______ _______ _____ _____    ______ ____
ROOT
ATOM      1  C   UNL     1       1.106  -6.044  -1.849  0.00  0.00    +0.088 C 
ENDROOT
BRANCH   1   2
ATOM      2  C   UNL     1      -0.008  -6.729  -1.099  0.00  0.00    +0.052 A 
ATOM      3  C   UNL     1      -0.694  -6.215   0.006  0.00  0.00    +0.068 A 
ATOM      4  N   UNL     1      -1.588  -7.095   0.379  0.00  0.00    -0.176 NA
ATOM      5  N   UNL     1      -1.502  -8.200  -0.476  0.00  0.00    -0.243 N 
ATOM      6  C   UNL     1      -0.529  -7.952  -1.381  0.00  0.00    +0.271 A 
ATOM      7  O   UNL     1      -0.140  -8.777  -2.386  0.00  0.00    -0.266 OA
ATOM      8  C   UNL     1      -0.445  -4.879   0.656  0.00  0.00    +0.068 C 
ATOM      9  H   UNL     1      -2.048  -9.001  -0.430  0.00  0.00    +0.192 HD
ENDBRANCH   1   2
BRANCH   1  13
ATOM     10  C   UNL     1       0.340  -1.840  -2.009  0.00  0.00    +0.175 A 
ATOM     11  C   UNL     1       1.582  -2.306  -1.588  0.00  0.00    +0.163 A 
ATOM     12  C   UNL     1       1.826  -3.668  -1.537  0.00  0.00    +0.054 A 
ATOM     13  C   UNL     1       0.838  -4.562  -1.904  0.00  0.00    -0.031 A 
ATOM     14  C   UNL     1      -0.396  -4.100  -2.322  0.00  0.00    +0.022 A 
ATOM     15  C   UNL     1      -0.648  -2.741  -2.371  0.00  0.00    +0.059 A 
ATOM     16  I   UNL     1      -2.522  -2.045  -2.998  0.00  0.00    -0.040 I 
BRANCH  11  17
ATOM     17  O   UNL     1       2.554  -1.425  -1.227  0.00  0.00    -0.491 OA
ATOM     18  C   UNL     1       3.803  -1.975  -0.806  0.00  0.00    +0.277 C 
ENDBRANCH  11  17
BRANCH  10  19
ATOM     19  O   UNL     1       0.095  -0.503  -2.060  0.00  0.00    -0.488 OA
BRANCH  19  21
ATOM     20  C   UNL     1      -0.643   1.601  -1.127  0.00  0.00    +0.048 C 
ATOM     21  C   UNL     1      -0.435   0.105  -0.880  0.00  0.00    +0.226 C 
ENDBRANCH  19  21
ENDBRANCH  10  19
ENDBRANCH   1  13
BRANCH   1  22
ATOM     22  C   UNL     1       1.180  -6.594  -3.250  0.00  0.00    +0.017 C 
ATOM     23  C   UNL     1       2.204  -7.218  -3.835  0.00  0.00    +0.065 C 
ATOM     24  N   UNL     1       1.893  -7.566  -5.104  0.00  0.00    -0.156 NA
ATOM     25  N   UNL     1       0.756  -7.246  -5.458  0.00  0.00    -0.151 NA
ATOM     26  C   UNL     1       0.105  -6.573  -4.322  0.00  0.00    +0.284 C 
ATOM     27  C   UNL     1       3.528  -7.498  -3.171  0.00  0.00    +0.067 C 
BRANCH  26  28
ATOM     28  O   UNL     1      -0.241  -5.229  -4.664  0.00  0.00    -0.366 OA
ATOM     29  H   UNL     1      -0.924  -5.160  -5.345  0.00  0.00    +0.212 HD
ENDBRANCH  26  28
ENDBRANCH   1  22
TORSDOF 7
