REMARK  Name = ZINC22019388
REMARK  7 active torsions:
REMARK  status: ('A' for Active; 'I' for Inactive)
REMARK    1  A    between atoms: C_10  and  S_14
REMARK    2  A    between atoms: S_14  and  C_15
REMARK    3  A    between atoms: C_15  and  C_16
REMARK    4  A    between atoms: C_16  and  O_18
REMARK    5  A    between atoms: O_18  and  C_19
REMARK    6  A    between atoms: C_19  and  C_20
REMARK    7  A    between atoms: N_26  and  C_27
REMARK                            x       y       z     vdW  Elec       q    Type
REMARK                         _______ _______ _______ _____ _____    ______ ____
ROOT
ATOM      1  C   UNL     1       3.329   5.827  -0.023  0.00  0.00    +0.308 C 
ENDROOT
BRANCH   1   2
ATOM      2  C   UNL     1       4.790   6.196  -0.017  0.00  0.00    +0.173 A 
ATOM      3  N   UNL     1       5.390   6.529  -1.147  0.00  0.00    -0.196 NA
ATOM      4  C   UNL     1       6.680   6.857  -1.145  0.00  0.00    +0.217 A 
ATOM      5  N   UNL     1       7.364   6.849  -0.007  0.00  0.00    -0.181 NA
ATOM      6  C   UNL     1       6.758   6.514   1.127  0.00  0.00    +0.224 A 
ATOM      7  N   UNL     1       5.466   6.192   1.118  0.00  0.00    -0.196 NA
ATOM      8  N   UNL     1       7.465   6.504   2.313  0.00  0.00    -0.284 N 
ATOM      9  N   UNL     1       7.306   7.203  -2.325  0.00  0.00    -0.327 N 
ATOM     10  H   UNL     1       6.943   6.316   3.263  0.00  0.00    +0.155 HD
ATOM     11  H   UNL     1       8.372   7.474  -2.324  0.00  0.00    +0.145 HD
ATOM     12  H   UNL     1       6.739   7.209  -3.268  0.00  0.00    +0.145 HD
BRANCH   8  13
ATOM     13  C   UNL     1       8.845   6.734   2.307  0.00  0.00    +0.034 A 
ATOM     14  C   UNL     1       9.617   6.303   1.236  0.00  0.00    +0.025 A 
ATOM     15  C   UNL     1      10.978   6.536   1.230  0.00  0.00    +0.022 A 
ATOM     16  C   UNL     1      11.575   7.189   2.294  0.00  0.00    +0.041 A 
ATOM     17  C   UNL     1      10.808   7.615   3.365  0.00  0.00    +0.022 A 
ATOM     18  C   UNL     1       9.446   7.390   3.373  0.00  0.00    +0.025 A 
ATOM     19 CL   UNL     1      13.287   7.474   2.287  0.00  0.00    -0.084 Cl
ENDBRANCH   8  13
ENDBRANCH   1   2
BRANCH   1  20
ATOM     20  O   UNL     1       3.192   4.397  -0.234  0.00  0.00    -0.456 OA
BRANCH  20  21
ATOM     21  C   UNL     1       1.945   3.902  -0.266  0.00  0.00    +0.318 C 
ATOM     22  O   UNL     1       0.999   4.639  -0.122  0.00  0.00    -0.250 OA
BRANCH  21  23
ATOM     23  C   UNL     1       1.725   2.426  -0.482  0.00  0.00    +0.196 C 
BRANCH  23  24
ATOM     24  S   UNL     1      -0.050   2.074  -0.474  0.00  0.00    -0.091 S 
BRANCH  24  34
ATOM     25  C   UNL     1      -4.453  -3.659  -1.186  0.00  0.00    +0.001 A 
ATOM     26  C   UNL     1      -5.254  -2.544  -0.991  0.00  0.00    +0.004 A 
ATOM     27  C   UNL     1      -4.692  -1.297  -0.823  0.00  0.00    +0.047 A 
ATOM     28  C   UNL     1      -3.310  -1.146  -0.848  0.00  0.00    +0.138 A 
ATOM     29  C   UNL     1      -2.502  -2.275  -1.046  0.00  0.00    +0.046 A 
ATOM     30  C   UNL     1      -3.081  -3.529  -1.215  0.00  0.00    +0.014 A 
ATOM     31  C   UNL     1      -1.115  -1.782  -1.020  0.00  0.00    +0.121 A 
ATOM     32  C   UNL     1      -1.208  -0.403  -0.803  0.00  0.00    +0.186 A 
ATOM     33  O   UNL     1      -2.511  -0.065  -0.713  0.00  0.00    -0.451 OA
ATOM     34  C   UNL     1      -0.018   0.332  -0.738  0.00  0.00    +0.143 A 
ATOM     35  N   UNL     1       1.139  -0.311  -0.875  0.00  0.00    -0.225 NA
ATOM     36  C   UNL     1       1.178  -1.615  -1.073  0.00  0.00    +0.223 A 
ATOM     37  N   UNL     1       0.085  -2.345  -1.146  0.00  0.00    -0.232 NA
ENDBRANCH  24  34
ENDBRANCH  23  24
ENDBRANCH  21  23
ENDBRANCH  20  21
ENDBRANCH   1  20
TORSDOF 7
