REMARK  Name = ZINC39599634
REMARK  6 active torsions:
REMARK  status: ('A' for Active; 'I' for Inactive)
REMARK    1  A    between atoms: C_3  and  O_32
REMARK    2  A    between atoms: C_6  and  C_7
REMARK    3  A    between atoms: C_7  and  N_8
REMARK    4  A    between atoms: C_9  and  C_11
REMARK    5  A    between atoms: C_22  and  C_24
REMARK    6  A    between atoms: O_32  and  C_33
REMARK                            x       y       z     vdW  Elec       q    Type
REMARK                         _______ _______ _______ _____ _____    ______ ____
ROOT
ATOM      1  C   UNL     1      -3.626  -1.440  -2.644  0.00  0.00    +0.100 C 
ATOM      2  C   UNL     1      -3.874  -0.264  -3.614  0.00  0.00    +0.121 C 
ATOM      3  N   UNL     1      -5.006  -0.709  -4.461  0.00  0.00    -0.296 N 
ATOM      4  C   UNL     1      -5.911  -1.417  -3.524  0.00  0.00    +0.115 C 
ATOM      5  C   UNL     1      -4.965  -2.195  -2.587  0.00  0.00    -0.004 C 
ATOM      6  C   UNL     1      -5.513  -2.191  -1.163  0.00  0.00    -0.010 C 
ATOM      7  C   UNL     1      -6.815  -2.997  -1.120  0.00  0.00    -0.082 C 
ATOM      8  N   UNL     1      -6.556  -4.372  -1.563  0.00  0.00    +0.379 N 
ATOM      9  C   UNL     1      -6.118  -4.373  -2.964  0.00  0.00    -0.082 C 
ATOM     10  C   UNL     1      -4.787  -3.626  -3.085  0.00  0.00    -0.010 C 
ATOM     11  C   UNL     1      -5.175  -0.514  -5.784  0.00  0.00    +0.247 C 
ATOM     12  O   UNL     1      -4.281  -0.023  -6.444  0.00  0.00    -0.270 OA
ATOM     13  H   UNL     1      -5.836  -4.780  -0.986  0.00  0.00    -0.086 HD
ATOM     14  H   UNL     1      -7.402  -4.916  -1.476  0.00  0.00    -0.086 HD
ENDROOT
BRANCH  11  15
ATOM     15  C   UNL     1      -6.448  -0.896  -6.431  0.00  0.00    +0.042 A 
ATOM     16  C   UNL     1      -7.606  -1.046  -5.666  0.00  0.00    +0.051 A 
ATOM     17  C   UNL     1      -8.793  -1.404  -6.276  0.00  0.00    +0.127 A 
ATOM     18  C   UNL     1      -8.835  -1.614  -7.644  0.00  0.00    +0.076 A 
ATOM     19  C   UNL     1      -7.689  -1.467  -8.409  0.00  0.00    +0.127 A 
ATOM     20  C   UNL     1      -6.498  -1.104  -7.810  0.00  0.00    +0.051 A 
ATOM     21  F   UNL     1      -7.738  -1.674  -9.743  0.00  0.00    -0.205 F 
ATOM     22  F   UNL     1      -9.914  -1.549  -5.536  0.00  0.00    -0.205 F 
ENDBRANCH  11  15
BRANCH   1  24
ATOM     23  N   UNL     1      -2.445  -1.649  -0.481  0.00  0.00    -0.311 N 
ATOM     24  C   UNL     1      -3.256  -0.925  -1.277  0.00  0.00    +0.218 C 
ATOM     25  O   UNL     1      -3.687   0.142  -0.894  0.00  0.00    -0.275 OA
ATOM     26  H   UNL     1      -2.100  -2.502  -0.787  0.00  0.00    +0.149 HD
BRANCH  23  27
ATOM     27  C   UNL     1      -2.085  -1.148   0.848  0.00  0.00    +0.139 C 
BRANCH  27  33
ATOM     28  C   UNL     1       0.194  -2.039   1.373  0.00  0.00    +0.009 A 
ATOM     29  C   UNL     1       1.030  -2.945   1.997  0.00  0.00    +0.046 A 
ATOM     30  C   UNL     1       0.492  -3.957   2.780  0.00  0.00    +0.130 A 
ATOM     31  C   UNL     1      -0.883  -4.055   2.935  0.00  0.00    +0.046 A 
ATOM     32  C   UNL     1      -1.714  -3.146   2.309  0.00  0.00    +0.009 A 
ATOM     33  C   UNL     1      -1.176  -2.139   1.529  0.00  0.00    -0.030 A 
BRANCH  30  34
ATOM     34  O   UNL     1       1.312  -4.850   3.394  0.00  0.00    -0.406 OA
BRANCH  34  35
ATOM     35  C   UNL     1       0.689  -5.864   4.185  0.00  0.00    +0.575 C 
ATOM     36  F   UNL     1      -0.162  -6.628   3.378  0.00  0.00    -0.133 F 
ATOM     37  F   UNL     1       1.671  -6.691   4.740  0.00  0.00    -0.133 F 
ATOM     38  F   UNL     1      -0.052  -5.267   5.210  0.00  0.00    -0.133 F 
ENDBRANCH  34  35
ENDBRANCH  30  34
ENDBRANCH  27  33
ENDBRANCH  23  27
ENDBRANCH   1  24
TORSDOF 6
