REMARK  Name = ZINC49533833
REMARK  7 active torsions:
REMARK  status: ('A' for Active; 'I' for Inactive)
REMARK    1  A    between atoms: C_1  and  C_2
REMARK    2  A    between atoms: C_5  and  C_7
REMARK    3  A    between atoms: C_7  and  N_8
REMARK    4  A    between atoms: N_8  and  C_9
REMARK    5  A    between atoms: C_10  and  N_16
REMARK    6  A    between atoms: C_11  and  C_15
REMARK    7  A    between atoms: N_13  and  C_14
REMARK                            x       y       z     vdW  Elec       q    Type
REMARK                         _______ _______ _______ _____ _____    ______ ____
ROOT
ATOM      1  C   UNL     1      -1.569  -4.079   3.838  0.00  0.00    +0.136 A 
ATOM      2  C   UNL     1      -2.784  -4.610   4.160  0.00  0.00    +0.085 A 
ATOM      3  C   UNL     1      -2.560  -5.725   4.976  0.00  0.00    +0.054 A 
ATOM      4  N   UNL     1      -1.269  -5.865   5.141  0.00  0.00    -0.299 N 
ATOM      5  N   UNL     1      -0.617  -4.848   4.433  0.00  0.00    -0.275 N 
ATOM      6  C   UNL     1       0.831  -4.645   4.350  0.00  0.00    +0.172 C 
ATOM      7  C   UNL     1      -3.626  -6.614   5.563  0.00  0.00    +0.067 C 
ATOM      8  H   UNL     1      -0.836  -6.559   5.664  0.00  0.00    +0.187 HD
ENDROOT
BRANCH   2   9
ATOM      9  N   UNL     1      -4.044  -4.121   3.744  0.00  0.00    -0.354 N 
ATOM     10  H   UNL     1      -4.096  -3.336   3.176  0.00  0.00    +0.142 HD
ATOM     11  H   UNL     1      -4.856  -4.570   4.028  0.00  0.00    +0.142 HD
ENDBRANCH   2   9
BRANCH   1  12
ATOM     12  N   UNL     1      -1.344  -2.955   3.039  0.00  0.00    -0.322 N 
ATOM     13  H   UNL     1      -2.095  -2.439   2.705  0.00  0.00    +0.148 HD
BRANCH  12  14
ATOM     14  C   UNL     1       0.025  -2.556   2.705  0.00  0.00    +0.166 C 
BRANCH  14  19
ATOM     15  C   UNL     1       0.097   2.428   2.262  0.00  0.00    +0.066 C 
ATOM     16  C   UNL     1       0.027   1.034   1.693  0.00  0.00    +0.046 A 
ATOM     17  C   UNL     1      -0.071   0.817   0.356  0.00  0.00    +0.070 A 
ATOM     18  S   UNL     1      -0.111  -0.968   0.315  0.00  0.00    -0.079 S 
ATOM     19  C   UNL     1       0.001  -1.240   1.972  0.00  0.00    +0.096 A 
ATOM     20  N   UNL     1       0.066  -0.030   2.469  0.00  0.00    -0.248 NA
ENDBRANCH  14  19
ENDBRANCH  12  14
ENDBRANCH   1  12
TORSDOF 4
