REMARK  Name = ZINC37916567
REMARK  4 active torsions:
REMARK  status: ('A' for Active; 'I' for Inactive)
REMARK    1  A    between atoms: C_1  and  C_2
REMARK    2  A    between atoms: C_2  and  C_4
REMARK    3  A    between atoms: C_2  and  N_10
REMARK    4  A    between atoms: C_14  and  C_17
REMARK                            x       y       z     vdW  Elec       q    Type
REMARK                         _______ _______ _______ _____ _____    ______ ____
ROOT
ATOM      1  N   UNL     1      -1.376  -0.512   0.012  0.00  0.00    +0.385 N 
ATOM      2  C   UNL     1      -1.355  -1.980   0.013  0.00  0.00    -0.078 C 
ATOM      3  C   UNL     1      -2.785  -2.515   0.106  0.00  0.00    -0.018 C 
ATOM      4  C   UNL     1      -3.590  -2.015  -1.097  0.00  0.00    -0.002 C 
ATOM      5  C   UNL     1      -3.543  -0.485  -1.130  0.00  0.00    -0.042 C 
ATOM      6  C   UNL     1      -2.085  -0.025  -1.177  0.00  0.00    -0.076 C 
ATOM      7  H   UNL     1      -1.848  -0.185   0.842  0.00  0.00    -0.081 HD
ENDROOT
BRANCH   5   8
ATOM      8  C   UNL     1      -4.280   0.022  -2.372  0.00  0.00    -0.071 C 
ATOM      9  C   UNL     1      -4.276   1.565  -2.391  0.00  0.00    -0.017 C 
ATOM     10  C   UNL     1      -5.688   1.911  -2.933  0.00  0.00    -0.021 C 
ATOM     11  C   UNL     1      -6.550   0.791  -2.300  0.00  0.00    -0.082 C 
ATOM     12  N   UNL     1      -5.688  -0.414  -2.333  0.00  0.00    +0.381 N 
ATOM     13  H   UNL     1      -5.897  -0.962  -3.155  0.00  0.00    -0.086 HD
ATOM     14  H   UNL     1      -5.848  -0.970  -1.506  0.00  0.00    -0.086 HD
ENDBRANCH   5   8
BRANCH   1  16
ATOM     15  C   UNL     1      -0.019   1.526   0.010  0.00  0.00    -0.008 C 
ATOM     16  C   UNL     1       0.002  -0.004   0.002  0.00  0.00    -0.034 C 
BRANCH  16  17
ATOM     17  C   UNL     1       0.731  -0.503   1.223  0.00  0.00    -0.023 A 
ATOM     18  C   UNL     1       2.009  -0.938   1.335  0.00  0.00    +0.011 A 
ATOM     19  C   UNL     1       2.471  -1.355   2.570  0.00  0.00    +0.028 A 
ATOM     20  C   UNL     1       1.629  -1.315   3.633  0.00  0.00    +0.078 A 
ATOM     21  S   UNL     1       0.136  -0.668   2.898  0.00  0.00    -0.083 S 
ATOM     22 CL   UNL     1       1.927  -1.770   5.282  0.00  0.00    -0.076 Cl
ENDBRANCH  16  17
ENDBRANCH   1  16
TORSDOF 3
