REMARK  Name = ZINC02390709
REMARK  4 active torsions:
REMARK  status: ('A' for Active; 'I' for Inactive)
REMARK    1  A    between atoms: C_21  and  C_32
REMARK    2  A    between atoms: C_23  and  C_25
REMARK    3  A    between atoms: C_25  and  C_27
REMARK    4  A    between atoms: C_32  and  C_34
REMARK                            x       y       z     vdW  Elec       q    Type
REMARK                         _______ _______ _______ _____ _____    ______ ____
ROOT
ATOM      1  C   UNL     1      -2.163   6.917  -1.664  0.00  0.00    +0.001 A 
ATOM      2  C   UNL     1      -2.597   5.782  -2.323  0.00  0.00    +0.000 A 
ATOM      3  C   UNL     1      -1.826   4.635  -2.314  0.00  0.00    +0.006 A 
ATOM      4  C   UNL     1      -0.633   4.594  -1.621  0.00  0.00    -0.020 A 
ATOM      5  C   UNL     1      -0.167   5.757  -0.995  0.00  0.00    -0.019 A 
ATOM      6  C   UNL     1      -0.954   6.912  -1.006  0.00  0.00    +0.008 A 
ATOM      7  C   UNL     1       1.141   5.778  -0.314  0.00  0.00    +0.022 C 
ATOM      8  C   UNL     1       1.795   4.625  -0.088  0.00  0.00    +0.054 C 
ATOM      9  C   UNL     1       0.193   3.345  -1.580  0.00  0.00    +0.107 C 
ATOM     10  C   UNL     1      -0.604   2.074  -1.300  0.00  0.00    +0.107 C 
ATOM     11  C   UNL     1      -2.074   2.280  -1.173  0.00  0.00    -0.008 A 
ATOM     12  C   UNL     1      -2.832   3.054  -0.318  0.00  0.00    +0.006 A 
ATOM     13  C   UNL     1      -4.213   3.014  -0.482  0.00  0.00    +0.000 A 
ATOM     14  C   UNL     1      -4.802   2.227  -1.448  0.00  0.00    +0.002 A 
ATOM     15  C   UNL     1      -4.053   1.433  -2.302  0.00  0.00    +0.023 A 
ATOM     16  C   UNL     1      -2.666   1.466  -2.151  0.00  0.00    +0.038 A 
ATOM     17  N   UNL     1      -1.692   0.778  -2.858  0.00  0.00    -0.284 N 
ATOM     18  C   UNL     1      -0.446   1.093  -2.437  0.00  0.00    +0.231 C 
ATOM     19  O   UNL     1       0.596   0.680  -2.901  0.00  0.00    -0.274 OA
ATOM     20  C   UNL     1      -0.018   1.499   0.010  0.00  0.00    +0.108 C 
ATOM     21  C   UNL     1       1.421   2.089  -0.000  0.00  0.00    +0.143 C 
ATOM     22  H   UNL     1      -1.882   0.147  -3.569  0.00  0.00    +0.155 HD
ATOM     23  N   UNL     1       0.872   3.433  -0.319  0.00  0.00    -0.383 NA
ATOM     24  H   UNL     1       0.120   3.582   0.364  0.00  0.00    +0.127 HD
ENDROOT
BRANCH  21  25
ATOM     25  C   UNL     1       1.992   2.112   1.392  0.00  0.00    +0.217 C 
ATOM     26  O   UNL     1       1.989   3.144   2.033  0.00  0.00    -0.287 OA
BRANCH  25  27
ATOM     27  C   UNL     1       2.533   0.933   1.953  0.00  0.00    +0.172 A 
ATOM     28  C   UNL     1       3.087   0.811   3.212  0.00  0.00    +0.053 A 
ATOM     29  C   UNL     1       3.489  -0.525   3.342  0.00  0.00    +0.042 A 
ATOM     30  C   UNL     1       3.173  -1.153   2.187  0.00  0.00    +0.196 A 
ATOM     31  O   UNL     1       2.594  -0.277   1.357  0.00  0.00    -0.460 OA
ENDBRANCH  25  27
ENDBRANCH  21  25
BRANCH  20  32
ATOM     32  C   UNL     1       0.002  -0.004   0.002  0.00  0.00    +0.172 C 
ATOM     33  O   UNL     1       0.027  -0.604  -1.051  0.00  0.00    -0.292 OA
BRANCH  32  34
ATOM     34  C   UNL     1      -0.008  -0.746   1.271  0.00  0.00    +0.053 A 
ATOM     35  C   UNL     1      -0.037  -0.058   2.489  0.00  0.00    +0.014 A 
ATOM     36  C   UNL     1      -0.047  -0.760   3.674  0.00  0.00    +0.001 A 
ATOM     37  C   UNL     1      -0.028  -2.145   3.664  0.00  0.00    +0.003 A 
ATOM     38  C   UNL     1       0.000  -2.836   2.467  0.00  0.00    +0.039 A 
ATOM     39  C   UNL     1       0.005  -2.147   1.268  0.00  0.00    +0.134 A 
ATOM     40  F   UNL     1       0.027  -2.823   0.098  0.00  0.00    -0.205 F 
ENDBRANCH  32  34
ENDBRANCH  20  32
TORSDOF 4
