REMARK  Name = ZINC20356324
REMARK  2 active torsions:
REMARK  status: ('A' for Active; 'I' for Inactive)
REMARK    1  A    between atoms: C_6  and  C_7
REMARK    2  A    between atoms: C_10  and  C_12
REMARK                            x       y       z     vdW  Elec       q    Type
REMARK                         _______ _______ _______ _____ _____    ______ ____
ROOT
ATOM      1  C   UNL     1      -4.809  -1.053   0.038  0.00  0.00    +0.063 C 
ATOM      2  C   UNL     1      -5.354   0.218   0.148  0.00  0.00    +0.084 C 
ATOM      3  C   UNL     1      -4.503   1.438   0.141  0.00  0.00    +0.153 C 
ATOM      4  N   UNL     1      -3.393   1.536  -0.546  0.00  0.00    -0.283 NA
ATOM      5  N   UNL     1      -5.010   2.479   0.945  0.00  0.00    -0.150 N 
ATOM      6  C   UNL     1      -6.361   2.477   1.212  0.00  0.00    +0.182 C 
ATOM      7  N   UNL     1      -7.236   1.560   0.884  0.00  0.00    -0.152 NA
ATOM      8  C   UNL     1      -6.813   0.432   0.273  0.00  0.00    +0.273 C 
ATOM      9  O   UNL     1      -7.608  -0.388  -0.159  0.00  0.00    -0.268 OA
ATOM     10  S   UNL     1      -6.569   3.993   2.107  0.00  0.00    -0.018 S 
ATOM     11  C   UNL     1      -4.849   4.476   2.156  0.00  0.00    +0.182 C 
ATOM     12  N   UNL     1      -4.272   3.512   1.483  0.00  0.00    -0.149 NA
ATOM     13  N   UNL     1      -4.274   5.586   2.753  0.00  0.00    -0.308 N 
ATOM     14  C   UNL     1      -2.841   5.918   2.743  0.00  0.00    +0.107 C 
ATOM     15  C   UNL     1      -2.668   7.222   3.550  0.00  0.00    +0.020 C 
ATOM     16  C   UNL     1      -3.934   7.247   4.446  0.00  0.00    +0.020 C 
ATOM     17  C   UNL     1      -4.997   6.633   3.497  0.00  0.00    +0.107 C 
ATOM     18  H   UNL     1      -2.875   2.356  -0.515  0.00  0.00    +0.188 HD
ENDROOT
BRANCH   1  22
ATOM     19  C   UNL     1      -1.276  -0.801   0.368  0.00  0.00    +0.136 A 
ATOM     20  C   UNL     1      -1.378  -2.138   0.045  0.00  0.00    +0.050 A 
ATOM     21  C   UNL     1      -2.734  -2.414  -0.124  0.00  0.00    +0.050 A 
ATOM     22  C   UNL     1      -3.417  -1.228   0.103  0.00  0.00    +0.129 A 
ATOM     23  O   UNL     1      -2.511  -0.272   0.404  0.00  0.00    -0.455 OA
BRANCH  19  29
ATOM     24  C   UNL     1      -0.052   1.285   0.961  0.00  0.00    +0.012 A 
ATOM     25  C   UNL     1       1.125   1.958   1.211  0.00  0.00    +0.016 A 
ATOM     26  C   UNL     1       2.337   1.291   1.141  0.00  0.00    +0.018 A 
ATOM     27  C   UNL     1       2.375  -0.056   0.820  0.00  0.00    +0.016 A 
ATOM     28  C   UNL     1       1.206  -0.741   0.568  0.00  0.00    +0.012 A 
ATOM     29  C   UNL     1      -0.020  -0.074   0.637  0.00  0.00    +0.017 A 
ATOM     30 BR   UNL     1       3.946   2.223   1.485  0.00  0.00    -0.050 Br
ENDBRANCH  19  29
ENDBRANCH   1  22
TORSDOF 2
