REMARK  Name = ZINC20632731
REMARK  6 active torsions:
REMARK  status: ('A' for Active; 'I' for Inactive)
REMARK    1  A    between atoms: C_1  and  N_2
REMARK    2  A    between atoms: N_10  and  C_14
REMARK    3  A    between atoms: C_14  and  N_15
REMARK    4  A    between atoms: N_15  and  C_16
REMARK    5  A    between atoms: N_15  and  C_17
REMARK    6  A    between atoms: C_17  and  C_18
REMARK                            x       y       z     vdW  Elec       q    Type
REMARK                         _______ _______ _______ _____ _____    ______ ____
ROOT
ATOM      1  C   UNL     1       4.157  -1.171  -0.042  0.00  0.00    -0.096 C 
ATOM      2  N   UNL     1       3.428   0.104  -0.029  0.00  0.00    +0.378 N 
ATOM      3  C   UNL     1       2.623   0.237   1.192  0.00  0.00    -0.077 C 
ATOM      4  C   UNL     1       2.006   1.638   1.245  0.00  0.00    +0.017 C 
ATOM      5  C   UNL     1       1.152   1.861   0.001  0.00  0.00    +0.109 C 
ATOM      6  C   UNL     1       1.983   1.651  -1.261  0.00  0.00    +0.017 C 
ATOM      7  C   UNL     1       2.601   0.250  -1.233  0.00  0.00    -0.077 C 
ATOM      8  C   UNL     1       0.551   3.247   0.014  0.00  0.00    +0.247 C 
ATOM      9  O   UNL     1       1.143   4.305   0.013  0.00  0.00    -0.273 OA
ATOM     10  N   UNL     1      -0.785   3.059   0.025  0.00  0.00    -0.211 N 
ATOM     11  C   UNL     1      -1.100   1.758   0.016  0.00  0.00    +0.310 C 
ATOM     12  O   UNL     1      -2.241   1.339   0.018  0.00  0.00    -0.252 OA
ATOM     13  N   UNL     1      -0.011   0.966   0.007  0.00  0.00    -0.285 N 
ATOM     14  H   UNL     1       0.134  -0.125   0.004  0.00  0.00    +0.151 HD
ATOM     15  H   UNL     1       4.168   0.918  -0.032  0.00  0.00    -0.082 HD
ENDROOT
BRANCH  10  16
ATOM     16  C   UNL     1      -1.769   4.144   0.040  0.00  0.00    +0.205 C 
BRANCH  16  17
ATOM     17  N   UNL     1      -2.111   4.514  -1.340  0.00  0.00    -0.285 NA
ATOM     18  C   UNL     1      -1.096   5.408  -1.913  0.00  0.00    +0.106 C 
BRANCH  17  19
ATOM     19  C   UNL     1      -3.446   5.123  -1.407  0.00  0.00    +0.120 C 
BRANCH  19  20
ATOM     20  C   UNL     1      -3.863   5.263  -2.848  0.00  0.00    -0.033 A 
ATOM     21  C   UNL     1      -3.561   6.418  -3.545  0.00  0.00    +0.008 A 
ATOM     22  C   UNL     1      -3.939   6.546  -4.869  0.00  0.00    +0.038 A 
ATOM     23  C   UNL     1      -4.630   5.521  -5.493  0.00  0.00    +0.123 A 
ATOM     24  C   UNL     1      -4.936   4.367  -4.792  0.00  0.00    +0.038 A 
ATOM     25  C   UNL     1      -4.553   4.239  -3.470  0.00  0.00    +0.008 A 
ATOM     26  F   UNL     1      -5.003   5.646  -6.785  0.00  0.00    -0.205 F 
ENDBRANCH  19  20
ENDBRANCH  17  19
ENDBRANCH  16  17
ENDBRANCH  10  16
TORSDOF 4
