REMARK  Name = ZINC62096361
REMARK  5 active torsions:
REMARK  status: ('A' for Active; 'I' for Inactive)
REMARK    1  A    between atoms: C_1  and  S_2
REMARK    2  A    between atoms: S_2  and  N_5
REMARK    3  A    between atoms: N_8  and  C_11
REMARK    4  A    between atoms: C_11  and  C_12
REMARK    5  A    between atoms: C_19  and  N_21
REMARK                            x       y       z     vdW  Elec       q    Type
REMARK                         _______ _______ _______ _____ _____    ______ ____
ROOT
ATOM      1  C   UNL     1       2.343  -3.219  -4.102  0.00  0.00    +0.086 C 
ENDROOT
BRANCH   1   2
ATOM      2  C   UNL     1       3.835  -3.127  -4.426  0.00  0.00    -0.011 C 
ATOM      3  C   UNL     1       4.066  -1.930  -5.368  0.00  0.00    +0.003 C 
ATOM      4  C   UNL     1       5.395  -1.997  -6.071  0.00  0.00    +0.000 C 
ATOM      5  C   UNL     1       5.190  -2.671  -7.443  0.00  0.00    -0.000 C 
ATOM      6  C   UNL     1       5.117  -4.121  -7.344  0.00  0.00    -0.002 C 
ATOM      7  C   UNL     1       3.923  -4.592  -6.489  0.00  0.00    -0.016 C 
ATOM      8  C   UNL     1       4.294  -4.464  -5.039  0.00  0.00    -0.071 C 
BRANCH   8   9
ATOM      9  N   UNL     1       3.673  -5.566  -4.293  0.00  0.00    +0.380 N 
ATOM     10  H   UNL     1       2.669  -5.490  -4.354  0.00  0.00    -0.090 HD
ATOM     11  H   UNL     1       3.968  -6.447  -4.688  0.00  0.00    -0.090 HD
ATOM     12  H   UNL     1       3.957  -5.520  -3.326  0.00  0.00    -0.090 HD
ENDBRANCH   8   9
ENDBRANCH   1   2
BRANCH   1  16
ATOM     13  N   UNL     1       0.795  -0.411  -1.394  0.00  0.00    -0.179 NA
ATOM     14  C   UNL     1       0.058  -0.602  -2.652  0.00  0.00    +0.124 C 
ATOM     15  C   UNL     1       0.462  -1.953  -3.252  0.00  0.00    +0.101 C 
ATOM     16  N   UNL     1       1.924  -2.014  -3.374  0.00  0.00    -0.300 NA
ATOM     17  C   UNL     1       2.572  -1.943  -2.057  0.00  0.00    +0.101 C 
ATOM     18  C   UNL     1       2.255  -0.585  -1.409  0.00  0.00    +0.124 C 
BRANCH  13  20
ATOM     19  C   UNL     1      -0.022   1.810   0.012  0.00  0.00    +0.215 C 
ATOM     20  S   UNL     1       0.002  -0.004   0.002  0.00  0.00    +0.029 S 
ATOM     21  O   UNL     1       0.835  -0.488   1.046  0.00  0.00    -0.158 OA
ATOM     22  O   UNL     1      -1.315  -0.510  -0.168  0.00  0.00    -0.158 OA
ENDBRANCH  13  20
ENDBRANCH   1  16
TORSDOF 4
