REMARK  Name = ZINC45375936
REMARK  4 active torsions:
REMARK  status: ('A' for Active; 'I' for Inactive)
REMARK    1  A    between atoms: C_3  and  N_21
REMARK    2  A    between atoms: C_6  and  C_7
REMARK    3  A    between atoms: C_7  and  N_8
REMARK    4  A    between atoms: N_11  and  C_12
REMARK                            x       y       z     vdW  Elec       q    Type
REMARK                         _______ _______ _______ _____ _____    ______ ____
ROOT
ATOM      1  N   UNL     1      -1.732  -1.006  -1.369  0.00  0.00    -0.295 N 
ATOM      2  C   UNL     1      -2.870  -1.686  -1.609  0.00  0.00    +0.300 C 
ATOM      3  O   UNL     1      -3.530  -2.114  -0.681  0.00  0.00    -0.253 OA
ATOM      4  N   UNL     1      -3.279  -1.892  -2.877  0.00  0.00    -0.288 N 
ATOM      5  H   UNL     1      -1.206  -0.665  -2.110  0.00  0.00    +0.151 HD
ATOM      6  H   UNL     1      -2.752  -1.551  -3.617  0.00  0.00    +0.151 HD
ENDROOT
BRANCH   4   7
ATOM      7  C   UNL     1      -4.516  -2.630  -3.137  0.00  0.00    +0.160 C 
ATOM      8  C   UNL     1      -5.080  -2.225  -4.502  0.00  0.00    +0.032 C 
ATOM      9  C   UNL     1      -6.578  -2.464  -4.557  0.00  0.00    +0.004 C 
ATOM     10  C   UNL     1      -6.967  -3.930  -4.502  0.00  0.00    +0.019 C 
ATOM     11  C   UNL     1      -6.627  -4.533  -3.137  0.00  0.00    +0.104 C 
ATOM     12  N   UNL     1      -5.230  -4.996  -3.162  0.00  0.00    -0.314 N 
ATOM     13  C   UNL     1      -4.228  -4.117  -3.154  0.00  0.00    +0.233 C 
ATOM     14  O   UNL     1      -3.081  -4.510  -3.166  0.00  0.00    -0.274 OA
ATOM     15  H   UNL     1      -5.038  -5.946  -3.179  0.00  0.00    +0.149 HD
ENDBRANCH   4   7
BRANCH   1  16
ATOM     16  C   UNL     1      -1.288  -0.783   0.009  0.00  0.00    +0.142 C 
BRANCH  16  22
ATOM     17  C   UNL     1      -0.017   1.384   0.031  0.00  0.00    +0.010 A 
ATOM     18  C   UNL     1       1.190   2.061   0.023  0.00  0.00    +0.042 A 
ATOM     19  C   UNL     1       2.374   1.332  -0.013  0.00  0.00    +0.099 A 
ATOM     20  N   UNL     1       2.350   0.008  -0.041  0.00  0.00    -0.349 N 
ATOM     21  C   UNL     1       1.214  -0.664  -0.035  0.00  0.00    +0.089 A 
ATOM     22  C   UNL     1       0.002  -0.004   0.001  0.00  0.00    -0.014 A 
ATOM     23  H   UNL     1       3.188  -0.480  -0.066  0.00  0.00    +0.167 HD
BRANCH  19  24
ATOM     24  N   UNL     1       3.594   1.999  -0.022  0.00  0.00    -0.312 N 
ATOM     25  C   UNL     1       3.654   3.466  -0.119  0.00  0.00    +0.134 C 
ATOM     26  C   UNL     1       4.563   3.987   1.000  0.00  0.00    +0.178 C 
ATOM     27  O   UNL     1       5.814   3.296   0.951  0.00  0.00    -0.377 OA
ATOM     28  C   UNL     1       5.713   1.888   1.176  0.00  0.00    +0.178 C 
ATOM     29  C   UNL     1       4.862   1.259   0.072  0.00  0.00    +0.134 C 
ENDBRANCH  19  24
ENDBRANCH  16  22
ENDBRANCH   1  16
TORSDOF 4
