REMARK  Name = ZINC37039084
REMARK  5 active torsions:
REMARK  status: ('A' for Active; 'I' for Inactive)
REMARK    1  A    between atoms: C_6  and  S_7
REMARK    2  A    between atoms: S_7  and  N_10
REMARK    3  A    between atoms: N_13  and  C_16
REMARK    4  A    between atoms: C_16  and  C_17
REMARK    5  A    between atoms: C_17  and  N_18
REMARK                            x       y       z     vdW  Elec       q    Type
REMARK                         _______ _______ _______ _____ _____    ______ ____
ROOT
ATOM      1  S   UNL     1      -1.511  -0.907   0.012  0.00  0.00    +0.061 S 
ATOM      2  O   UNL     1      -1.217  -2.187   0.553  0.00  0.00    -0.153 OA
ATOM      3  O   UNL     1      -2.492  -0.048   0.578  0.00  0.00    -0.153 OA
ENDROOT
BRANCH   1   9
ATOM      4  C   UNL     1      -0.017   1.378   0.010  0.00  0.00    +0.029 A 
ATOM      5  C   UNL     1       1.171   2.083   0.002  0.00  0.00    +0.006 A 
ATOM      6  C   UNL     1       2.381   1.411  -0.014  0.00  0.00    -0.044 A 
ATOM      7  C   UNL     1       2.400   0.028  -0.021  0.00  0.00    -0.042 A 
ATOM      8  C   UNL     1       1.208  -0.677  -0.014  0.00  0.00    +0.032 A 
ATOM      9  C   UNL     1       0.002  -0.004   0.002  0.00  0.00    +0.106 A 
ATOM     10  C   UNL     1       3.831  -0.464  -0.038  0.00  0.00    +0.036 C 
ATOM     11  C   UNL     1       4.671   0.753  -0.480  0.00  0.00    +0.009 C 
ATOM     12  C   UNL     1       3.799   1.942  -0.025  0.00  0.00    +0.036 C 
ENDBRANCH   1   9
BRANCH   1  13
ATOM     13  N   UNL     1      -1.947  -1.149  -1.567  0.00  0.00    -0.174 NA
ATOM     14  C   UNL     1      -2.788  -0.172  -2.276  0.00  0.00    +0.125 C 
ATOM     15  C   UNL     1      -2.106   0.185  -3.601  0.00  0.00    +0.101 C 
ATOM     16  N   UNL     1      -1.819  -1.047  -4.349  0.00  0.00    -0.302 NA
ATOM     17  C   UNL     1      -0.874  -1.904  -3.621  0.00  0.00    +0.101 C 
ATOM     18  C   UNL     1      -1.500  -2.344  -2.299  0.00  0.00    +0.125 C 
BRANCH  16  19
ATOM     19  C   UNL     1      -1.323  -0.741  -5.697  0.00  0.00    +0.065 C 
BRANCH  19  20
ATOM     20  C   UNL     1      -1.273  -2.026  -6.526  0.00  0.00    -0.071 C 
BRANCH  20  21
ATOM     21  N   UNL     1      -0.777  -1.721  -7.874  0.00  0.00    +0.379 N 
ATOM     22  H   UNL     1      -1.395  -1.058  -8.318  0.00  0.00    -0.090 HD
ATOM     23  H   UNL     1       0.149  -1.325  -7.810  0.00  0.00    -0.090 HD
ATOM     24  H   UNL     1      -0.744  -2.568  -8.421  0.00  0.00    -0.090 HD
ENDBRANCH  20  21
ENDBRANCH  19  20
ENDBRANCH  16  19
ENDBRANCH   1  13
TORSDOF 5
