REMARK  Name = ZINC44032898
REMARK  11 active torsions:
REMARK  status: ('A' for Active; 'I' for Inactive)
REMARK    1  A    between atoms: C_1  and  C_2
REMARK    2  A    between atoms: C_2  and  N_3
REMARK    3  A    between atoms: N_3  and  C_4
REMARK    4  A    between atoms: C_8  and  C_21
REMARK    5  A    between atoms: C_11  and  N_13
REMARK    6  A    between atoms: C_14  and  C_20
REMARK    7  A    between atoms: C_15  and  C_19
REMARK    8  A    between atoms: C_16  and  C_18
REMARK    9  A    between atoms: C_21  and  C_22
REMARK   10  A    between atoms: C_21  and  C_23
REMARK   11  A    between atoms: C_21  and  C_24
REMARK                            x       y       z     vdW  Elec       q    Type
REMARK                         _______ _______ _______ _____ _____    ______ ____
ROOT
ATOM      1  C   UNL     1      -1.356  -1.981   0.004  0.00  0.00    -0.047 C 
ATOM      2  C   UNL     1      -0.727  -2.490   1.303  0.00  0.00    -0.013 C 
ATOM      3  C   UNL     1      -1.550  -1.998   2.495  0.00  0.00    +0.002 C 
ATOM      4  C   UNL     1      -2.981  -2.526   2.380  0.00  0.00    -0.004 C 
ATOM      5  C   UNL     1      -3.610  -2.018   1.082  0.00  0.00    +0.029 C 
ATOM      6  C   UNL     1      -2.787  -2.510  -0.111  0.00  0.00    +0.094 C 
ENDROOT
BRANCH   6   7
ATOM      7  N   UNL     1      -2.767  -3.975  -0.119  0.00  0.00    -0.267 N 
ATOM      8  C   UNL     1      -3.222  -4.770  -1.110  0.00  0.00    +0.040 A 
ATOM      9  C   UNL     1      -3.024  -6.054  -0.733  0.00  0.00    -0.007 A 
ATOM     10  C   UNL     1      -2.427  -6.044   0.532  0.00  0.00    +0.063 A 
ATOM     11  N   UNL     1      -2.267  -4.798   0.899  0.00  0.00    -0.176 NA
ATOM     12  C   UNL     1      -2.030  -7.258   1.332  0.00  0.00    +0.068 C 
ATOM     13  C   UNL     1      -3.383  -7.279  -1.534  0.00  0.00    +0.047 C 
ATOM     14  C   UNL     1      -3.841  -4.309  -2.405  0.00  0.00    +0.065 C 
ENDBRANCH   6   7
BRANCH   4  15
ATOM     15  C   UNL     1      -3.804  -2.034   3.572  0.00  0.00    -0.035 C 
ATOM     16  C   UNL     1      -3.825  -0.504   3.581  0.00  0.00    +0.011 C 
ATOM     17  C   UNL     1      -5.235  -2.563   3.458  0.00  0.00    +0.011 C 
ATOM     18  C   UNL     1      -3.175  -2.543   4.871  0.00  0.00    +0.011 C 
ENDBRANCH   4  15
BRANCH   1  19
ATOM     19  N   UNL     1      -1.376  -0.512   0.012  0.00  0.00    +0.382 N 
ATOM     20  H   UNL     1      -1.848  -0.187   0.843  0.00  0.00    -0.085 HD
ATOM     21  H   UNL     1      -1.864  -0.178  -0.805  0.00  0.00    -0.085 HD
BRANCH  19  23
ATOM     22  C   UNL     1      -0.019   1.526   0.010  0.00  0.00    -0.017 C 
ATOM     23  C   UNL     1       0.002  -0.004   0.002  0.00  0.00    -0.086 C 
ENDBRANCH  19  23
ENDBRANCH   1  19
TORSDOF 4
