REMARK  Name = ZINC20407405
REMARK  13 active torsions:
REMARK  status: ('A' for Active; 'I' for Inactive)
REMARK    1  A    between atoms: C_1  and  C_2
REMARK    2  A    between atoms: C_5  and  C_7
REMARK    3  A    between atoms: C_7  and  N_8
REMARK    4  A    between atoms: N_8  and  C_9
REMARK    5  A    between atoms: N_8  and  C_19
REMARK    6  A    between atoms: C_11  and  C_17
REMARK    7  A    between atoms: C_11  and  C_18
REMARK    8  A    between atoms: C_13  and  C_15
REMARK    9  A    between atoms: C_13  and  C_16
REMARK   10  A    between atoms: C_19  and  N_21
REMARK   11  A    between atoms: N_21  and  C_22
REMARK   12  A    between atoms: C_27  and  O_28
REMARK   13  A    between atoms: O_28  and  C_29
REMARK                            x       y       z     vdW  Elec       q    Type
REMARK                         _______ _______ _______ _____ _____    ______ ____
ROOT
ATOM      1  N   UNL     1       1.099   3.079  -3.457  0.00  0.00    -0.302 N 
ENDROOT
BRANCH   1   2
ATOM      2  C   UNL     1       0.553   2.710  -2.145  0.00  0.00    +0.073 C 
ATOM      3  C   UNL     1      -0.885   3.217  -2.038  0.00  0.00    +0.009 C 
ATOM      4  C   UNL     1      -1.472   2.865  -0.673  0.00  0.00    -0.072 C 
ATOM      5  N   UNL     1      -0.604   3.231   0.427  0.00  0.00    +0.386 N 
ATOM      6  C   UNL     1       0.826   3.024   0.329  0.00  0.00    -0.072 C 
ATOM      7  C   UNL     1       1.385   3.373  -1.048  0.00  0.00    +0.009 C 
ATOM      8  C   UNL     1       1.518   3.944   1.359  0.00  0.00    -0.010 C 
ATOM      9  C   UNL     1       1.202   1.581   0.684  0.00  0.00    -0.010 C 
ATOM     10  C   UNL     1      -1.816   1.371  -0.633  0.00  0.00    -0.010 C 
ATOM     11  C   UNL     1      -2.798   3.644  -0.522  0.00  0.00    -0.010 C 
ATOM     12  H   UNL     1      -0.701   4.309   0.627  0.00  0.00    -0.084 HD
ATOM     13  H   UNL     1      -0.891   2.664   1.325  0.00  0.00    -0.084 HD
ENDBRANCH   1   2
BRANCH   1  14
ATOM     14  C   UNL     1       1.573   2.125  -4.282  0.00  0.00    +0.138 C 
ATOM     15  S   UNL     1       2.308   2.564  -5.765  0.00  0.00    -0.018 S 
BRANCH  14  16
ATOM     16  N   UNL     1       1.469   0.825  -3.941  0.00  0.00    -0.294 N 
ATOM     17  H   UNL     1       0.750   0.176  -4.462  0.00  0.00    +0.154 HD
BRANCH  16  18
ATOM     18  C   UNL     1       2.275   0.302  -2.921  0.00  0.00    +0.075 A 
ATOM     19  C   UNL     1       3.280   1.078  -2.361  0.00  0.00    +0.028 A 
ATOM     20  C   UNL     1       4.074   0.560  -1.356  0.00  0.00    +0.022 A 
ATOM     21  C   UNL     1       3.869  -0.732  -0.904  0.00  0.00    +0.045 A 
ATOM     22  C   UNL     1       2.869  -1.511  -1.458  0.00  0.00    +0.067 A 
ATOM     23  C   UNL     1       2.066  -0.997  -2.462  0.00  0.00    +0.143 A 
ATOM     24 CL   UNL     1       4.870  -1.376   0.360  0.00  0.00    -0.083 Cl
BRANCH  23  25
ATOM     25  O   UNL     1       1.078  -1.759  -3.003  0.00  0.00    -0.493 OA
ATOM     26  C   UNL     1       0.921  -3.081  -2.484  0.00  0.00    +0.277 C 
ENDBRANCH  23  25
ENDBRANCH  16  18
ENDBRANCH  14  16
ENDBRANCH   1  14
BRANCH   1  27
ATOM     27  C   UNL     1       1.129   4.485  -3.869  0.00  0.00    +0.181 C 
BRANCH  27  32
ATOM     28  C   UNL     1       4.561   6.892  -1.065  0.00  0.00    +0.086 C 
ATOM     29  C   UNL     1       3.922   6.155  -2.213  0.00  0.00    +0.102 A 
ATOM     30  C   UNL     1       4.526   5.821  -3.368  0.00  0.00    +0.045 A 
ATOM     31  C   UNL     1       3.564   5.147  -4.154  0.00  0.00    +0.046 A 
ATOM     32  C   UNL     1       2.429   5.109  -3.433  0.00  0.00    +0.122 A 
ATOM     33  O   UNL     1       2.650   5.726  -2.261  0.00  0.00    -0.463 OA
ENDBRANCH  27  32
ENDBRANCH   1  27
TORSDOF 7
