REMARK  Name = ZINC64097976
REMARK  6 active torsions:
REMARK  status: ('A' for Active; 'I' for Inactive)
REMARK    1  A    between atoms: C_1  and  O_2
REMARK    2  A    between atoms: O_2  and  C_3
REMARK    3  A    between atoms: C_10  and  C_18
REMARK    4  A    between atoms: C_20  and  O_35
REMARK    5  A    between atoms: C_22  and  O_34
REMARK    6  A    between atoms: N_24  and  C_27
REMARK                            x       y       z     vdW  Elec       q    Type
REMARK                         _______ _______ _______ _____ _____    ______ ____
ROOT
ATOM      1  C   UNL     1       4.162  -5.026   5.134  0.00  0.00    +0.179 C 
ATOM      2  C   UNL     1       5.386  -5.869   4.925  0.00  0.00    +0.200 C 
ATOM      3  N   UNL     1       5.401  -7.130   5.121  0.00  0.00    -0.204 NA
ATOM      4  C   UNL     1       4.250  -7.902   5.561  0.00  0.00    +0.338 C 
ATOM      5  N   UNL     1       3.241  -7.068   6.198  0.00  0.00    -0.225 N 
ATOM      6  C   UNL     1       3.177  -5.748   6.008  0.00  0.00    +0.237 C 
ATOM      7  O   UNL     1       2.299  -5.117   6.558  0.00  0.00    -0.274 OA
ENDROOT
BRANCH   1  14
ATOM      8  C   UNL     1       1.057  -0.232   1.206  0.00  0.00    +0.121 A 
ATOM      9  C   UNL     1       1.762   0.487   2.187  0.00  0.00    +0.047 A 
ATOM     10  C   UNL     1       2.369  -0.115   3.231  0.00  0.00    +0.029 A 
ATOM     11  C   UNL     1       2.305  -1.572   3.372  0.00  0.00    +0.043 A 
ATOM     12  N   UNL     1       2.818  -2.389   4.263  0.00  0.00    -0.376 N 
ATOM     13  C   UNL     1       2.359  -3.742   3.966  0.00  0.00    +0.124 C 
ATOM     14  C   UNL     1       3.515  -4.729   3.780  0.00  0.00    +0.101 C 
ATOM     15  N   UNL     1       2.976  -5.971   3.204  0.00  0.00    -0.310 NA
ATOM     16  C   UNL     1       2.473  -5.805   1.837  0.00  0.00    +0.085 C 
ATOM     17  C   UNL     1       1.253  -4.865   1.834  0.00  0.00    +0.048 C 
ATOM     18  C   UNL     1       1.639  -3.638   2.630  0.00  0.00    -0.036 C 
ATOM     19  C   UNL     1       1.569  -2.335   2.333  0.00  0.00    +0.003 A 
ATOM     20  C   UNL     1       0.938  -1.580   1.244  0.00  0.00    +0.055 A 
ATOM     21  H   UNL     1       3.654  -6.716   3.252  0.00  0.00    +0.122 HD
ATOM     22  H   UNL     1       3.402  -2.137   4.995  0.00  0.00    +0.160 HD
BRANCH   8  24
ATOM     23  C   UNL     1       0.620   1.871   0.187  0.00  0.00    +0.277 C 
ATOM     24  O   UNL     1       0.469   0.450   0.188  0.00  0.00    -0.495 OA
ENDBRANCH   8  24
ENDBRANCH   1  14
BRANCH   5  25
ATOM     25  C   UNL     1       2.303  -7.675   7.041  0.00  0.00    +0.042 A 
ATOM     26  C   UNL     1       2.705  -8.213   8.256  0.00  0.00    +0.024 A 
ATOM     27  C   UNL     1       1.777  -8.811   9.086  0.00  0.00    +0.003 A 
ATOM     28  C   UNL     1       0.449  -8.874   8.709  0.00  0.00    +0.020 A 
ATOM     29  C   UNL     1       0.044  -8.339   7.498  0.00  0.00    +0.043 A 
ATOM     30  C   UNL     1       0.968  -7.734   6.666  0.00  0.00    +0.043 A 
ATOM     31 CL   UNL     1      -1.624  -8.422   7.027  0.00  0.00    -0.083 Cl
ENDBRANCH   5  25
BRANCH   4  32
ATOM     32  O   UNL     1       3.666  -8.551   4.429  0.00  0.00    -0.356 OA
ATOM     33  H   UNL     1       4.265  -9.157   3.971  0.00  0.00    +0.214 HD
ENDBRANCH   4  32
BRANCH   2  34
ATOM     34  O   UNL     1       6.521  -5.268   4.513  0.00  0.00    -0.495 OA
ATOM     35  H   UNL     1       7.268  -5.872   4.399  0.00  0.00    +0.293 HD
ENDBRANCH   2  34
TORSDOF 5
