REMARK  Name = ZINC65298367
REMARK  7 active torsions:
REMARK  status: ('A' for Active; 'I' for Inactive)
REMARK    1  A    between atoms: C_1  and  C_2
REMARK    2  A    between atoms: C_2  and  O_3
REMARK    3  A    between atoms: O_3  and  C_4
REMARK    4  A    between atoms: C_8  and  C_11
REMARK    5  A    between atoms: C_9  and  O_10
REMARK    6  A    between atoms: C_14  and  C_24
REMARK    7  A    between atoms: N_20  and  C_23
REMARK                            x       y       z     vdW  Elec       q    Type
REMARK                         _______ _______ _______ _____ _____    ______ ____
ROOT
ATOM      1  C   UNL     1       2.224  -4.267  -3.827  0.00  0.00    +0.095 C 
ATOM      2  C   UNL     1       3.731  -4.347  -3.565  0.00  0.00    +0.079 C 
ATOM      3  C   UNL     1       4.379  -5.193  -4.625  0.00  0.00    +0.047 C 
ATOM      4  N   UNL     1       3.721  -5.968  -5.401  0.00  0.00    -0.266 NA
ATOM      5  C   UNL     1       2.271  -6.123  -5.367  0.00  0.00    +0.109 C 
ATOM      6  N   UNL     1       1.730  -5.629  -4.094  0.00  0.00    -0.286 NA
ATOM      7  C   UNL     1       1.911  -7.604  -5.528  0.00  0.00    +0.027 C 
ATOM      8  C   UNL     1       2.396  -8.095  -6.894  0.00  0.00    -0.076 C 
ATOM      9  N   UNL     1       1.747  -7.316  -7.956  0.00  0.00    +0.378 N 
ATOM     10  C   UNL     1       2.139  -5.906  -7.851  0.00  0.00    -0.076 C 
ATOM     11  C   UNL     1       1.644  -5.333  -6.521  0.00  0.00    +0.027 C 
ATOM     12  C   UNL     1       2.158  -7.841  -9.265  0.00  0.00    -0.096 C 
ATOM     13  H   UNL     1       1.963  -6.253  -3.336  0.00  0.00    +0.125 HD
ATOM     14  H   UNL     1       0.746  -7.394  -7.864  0.00  0.00    -0.082 HD
ENDROOT
BRANCH   3  15
ATOM     15  C   UNL     1       5.846  -5.126  -4.778  0.00  0.00    -0.004 A 
ATOM     16  C   UNL     1       6.600  -4.296  -3.946  0.00  0.00    +0.011 A 
ATOM     17  C   UNL     1       7.970  -4.237  -4.094  0.00  0.00    +0.016 A 
ATOM     18  C   UNL     1       8.598  -5.000  -5.065  0.00  0.00    +0.018 A 
ATOM     19  C   UNL     1       7.855  -5.824  -5.893  0.00  0.00    +0.016 A 
ATOM     20  C   UNL     1       6.485  -5.896  -5.751  0.00  0.00    +0.011 A 
ATOM     21 BR   UNL     1      10.476  -4.914  -5.261  0.00  0.00    -0.050 Br
ENDBRANCH   3  15
BRANCH   1  26
ATOM     22  C   UNL     1       0.777  -1.811  -1.336  0.00  0.00    +0.162 A 
ATOM     23  C   UNL     1       0.243  -2.669  -0.388  0.00  0.00    +0.049 A 
ATOM     24  C   UNL     1       0.352  -4.037  -0.555  0.00  0.00    +0.004 A 
ATOM     25  C   UNL     1       0.992  -4.552  -1.667  0.00  0.00    +0.009 A 
ATOM     26  C   UNL     1       1.526  -3.702  -2.616  0.00  0.00    +0.015 A 
ATOM     27  C   UNL     1       1.416  -2.330  -2.458  0.00  0.00    +0.163 A 
BRANCH  27  28
ATOM     28  O   UNL     1       1.936  -1.492  -3.394  0.00  0.00    -0.503 OA
ATOM     29  H   UNL     1       2.856  -1.241  -3.231  0.00  0.00    +0.292 HD
ENDBRANCH  27  28
BRANCH  22  30
ATOM     30  O   UNL     1       0.671  -0.465  -1.174  0.00  0.00    -0.489 OA
BRANCH  30  32
ATOM     31  C   UNL     1      -0.019   1.526   0.010  0.00  0.00    +0.048 C 
ATOM     32  C   UNL     1       0.002  -0.004   0.002  0.00  0.00    +0.226 C 
ENDBRANCH  30  32
ENDBRANCH  22  30
ENDBRANCH   1  26
TORSDOF 5
