REMARK  Name = ZINC41151994
REMARK  6 active torsions:
REMARK  status: ('A' for Active; 'I' for Inactive)
REMARK    1  A    between atoms: C_1  and  C_2
REMARK    2  A    between atoms: C_2  and  C_3
REMARK    3  A    between atoms: C_3  and  C_4
REMARK    4  A    between atoms: C_3  and  C_5
REMARK    5  A    between atoms: C_3  and  N_18
REMARK    6  A    between atoms: C_7  and  C_10
REMARK                            x       y       z     vdW  Elec       q    Type
REMARK                         _______ _______ _______ _____ _____    ______ ____
ROOT
ATOM      1  C   UNL     1       0.632  -2.000  -1.327  0.00  0.00    +0.161 A 
ATOM      2  N   UNL     1       0.068  -2.697  -2.317  0.00  0.00    -0.193 NA
ATOM      3  C   UNL     1       0.163  -3.985  -2.069  0.00  0.00    +0.260 A 
ATOM      4  O   UNL     1       0.800  -4.136  -0.895  0.00  0.00    -0.333 OA
ATOM      5  N   UNL     1       1.100  -2.827  -0.436  0.00  0.00    -0.062 NA
ENDROOT
BRANCH   3   6
ATOM      6  C   UNL     1      -0.343  -5.074  -2.929  0.00  0.00    +0.058 A 
ATOM      7  C   UNL     1      -0.986  -4.776  -4.133  0.00  0.00    +0.016 A 
ATOM      8  C   UNL     1      -1.455  -5.797  -4.932  0.00  0.00    +0.016 A 
ATOM      9  C   UNL     1      -1.291  -7.117  -4.544  0.00  0.00    +0.019 A 
ATOM     10  C   UNL     1      -0.655  -7.420  -3.353  0.00  0.00    +0.036 A 
ATOM     11  C   UNL     1      -0.175  -6.407  -2.546  0.00  0.00    +0.054 A 
ATOM     12 CL   UNL     1       0.628  -6.789  -1.055  0.00  0.00    -0.083 Cl
ATOM     13 BR   UNL     1      -1.939  -8.510  -5.646  0.00  0.00    -0.050 Br
ENDBRANCH   3   6
BRANCH   1  14
ATOM     14  C   UNL     1       0.718  -0.497  -1.257  0.00  0.00    -0.009 C 
ATOM     15  C   UNL     1       2.187  -0.073  -1.207  0.00  0.00    -0.003 C 
BRANCH  14  16
ATOM     16  N   UNL     1       0.080   0.086  -2.444  0.00  0.00    +0.386 N 
ATOM     17  H   UNL     1       0.138   1.092  -2.397  0.00  0.00    -0.089 HD
ATOM     18  H   UNL     1       0.552  -0.239  -3.274  0.00  0.00    -0.089 HD
ATOM     19  H   UNL     1      -0.889  -0.194  -2.477  0.00  0.00    -0.089 HD
ENDBRANCH  14  16
BRANCH  14  21
ATOM     20  C   UNL     1      -0.019   1.526   0.010  0.00  0.00    +0.003 C 
ATOM     21  C   UNL     1       0.002  -0.004   0.002  0.00  0.00    -0.009 C 
ENDBRANCH  14  21
ENDBRANCH   1  14
TORSDOF 4
