REMARK  Name = ZINC13367708
REMARK  6 active torsions:
REMARK  status: ('A' for Active; 'I' for Inactive)
REMARK    1  A    between atoms: C_7  and  C_18
REMARK    2  A    between atoms: C_9  and  C_11
REMARK    3  A    between atoms: N_20  and  N_21
REMARK    4  A    between atoms: N_21  and  S_22
REMARK    5  A    between atoms: S_22  and  C_25
REMARK    6  A    between atoms: C_29  and  C_31
REMARK                            x       y       z     vdW  Elec       q    Type
REMARK                         _______ _______ _______ _____ _____    ______ ____
ROOT
ATOM      1  C   UNL     1      -3.350   5.048  -2.785  0.00  0.00    +0.259 C 
ATOM      2  O   UNL     1      -4.173   5.931  -2.640  0.00  0.00    -0.269 OA
ATOM      3  N   UNL     1      -2.250   5.018  -2.008  0.00  0.00    -0.228 N 
ATOM      4  H   UNL     1      -1.593   4.313  -2.124  0.00  0.00    +0.171 HD
ENDROOT
BRANCH   1  11
ATOM      5  C   UNL     1      -6.938   4.782  -5.090  0.00  0.00    +0.001 A 
ATOM      6  C   UNL     1      -7.095   3.785  -6.050  0.00  0.00    +0.002 A 
ATOM      7  C   UNL     1      -6.113   2.871  -6.279  0.00  0.00    +0.028 A 
ATOM      8  C   UNL     1      -4.918   2.929  -5.538  0.00  0.00    +0.072 A 
ATOM      9  C   UNL     1      -4.765   3.943  -4.559  0.00  0.00    +0.013 A 
ATOM     10  C   UNL     1      -5.794   4.870  -4.353  0.00  0.00    +0.011 A 
ATOM     11  C   UNL     1      -3.558   4.006  -3.814  0.00  0.00    +0.049 A 
ATOM     12  C   UNL     1      -2.583   3.057  -4.077  0.00  0.00    +0.042 A 
ATOM     13  C   UNL     1      -2.814   2.082  -5.060  0.00  0.00    +0.074 A 
ATOM     14  N   UNL     1      -3.940   2.044  -5.744  0.00  0.00    -0.247 NA
BRANCH  13  15
ATOM     15  C   UNL     1      -1.766   1.070  -5.336  0.00  0.00    +0.019 A 
ATOM     16  C   UNL     1      -0.442   1.466  -5.521  0.00  0.00    +0.011 A 
ATOM     17  C   UNL     1       0.529   0.520  -5.777  0.00  0.00    +0.001 A 
ATOM     18  C   UNL     1       0.192  -0.820  -5.851  0.00  0.00    +0.001 A 
ATOM     19  C   UNL     1      -1.119  -1.220  -5.668  0.00  0.00    +0.020 A 
ATOM     20  C   UNL     1      -2.100  -0.282  -5.407  0.00  0.00    +0.050 A 
ATOM     21 CL   UNL     1      -3.745  -0.786  -5.171  0.00  0.00    -0.083 Cl
ENDBRANCH  13  15
ENDBRANCH   1  11
BRANCH   3  22
ATOM     22  N   UNL     1      -2.053   6.005  -1.033  0.00  0.00    -0.108 NA
ATOM     23  H   UNL     1      -2.065   6.942  -1.283  0.00  0.00    +0.172 HD
BRANCH  22  24
ATOM     24  S   UNL     1      -1.799   5.571   0.545  0.00  0.00    +0.074 S 
ATOM     25  O   UNL     1      -2.880   4.725   0.912  0.00  0.00    -0.152 OA
ATOM     26  O   UNL     1      -1.494   6.766   1.250  0.00  0.00    -0.152 OA
BRANCH  24  27
ATOM     27  C   UNL     1      -0.345   4.577   0.585  0.00  0.00    +0.108 A 
ATOM     28  C   UNL     1       0.892   5.172   0.763  0.00  0.00    +0.031 A 
ATOM     29  C   UNL     1       2.039   4.402   0.796  0.00  0.00    +0.041 A 
ATOM     30  C   UNL     1       1.958   3.029   0.650  0.00  0.00    +0.138 A 
ATOM     31  C   UNL     1       0.710   2.422   0.470  0.00  0.00    +0.100 A 
ATOM     32  C   UNL     1      -0.443   3.211   0.433  0.00  0.00    +0.046 A 
ATOM     33  F   UNL     1       3.079   2.276   0.682  0.00  0.00    -0.205 F 
BRANCH  31  34
ATOM     34  C   UNL     1       0.613   0.958   0.313  0.00  0.00    +0.389 C 
ATOM     35  O   UNL     1       1.618   0.276   0.340  0.00  0.00    -0.240 OA
ATOM     36  O   UNL     1      -0.591   0.378   0.139  0.00  0.00    -0.240 OA
ENDBRANCH  31  34
ENDBRANCH  24  27
ENDBRANCH  22  24
ENDBRANCH   3  22
TORSDOF 6
