REMARK  Name = ZINC50633540
REMARK  7 active torsions:
REMARK  status: ('A' for Active; 'I' for Inactive)
REMARK    1  A    between atoms: C_1  and  C_2
REMARK    2  A    between atoms: C_2  and  C_3
REMARK    3  A    between atoms: C_2  and  C_4
REMARK    4  A    between atoms: C_9  and  N_10
REMARK    5  A    between atoms: N_10  and  S_11
REMARK    6  A    between atoms: S_11  and  C_14
REMARK    7  A    between atoms: N_20  and  C_21
REMARK                            x       y       z     vdW  Elec       q    Type
REMARK                         _______ _______ _______ _____ _____    ______ ____
ROOT
ATOM      1  S   UNL     1      -1.635  -1.913  -3.599  0.00  0.00    +0.074 S 
ATOM      2  O   UNL     1      -0.544  -2.302  -4.423  0.00  0.00    -0.150 OA
ATOM      3  O   UNL     1      -2.788  -2.725  -3.427  0.00  0.00    -0.150 OA
ENDROOT
BRANCH   1   4
ATOM      4  C   UNL     1      -2.199  -0.360  -4.211  0.00  0.00    +0.124 A 
ATOM      5  C   UNL     1      -3.502   0.058  -3.970  0.00  0.00    +0.033 A 
ATOM      6  C   UNL     1      -3.905   1.283  -4.469  0.00  0.00    +0.043 A 
ATOM      7  C   UNL     1      -2.997   2.052  -5.190  0.00  0.00    +0.096 A 
ATOM      8  N   UNL     1      -1.763   1.619  -5.398  0.00  0.00    -0.348 N 
ATOM      9  C   UNL     1      -1.350   0.457  -4.930  0.00  0.00    +0.113 A 
ATOM     10  N   UNL     1      -3.389   3.286  -5.697  0.00  0.00    -0.334 N 
ATOM     11  C   UNL     1      -4.753   3.771  -5.470  0.00  0.00    +0.127 C 
ATOM     12  H   UNL     1      -2.760   3.825  -6.200  0.00  0.00    +0.147 HD
ATOM     13  H   UNL     1      -1.147   2.172  -5.904  0.00  0.00    +0.167 HD
ENDBRANCH   1   4
BRANCH   1  14
ATOM     14  N   UNL     1      -1.013  -1.646  -2.087  0.00  0.00    -0.216 N 
ATOM     15  H   UNL     1      -0.082  -1.847  -1.903  0.00  0.00    +0.174 HD
BRANCH  14  21
ATOM     16  C   UNL     1      -1.305  -0.258  -0.135  0.00  0.00    -0.022 A 
ATOM     17  C   UNL     1      -2.117   0.252   0.860  0.00  0.00    +0.006 A 
ATOM     18  C   UNL     1      -3.449  -0.113   0.921  0.00  0.00    +0.000 A 
ATOM     19  C   UNL     1      -3.974  -0.989  -0.012  0.00  0.00    +0.002 A 
ATOM     20  C   UNL     1      -3.168  -1.502  -1.009  0.00  0.00    +0.025 A 
ATOM     21  C   UNL     1      -1.830  -1.133  -1.077  0.00  0.00    +0.051 A 
BRANCH  16  23
ATOM     22  C   UNL     1       0.253   1.656  -0.372  0.00  0.00    +0.012 C 
ATOM     23  C   UNL     1       0.147   0.140  -0.201  0.00  0.00    +0.015 C 
ATOM     24  C   UNL     1       0.849  -0.278   1.092  0.00  0.00    +0.012 C 
ENDBRANCH  16  23
ENDBRANCH  14  21
ENDBRANCH   1  14
TORSDOF 4
