REMARK  Name = ZINC58341796
REMARK  5 active torsions:
REMARK  status: ('A' for Active; 'I' for Inactive)
REMARK    1  A    between atoms: C_1  and  C_2
REMARK    2  A    between atoms: C_8  and  C_12
REMARK    3  A    between atoms: C_12  and  N_13
REMARK    4  A    between atoms: N_13  and  C_14
REMARK    5  A    between atoms: C_14  and  C_15
REMARK                            x       y       z     vdW  Elec       q    Type
REMARK                         _______ _______ _______ _____ _____    ______ ____
ROOT
ATOM      1  C   UNL     1      -0.018   1.503   0.010  0.00  0.00    +0.065 C 
ATOM      2  C   UNL     1       0.002  -0.004   0.002  0.00  0.00    +0.033 A 
ATOM      3  C   UNL     1       0.008  -0.817  -1.139  0.00  0.00    +0.065 A 
ATOM      4  C   UNL     1       0.027  -2.103  -0.724  0.00  0.00    +0.115 A 
ATOM      5  N   UNL     1       0.034  -2.104   0.635  0.00  0.00    -0.273 N 
ATOM      6  N   UNL     1       0.023  -0.777   1.061  0.00  0.00    -0.300 N 
ATOM      7  C   UNL     1       0.058  -3.323   1.448  0.00  0.00    +0.146 C 
ATOM      8  C   UNL     1       0.552  -4.488   0.583  0.00  0.00    +0.010 C 
ATOM      9  C   UNL     1      -0.231  -4.527  -0.734  0.00  0.00    +0.106 C 
ATOM     10  N   UNL     1       0.037  -3.280  -1.476  0.00  0.00    -0.329 N 
ATOM     11  H   UNL     1       0.211  -3.277  -2.431  0.00  0.00    +0.147 HD
ATOM     12  H   UNL     1       0.027  -0.476   1.984  0.00  0.00    +0.187 HD
ENDROOT
BRANCH   8  13
ATOM     13  C   UNL     1       0.344  -5.804   1.336  0.00  0.00    -0.076 C 
BRANCH  13  14
ATOM     14  N   UNL     1       0.925  -6.908   0.560  0.00  0.00    +0.380 N 
ATOM     15  H   UNL     1       0.473  -6.961  -0.340  0.00  0.00    -0.086 HD
ATOM     16  H   UNL     1       1.912  -6.747   0.432  0.00  0.00    -0.086 HD
BRANCH  14  17
ATOM     17  C   UNL     1       0.725  -8.172   1.283  0.00  0.00    -0.078 C 
BRANCH  17  18
ATOM     18  C   UNL     1       1.330  -9.322   0.476  0.00  0.00    -0.006 C 
ATOM     19  C   UNL     1       0.541  -9.510  -0.831  0.00  0.00    +0.026 C 
ATOM     20  C   UNL     1       0.932 -10.853  -1.494  0.00  0.00    +0.166 C 
ATOM     21  S   UNL     1       1.426 -11.886  -0.055  0.00  0.00    -0.031 S 
ATOM     22  O   UNL     1       0.463 -12.915   0.127  0.00  0.00    -0.174 OA
ATOM     23  O   UNL     1       2.799 -12.227  -0.181  0.00  0.00    -0.174 OA
ATOM     24  C   UNL     1       1.236 -10.643   1.292  0.00  0.00    +0.167 C 
ENDBRANCH  17  18
ENDBRANCH  14  17
ENDBRANCH  13  14
ENDBRANCH   8  13
TORSDOF 4
