REMARK  Name = ZINC41637785
REMARK  9 active torsions:
REMARK  status: ('A' for Active; 'I' for Inactive)
REMARK    1  A    between atoms: C_1  and  C_2
REMARK    2  A    between atoms: C_4  and  N_11
REMARK    3  A    between atoms: C_5  and  O_9
REMARK    4  A    between atoms: O_9  and  C_10
REMARK    5  A    between atoms: C_12  and  C_14
REMARK    6  A    between atoms: N_16  and  C_17
REMARK    7  A    between atoms: C_17  and  C_18
REMARK    8  A    between atoms: N_24  and  C_25
REMARK    9  A    between atoms: N_24  and  C_26
REMARK                            x       y       z     vdW  Elec       q    Type
REMARK                         _______ _______ _______ _____ _____    ______ ____
ROOT
ATOM      1  C   UNL     1      -0.198  -2.838  -4.874  0.00  0.00    +0.300 C 
ATOM      2  O   UNL     1      -0.181  -4.052  -4.877  0.00  0.00    -0.265 OA
ATOM      3  N   UNL     1      -0.315  -2.164  -6.035  0.00  0.00    -0.303 N 
ATOM      4  H   UNL     1      -0.329  -1.194  -6.033  0.00  0.00    +0.149 HD
ENDROOT
BRANCH   1   6
ATOM      5  N   UNL     1       0.028  -2.767  -2.424  0.00  0.00    -0.275 N 
ATOM      6  C   UNL     1      -0.089  -2.093  -3.585  0.00  0.00    +0.303 C 
ATOM      7  O   UNL     1      -0.106  -0.879  -3.583  0.00  0.00    -0.265 OA
ATOM      8  H   UNL     1       0.123  -3.733  -2.432  0.00  0.00    +0.155 HD
BRANCH   5  12
ATOM      9  C   UNL     1      -1.302   1.185   0.178  0.00  0.00    +0.045 C 
ATOM     10  C   UNL     1      -0.624  -0.158   0.083  0.00  0.00    -0.030 A 
ATOM     11  C   UNL     1      -0.610  -0.839  -1.119  0.00  0.00    +0.031 A 
ATOM     12  C   UNL     1       0.014  -2.075  -1.208  0.00  0.00    +0.076 A 
ATOM     13  C   UNL     1       0.626  -2.626  -0.084  0.00  0.00    +0.143 A 
ATOM     14  C   UNL     1       0.609  -1.937   1.118  0.00  0.00    +0.067 A 
ATOM     15  C   UNL     1      -0.011  -0.702   1.198  0.00  0.00    +0.047 A 
ATOM     16 CL   UNL     1      -0.026   0.163   2.703  0.00  0.00    -0.083 Cl
BRANCH  13  17
ATOM     17  O   UNL     1       1.239  -3.837  -0.165  0.00  0.00    -0.493 OA
ATOM     18  C   UNL     1       1.845  -4.339   1.027  0.00  0.00    +0.277 C 
ENDBRANCH  13  17
ENDBRANCH   5  12
ENDBRANCH   1   6
BRANCH   3  19
ATOM     19  C   UNL     1      -0.422  -2.895  -7.300  0.00  0.00    +0.141 C 
BRANCH  19  20
ATOM     20  C   UNL     1      -0.541  -1.915  -8.439  0.00  0.00    -0.014 A 
ATOM     21  C   UNL     1      -1.790  -1.472  -8.854  0.00  0.00    +0.010 A 
ATOM     22  C   UNL     1      -1.856  -0.573  -9.903  0.00  0.00    +0.042 A 
ATOM     23  C   UNL     1      -0.675  -0.145 -10.502  0.00  0.00    +0.098 A 
ATOM     24  N   UNL     1       0.496  -0.591 -10.077  0.00  0.00    -0.349 N 
ATOM     25  C   UNL     1       0.590  -1.445  -9.075  0.00  0.00    +0.089 A 
ATOM     26  N   UNL     1      -0.727   0.758 -11.558  0.00  0.00    -0.323 N 
ATOM     27  C   UNL     1      -2.019   1.256 -12.034  0.00  0.00    +0.130 C 
ATOM     28  C   UNL     1       0.512   1.213 -12.194  0.00  0.00    +0.130 C 
ATOM     29  H   UNL     1       1.307  -0.280 -10.510  0.00  0.00    +0.167 HD
ENDBRANCH  19  20
ENDBRANCH   3  19
TORSDOF 5
