REMARK  Name = ZINC08826459
REMARK  6 active torsions:
REMARK  status: ('A' for Active; 'I' for Inactive)
REMARK    1  A    between atoms: C_6  and  C_7
REMARK    2  A    between atoms: C_7  and  O_9
REMARK    3  A    between atoms: O_9  and  C_10
REMARK    4  A    between atoms: C_10  and  C_11
REMARK    5  A    between atoms: N_13  and  C_14
REMARK    6  A    between atoms: C_15  and  C_24
REMARK                            x       y       z     vdW  Elec       q    Type
REMARK                         _______ _______ _______ _____ _____    ______ ____
ROOT
ATOM      1  O   UNL     1      -6.168  -1.060  -2.962  0.00  0.00    -0.452 OA
ENDROOT
BRANCH   1   2
ATOM      2  C   UNL     1      -5.745  -0.569  -1.780  0.00  0.00    +0.340 C 
ATOM      3  O   UNL     1      -6.481  -0.595  -0.813  0.00  0.00    -0.245 OA
BRANCH   2   9
ATOM      4  C   UNL     1      -3.544   0.028  -2.772  0.00  0.00    +0.017 A 
ATOM      5  C   UNL     1      -2.276   0.557  -2.662  0.00  0.00    +0.026 A 
ATOM      6  C   UNL     1      -1.836   1.060  -1.449  0.00  0.00    +0.052 A 
ATOM      7  C   UNL     1      -2.685   1.038  -0.325  0.00  0.00    +0.055 A 
ATOM      8  C   UNL     1      -3.951   0.508  -0.433  0.00  0.00    +0.040 A 
ATOM      9  C   UNL     1      -4.390  -0.002  -1.660  0.00  0.00    +0.061 A 
ATOM     10  N   UNL     1      -2.224   1.566   0.896  0.00  0.00    -0.282 N 
ATOM     11  C   UNL     1      -0.872   1.580   1.133  0.00  0.00    +0.238 C 
ATOM     12  O   UNL     1      -0.397   1.994   2.170  0.00  0.00    -0.273 OA
ATOM     13  C   UNL     1      -0.013   1.086   0.008  0.00  0.00    +0.160 C 
ATOM     14  N   UNL     1      -0.585   1.595  -1.269  0.00  0.00    -0.317 N 
ATOM     15  C   UNL     1       0.466   1.323  -2.253  0.00  0.00    +0.106 C 
ATOM     16  C   UNL     1       1.766   1.740  -1.511  0.00  0.00    +0.021 C 
ATOM     17  C   UNL     1       1.418   1.628  -0.003  0.00  0.00    +0.033 C 
ATOM     18  H   UNL     1      -2.846   1.901   1.560  0.00  0.00    +0.155 HD
ENDBRANCH   2   9
ENDBRANCH   1   2
BRANCH   1  19
ATOM     19  C   UNL     1      -7.514  -1.603  -3.006  0.00  0.00    +0.328 C 
BRANCH  19  20
ATOM     20  C   UNL     1      -7.809  -2.101  -4.398  0.00  0.00    +0.255 C 
ATOM     21  O   UNL     1      -6.968  -2.007  -5.267  0.00  0.00    -0.272 OA
ATOM     22  N   UNL     1      -9.007  -2.651  -4.677  0.00  0.00    -0.276 N 
ATOM     23  H   UNL     1      -9.680  -2.726  -3.982  0.00  0.00    +0.155 HD
BRANCH  22  24
ATOM     24  C   UNL     1      -9.279  -3.109  -5.959  0.00  0.00    +0.090 A 
ATOM     25  C   UNL     1     -10.437  -3.703  -6.434  0.00  0.00    +0.084 A 
ATOM     26  C   UNL     1     -10.474  -4.092  -7.836  0.00  0.00    -0.018 A 
ATOM     27  C   UNL     1      -9.340  -3.839  -8.527  0.00  0.00    -0.004 A 
ATOM     28  S   UNL     1      -8.249  -3.085  -7.351  0.00  0.00    -0.077 S 
ATOM     29  C   UNL     1      -9.059  -4.142  -9.965  0.00  0.00    +0.043 C 
ATOM     30  C   UNL     1     -10.227  -3.643 -10.826  0.00  0.00    +0.005 C 
ATOM     31  C   UNL     1     -11.254  -4.765 -10.943  0.00  0.00    +0.001 C 
ATOM     32  C   UNL     1     -11.273  -5.596  -9.661  0.00  0.00    +0.005 C 
ATOM     33  C   UNL     1     -11.697  -4.736  -8.476  0.00  0.00    +0.037 C 
BRANCH  25  34
ATOM     34  C   UNL     1     -11.561  -3.922  -5.575  0.00  0.00    +0.102 C 
ATOM     35  N   UNL     1     -12.454  -4.097  -4.893  0.00  0.00    -0.191 NA
ENDBRANCH  25  34
ENDBRANCH  22  24
ENDBRANCH  19  20
ENDBRANCH   1  19
TORSDOF 6
