REMARK  Name = ZINC39597476
REMARK  11 active torsions:
REMARK  status: ('A' for Active; 'I' for Inactive)
REMARK    1  A    between atoms: C_1  and  C_2
REMARK    2  A    between atoms: C_2  and  C_3
REMARK    3  A    between atoms: C_2  and  C_4
REMARK    4  A    between atoms: C_4  and  C_6
REMARK    5  A    between atoms: C_4  and  O_31
REMARK    6  A    between atoms: C_10  and  C_19
REMARK    7  A    between atoms: N_21  and  C_22
REMARK    8  A    between atoms: C_22  and  C_23
REMARK    9  A    between atoms: C_28  and  O_29
REMARK   10  A    between atoms: O_29  and  C_30
REMARK   11  A    between atoms: O_31  and  C_32
REMARK                            x       y       z     vdW  Elec       q    Type
REMARK                         _______ _______ _______ _____ _____    ______ ____
ROOT
ATOM      1  C   UNL     1      -2.007  -0.050  -1.128  0.00  0.00    +0.257 C 
ATOM      2  O   UNL     1      -2.981   0.660  -0.996  0.00  0.00    -0.272 OA
ATOM      3  N   UNL     1      -1.665  -0.505  -2.350  0.00  0.00    -0.297 N 
ATOM      4  C   UNL     1      -0.524  -1.380  -2.707  0.00  0.00    +0.121 C 
ATOM      5  C   UNL     1      -1.088  -2.340  -3.779  0.00  0.00    +0.100 C 
ATOM      6  C   UNL     1      -2.283  -1.588  -4.389  0.00  0.00    -0.004 C 
ATOM      7  C   UNL     1      -2.352  -0.250  -3.639  0.00  0.00    +0.115 C 
ATOM      8  C   UNL     1      -2.053  -1.350  -5.878  0.00  0.00    -0.010 C 
ATOM      9  C   UNL     1      -3.280  -0.654  -6.474  0.00  0.00    -0.082 C 
ATOM     10  N   UNL     1      -4.468  -1.491  -6.269  0.00  0.00    +0.379 N 
ATOM     11  C   UNL     1      -4.736  -1.638  -4.834  0.00  0.00    -0.082 C 
ATOM     12  C   UNL     1      -3.571  -2.377  -4.168  0.00  0.00    -0.010 C 
ATOM     13  H   UNL     1      -5.263  -1.059  -6.716  0.00  0.00    -0.086 HD
ATOM     14  H   UNL     1      -4.311  -2.401  -6.676  0.00  0.00    -0.086 HD
ENDROOT
BRANCH   5  15
ATOM     15  C   UNL     1      -0.047  -2.619  -4.832  0.00  0.00    +0.218 C 
ATOM     16  O   UNL     1       0.831  -1.810  -5.047  0.00  0.00    -0.275 OA
ATOM     17  N   UNL     1      -0.093  -3.768  -5.537  0.00  0.00    -0.311 N 
ATOM     18  H   UNL     1      -0.795  -4.414  -5.365  0.00  0.00    +0.149 HD
BRANCH  17  19
ATOM     19  C   UNL     1       0.919  -4.039  -6.561  0.00  0.00    +0.143 C 
BRANCH  19  20
ATOM     20  C   UNL     1       0.644  -5.378  -7.196  0.00  0.00    +0.011 A 
ATOM     21  C   UNL     1       1.359  -6.492  -6.797  0.00  0.00    +0.009 A 
ATOM     22  C   UNL     1       1.107  -7.720  -7.380  0.00  0.00    +0.001 A 
ATOM     23  C   UNL     1       0.141  -7.838  -8.361  0.00  0.00    +0.004 A 
ATOM     24  C   UNL     1      -0.577  -6.728  -8.763  0.00  0.00    +0.046 A 
ATOM     25  C   UNL     1      -0.330  -5.495  -8.176  0.00  0.00    +0.125 A 
BRANCH  25  26
ATOM     26  O   UNL     1      -1.038  -4.402  -8.566  0.00  0.00    -0.495 OA
ATOM     27  C   UNL     1      -2.025  -4.596  -9.580  0.00  0.00    +0.277 C 
ENDBRANCH  25  26
ENDBRANCH  19  20
ENDBRANCH  17  19
ENDBRANCH   5  15
BRANCH   1  28
ATOM     28  C   UNL     1      -1.177  -0.422   0.073  0.00  0.00    +0.261 C 
BRANCH  28  30
ATOM     29  C   UNL     1       0.119   1.712  -0.029  0.00  0.00    +0.011 C 
ATOM     30  C   UNL     1       0.221   0.185  -0.064  0.00  0.00    +0.033 C 
ATOM     31  C   UNL     1       1.101  -0.294   1.092  0.00  0.00    +0.011 C 
ENDBRANCH  28  30
BRANCH  28  32
ATOM     32  O   UNL     1      -1.800   0.081   1.257  0.00  0.00    -0.479 OA
BRANCH  32  33
ATOM     33  C   UNL     1      -1.766  -0.715   2.358  0.00  0.00    +0.122 A 
ATOM     34  C   UNL     1      -2.456  -0.346   3.504  0.00  0.00    +0.045 A 
ATOM     35  C   UNL     1      -2.420  -1.157   4.621  0.00  0.00    +0.004 A 
ATOM     36  C   UNL     1      -1.698  -2.336   4.599  0.00  0.00    +0.000 A 
ATOM     37  C   UNL     1      -1.009  -2.706   3.458  0.00  0.00    +0.004 A 
ATOM     38  C   UNL     1      -1.047  -1.901   2.336  0.00  0.00    +0.045 A 
ENDBRANCH  32  33
ENDBRANCH  28  32
ENDBRANCH   1  28
TORSDOF 8
