REMARK  Name = ZINC39596615
REMARK  7 active torsions:
REMARK  status: ('A' for Active; 'I' for Inactive)
REMARK    1  A    between atoms: C_1  and  C_2
REMARK    2  A    between atoms: C_2  and  C_4
REMARK    3  A    between atoms: C_2  and  O_30
REMARK    4  A    between atoms: C_4  and  N_5
REMARK    5  A    between atoms: C_6  and  C_8
REMARK    6  A    between atoms: C_19  and  C_21
REMARK    7  A    between atoms: O_30  and  C_31
REMARK                            x       y       z     vdW  Elec       q    Type
REMARK                         _______ _______ _______ _____ _____    ______ ____
ROOT
ATOM      1  C   UNL     1       1.661  -4.296  -2.671  0.00  0.00    +0.100 C 
ATOM      2  C   UNL     1       0.293  -4.934  -3.006  0.00  0.00    +0.121 C 
ATOM      3  N   UNL     1       0.289  -5.053  -4.483  0.00  0.00    -0.296 N 
ATOM      4  C   UNL     1       1.673  -5.460  -4.825  0.00  0.00    +0.115 C 
ATOM      5  C   UNL     1       2.564  -4.647  -3.865  0.00  0.00    -0.004 C 
ATOM      6  C   UNL     1       3.748  -5.490  -3.402  0.00  0.00    -0.010 C 
ATOM      7  C   UNL     1       4.662  -5.777  -4.596  0.00  0.00    -0.082 C 
ATOM      8  N   UNL     1       5.133  -4.511  -5.170  0.00  0.00    +0.379 N 
ATOM      9  C   UNL     1       3.995  -3.747  -5.697  0.00  0.00    -0.082 C 
ATOM     10  C   UNL     1       3.052  -3.374  -4.549  0.00  0.00    -0.010 C 
ATOM     11  C   UNL     1      -0.742  -4.839  -5.326  0.00  0.00    +0.252 C 
ATOM     12  O   UNL     1      -0.587  -4.980  -6.524  0.00  0.00    -0.270 OA
ATOM     13  H   UNL     1       5.596  -3.970  -4.455  0.00  0.00    -0.086 HD
ATOM     14  H   UNL     1       5.782  -4.702  -5.918  0.00  0.00    -0.086 HD
ENDROOT
BRANCH  11  15
ATOM     15  C   UNL     1      -2.058  -4.435  -4.795  0.00  0.00    +0.108 A 
ATOM     16  C   UNL     1      -2.368  -3.079  -4.642  0.00  0.00    +0.138 A 
ATOM     17  C   UNL     1      -3.603  -2.709  -4.144  0.00  0.00    +0.041 A 
ATOM     18  C   UNL     1      -4.531  -3.674  -3.797  0.00  0.00    +0.026 A 
ATOM     19  C   UNL     1      -4.233  -5.017  -3.944  0.00  0.00    +0.077 A 
ATOM     20  C   UNL     1      -3.003  -5.405  -4.446  0.00  0.00    +0.156 A 
ATOM     21  F   UNL     1      -2.715  -6.716  -4.595  0.00  0.00    -0.203 F 
ATOM     22 CL   UNL     1      -5.406  -6.218  -3.504  0.00  0.00    -0.081 Cl
ATOM     23  F   UNL     1      -1.463  -2.135  -4.980  0.00  0.00    -0.205 F 
ENDBRANCH  11  15
BRANCH   1  25
ATOM     24  N   UNL     1       2.361  -2.118  -1.732  0.00  0.00    -0.312 N 
ATOM     25  C   UNL     1       1.524  -2.801  -2.537  0.00  0.00    +0.218 C 
ATOM     26  O   UNL     1       0.661  -2.214  -3.155  0.00  0.00    -0.275 OA
ATOM     27  H   UNL     1       3.051  -2.588  -1.238  0.00  0.00    +0.149 HD
BRANCH  24  28
ATOM     28  C   UNL     1       2.228  -0.664  -1.602  0.00  0.00    +0.148 C 
BRANCH  28  30
ATOM     29  C   UNL     1       3.075   1.357  -0.403  0.00  0.00    +0.053 C 
ATOM     30  C   UNL     1       3.291  -0.139  -0.635  0.00  0.00    +0.187 C 
BRANCH  30  31
ATOM     31  O   UNL     1       4.590  -0.352  -1.194  0.00  0.00    -0.488 OA
BRANCH  31  32
ATOM     32  C   UNL     1       5.631  -0.429  -0.323  0.00  0.00    +0.121 A 
ATOM     33  C   UNL     1       5.424  -0.196   1.029  0.00  0.00    +0.048 A 
ATOM     34  C   UNL     1       6.483  -0.275   1.912  0.00  0.00    +0.042 A 
ATOM     35  C   UNL     1       7.750  -0.585   1.449  0.00  0.00    +0.124 A 
ATOM     36  C   UNL     1       7.958  -0.817   0.100  0.00  0.00    +0.042 A 
ATOM     37  C   UNL     1       6.900  -0.746  -0.785  0.00  0.00    +0.048 A 
ATOM     38  F   UNL     1       8.785  -0.661   2.314  0.00  0.00    -0.205 F 
ENDBRANCH  31  32
ENDBRANCH  30  31
ENDBRANCH  28  30
ENDBRANCH  24  28
ENDBRANCH   1  25
TORSDOF 6
