REMARK  Name = ZINC52550847
REMARK  9 active torsions:
REMARK  status: ('A' for Active; 'I' for Inactive)
REMARK    1  A    between atoms: C_1  and  C_2
REMARK    2  A    between atoms: C_11  and  N_12
REMARK    3  A    between atoms: N_12  and  C_13
REMARK    4  A    between atoms: C_16  and  C_24
REMARK    5  A    between atoms: C_21  and  C_22
REMARK    6  A    between atoms: C_27  and  C_30
REMARK    7  A    between atoms: C_30  and  N_31
REMARK    8  A    between atoms: N_31  and  C_32
REMARK    9  A    between atoms: N_31  and  C_33
REMARK                            x       y       z     vdW  Elec       q    Type
REMARK                         _______ _______ _______ _____ _____    ______ ____
ROOT
ATOM      1  C   UNL     1       2.305   0.615   2.978  0.00  0.00    +0.060 A 
ATOM      2  C   UNL     1       1.920   1.008   4.290  0.00  0.00    +0.031 A 
ATOM      3  C   UNL     1       0.972   2.032   4.688  0.00  0.00    +0.027 A 
ATOM      4  C   UNL     1       0.752   2.244   6.012  0.00  0.00    +0.019 A 
ATOM      5  S   UNL     1       1.824   1.060   6.803  0.00  0.00    -0.069 S 
ATOM      6  C   UNL     1       2.536   0.316   5.356  0.00  0.00    +0.111 A 
ATOM      7  N   UNL     1       3.421  -0.643   5.171  0.00  0.00    -0.246 NA
ATOM      8  C   UNL     1       3.793  -1.023   3.967  0.00  0.00    +0.132 A 
ATOM      9  C   UNL     1       3.245  -0.414   2.832  0.00  0.00    +0.092 A 
ENDROOT
BRANCH   4  10
ATOM     10  C   UNL     1      -0.152   3.216   6.640  0.00  0.00    -0.026 C 
ATOM     11  C   UNL     1      -1.478   3.110   6.478  0.00  0.00    +0.045 C 
ATOM     12  S   UNL     1      -2.186   4.477   7.378  0.00  0.00    -0.131 S 
ATOM     13  C   UNL     1      -0.651   5.462   7.640  0.00  0.00    +0.039 C 
ATOM     14  C   UNL     1       0.397   4.329   7.472  0.00  0.00    +0.049 C 
BRANCH  13  15
ATOM     15  C   UNL     1      -0.604   6.062   9.046  0.00  0.00    -0.065 C 
BRANCH  15  16
ATOM     16  N   UNL     1      -1.575   7.160   9.143  0.00  0.00    +0.377 N 
ATOM     17  C   UNL     1      -1.627   7.647  10.528  0.00  0.00    -0.097 C 
ATOM     18  C   UNL     1      -1.164   8.255   8.254  0.00  0.00    -0.097 C 
ATOM     19  H   UNL     1      -2.487   6.828   8.868  0.00  0.00    -0.083 HD
ENDBRANCH  15  16
ENDBRANCH  13  15
ENDBRANCH   4  10
BRANCH   1  20
ATOM     20  N   UNL     1       1.758   1.234   1.867  0.00  0.00    -0.313 N 
ATOM     21  H   UNL     1       1.081   0.779   1.342  0.00  0.00    +0.152 HD
BRANCH  20  32
ATOM     22  C   UNL     1       0.524   2.461  -0.377  0.00  0.00    +0.046 C 
ATOM     23  C   UNL     1       1.607   3.148   0.413  0.00  0.00    -0.020 A 
ATOM     24  C   UNL     1       2.031   4.430   0.057  0.00  0.00    +0.004 A 
ATOM     25  C   UNL     1       1.649   5.369  -1.001  0.00  0.00    +0.028 A 
ATOM     26  C   UNL     1       2.411   6.464  -0.848  0.00  0.00    +0.083 A 
ATOM     27  N   UNL     1       3.250   6.303   0.221  0.00  0.00    -0.361 N 
ATOM     28  H   UNL     1       3.894   6.960   0.527  0.00  0.00    +0.165 HD
ATOM     29  C   UNL     1       3.042   5.068   0.797  0.00  0.00    +0.047 A 
ATOM     30  C   UNL     1       3.614   4.413   1.884  0.00  0.00    +0.028 A 
ATOM     31  C   UNL     1       3.189   3.150   2.228  0.00  0.00    +0.025 A 
ATOM     32  C   UNL     1       2.183   2.517   1.500  0.00  0.00    +0.035 A 
ENDBRANCH  20  32
ENDBRANCH   1  20
BRANCH   9  33
ATOM     33  C   UNL     1       3.649  -0.836   1.524  0.00  0.00    +0.103 C 
ATOM     34  N   UNL     1       3.970  -1.171   0.487  0.00  0.00    -0.191 NA
ENDBRANCH   9  33
TORSDOF 6
