REMARK  Name = ZINC11990665
REMARK  3 active torsions:
REMARK  status: ('A' for Active; 'I' for Inactive)
REMARK    1  A    between atoms: C_5  and  C_7
REMARK    2  A    between atoms: C_7  and  C_8
REMARK    3  A    between atoms: N_14  and  C_15
REMARK                            x       y       z     vdW  Elec       q    Type
REMARK                         _______ _______ _______ _____ _____    ______ ____
ROOT
ATOM      1  C   UNL     1       1.133  -2.712   1.067  0.00  0.00    +0.144 C 
ATOM      2  C   UNL     1       0.996  -4.216   0.890  0.00  0.00    +0.232 C 
ATOM      3  O   UNL     1       1.665  -4.835   0.089  0.00  0.00    -0.274 OA
ATOM      4  N   UNL     1       0.101  -4.807   1.663  0.00  0.00    -0.264 N 
ATOM      5  C   UNL     1      -0.663  -4.117   2.572  0.00  0.00    +0.164 C 
ATOM      6  N   UNL     1      -1.582  -4.593   3.393  0.00  0.00    -0.193 NA
ATOM      7  S   UNL     1      -0.120  -2.424   2.384  0.00  0.00    -0.077 S 
ATOM      8  H   UNL     1      -0.022  -5.766   1.585  0.00  0.00    +0.157 HD
ENDROOT
BRANCH   6   9
ATOM      9  C   UNL     1      -1.784  -5.918   3.480  0.00  0.00    +0.195 C 
ATOM     10  N   UNL     1      -3.031  -6.404   3.525  0.00  0.00    -0.370 N 
ATOM     11  N   UNL     1      -0.738  -6.753   3.522  0.00  0.00    -0.370 N 
ATOM     12  H   UNL     1      -3.788  -5.799   3.494  0.00  0.00    +0.159 HD
ATOM     13  H   UNL     1       0.163  -6.399   3.575  0.00  0.00    +0.159 HD
ATOM     14  H   UNL     1      -0.882  -7.712   3.499  0.00  0.00    +0.159 HD
ATOM     15  H   UNL     1      -3.176  -7.361   3.587  0.00  0.00    +0.159 HD
ENDBRANCH   6   9
BRANCH   1  16
ATOM     16  C   UNL     1       0.769  -1.966  -0.218  0.00  0.00    +0.060 C 
BRANCH  16  21
ATOM     17  C   UNL     1       0.024   1.653   0.555  0.00  0.00    +0.000 A 
ATOM     18  C   UNL     1       1.267   2.234   0.383  0.00  0.00    +0.001 A 
ATOM     19  C   UNL     1       2.349   1.456   0.017  0.00  0.00    +0.020 A 
ATOM     20  C   UNL     1       2.189   0.096  -0.178  0.00  0.00    +0.044 A 
ATOM     21  C   UNL     1       0.945  -0.485  -0.005  0.00  0.00    -0.028 A 
ATOM     22  C   UNL     1      -0.137   0.294   0.360  0.00  0.00    +0.005 A 
ATOM     23 CL   UNL     1       3.547  -0.882  -0.638  0.00  0.00    -0.083 Cl
ENDBRANCH  16  21
ENDBRANCH   1  16
TORSDOF 3
