REMARK  Name = ZINC12343212
REMARK  5 active torsions:
REMARK  status: ('A' for Active; 'I' for Inactive)
REMARK    1  A    between atoms: C_1  and  C_2
REMARK    2  A    between atoms: C_2  and  C_13
REMARK    3  A    between atoms: N_3  and  N_4
REMARK    4  A    between atoms: C_5  and  C_7
REMARK    5  A    between atoms: C_17  and  N_19
REMARK                            x       y       z     vdW  Elec       q    Type
REMARK                         _______ _______ _______ _____ _____    ______ ____
ROOT
ATOM      1  C   UNL     1       1.235   6.091   0.023  0.00  0.00    +0.068 C 
ATOM      2  C   UNL     1      -0.063   5.325   0.030  0.00  0.00    +0.063 C 
ATOM      3  N   UNL     1      -1.193   5.963   0.044  0.00  0.00    -0.184 NA
ENDROOT
BRANCH   2   4
ATOM      4  C   UNL     1      -0.049   3.850   0.022  0.00  0.00    -0.001 A 
ATOM      5  C   UNL     1       1.167   3.160   0.007  0.00  0.00    +0.010 A 
ATOM      6  C   UNL     1       1.177   1.781   0.000  0.00  0.00    +0.002 A 
ATOM      7  C   UNL     1      -0.013   1.076   0.008  0.00  0.00    +0.023 A 
ATOM      8  C   UNL     1      -1.227   1.752   0.017  0.00  0.00    +0.025 A 
ATOM      9  C   UNL     1      -1.249   3.138   0.030  0.00  0.00    +0.032 A 
BRANCH   8  10
ATOM     10  N   UNL     1      -2.426   1.034   0.020  0.00  0.00    -0.358 N 
ATOM     11  H   UNL     1      -2.411   0.065   0.015  0.00  0.00    +0.142 HD
ATOM     12  H   UNL     1      -3.273   1.506   0.026  0.00  0.00    +0.142 HD
ENDBRANCH   8  10
ENDBRANCH   2   4
BRANCH   3  13
ATOM     13  N   UNL     1      -1.206   7.364   0.052  0.00  0.00    -0.200 N 
ATOM     14  C   UNL     1      -2.380   8.026   0.066  0.00  0.00    +0.299 C 
ATOM     15  O   UNL     1      -3.428   7.407   0.072  0.00  0.00    -0.265 OA
ATOM     16  H   UNL     1      -0.371   7.857   0.047  0.00  0.00    +0.178 HD
BRANCH  14  17
ATOM     17  C   UNL     1      -2.394   9.491   0.074  0.00  0.00    +0.192 A 
ATOM     18  C   UNL     1      -3.507  10.283   0.088  0.00  0.00    +0.056 A 
ATOM     19  C   UNL     1      -3.057  11.612   0.092  0.00  0.00    +0.058 A 
ATOM     20  C   UNL     1      -1.705  11.575   0.080  0.00  0.00    +0.171 A 
ATOM     21  O   UNL     1      -1.309  10.294   0.074  0.00  0.00    -0.444 OA
ATOM     22 BR   UNL     1      -0.561  13.081   0.079  0.00  0.00    -0.008 Br
ENDBRANCH  14  17
ENDBRANCH   3  13
TORSDOF 4
