REMARK  Name = ZINC38819141
REMARK  4 active torsions:
REMARK  status: ('A' for Active; 'I' for Inactive)
REMARK    1  A    between atoms: C_6  and  C_10
REMARK    2  A    between atoms: C_11  and  N_26
REMARK    3  A    between atoms: N_12  and  C_16
REMARK    4  A    between atoms: C_20  and  N_22
REMARK                            x       y       z     vdW  Elec       q    Type
REMARK                         _______ _______ _______ _____ _____    ______ ____
ROOT
ATOM      1  C   UNL     1       3.547  -2.757  -1.289  0.00  0.00    +0.074 C 
ATOM      2  C   UNL     1       4.335  -3.884  -1.290  0.00  0.00    +0.099 C 
ATOM      3  N   UNL     1       4.575  -4.331  -2.558  0.00  0.00    -0.281 N 
ATOM      4  C   UNL     1       3.887  -3.421  -3.485  0.00  0.00    +0.191 C 
ATOM      5  C   UNL     1       3.216  -2.399  -2.591  0.00  0.00    +0.183 C 
ATOM      6  O   UNL     1       2.531  -1.456  -2.941  0.00  0.00    -0.290 OA
ENDROOT
BRANCH   1  12
ATOM      7  C   UNL     1      -0.016   1.360  -0.024  0.00  0.00    +0.002 A 
ATOM      8  C   UNL     1       1.151   2.144  -0.071  0.00  0.00    +0.002 A 
ATOM      9  C   UNL     1       2.387   1.607  -0.097  0.00  0.00    +0.027 A 
ATOM     10  C   UNL     1       2.543   0.146  -0.076  0.00  0.00    +0.060 A 
ATOM     11  N   UNL     1       3.586  -0.633  -0.092  0.00  0.00    -0.359 N 
ATOM     12  C   UNL     1       3.102  -2.018  -0.054  0.00  0.00    +0.212 C 
ATOM     13  N   UNL     1       1.636  -1.944  -0.013  0.00  0.00    -0.359 N 
ATOM     14  C   UNL     1       1.308  -0.684  -0.025  0.00  0.00    +0.060 A 
ATOM     15  C   UNL     1       0.015   0.013  -0.001  0.00  0.00    +0.027 A 
ATOM     16  H   UNL     1       4.513  -0.350  -0.124  0.00  0.00    +0.162 HD
ATOM     17  H   UNL     1       1.024  -2.695   0.018  0.00  0.00    +0.162 HD
ENDBRANCH   1  12
BRANCH   3  18
ATOM     18  C   UNL     1       5.337  -5.450  -2.910  0.00  0.00    +0.038 A 
ATOM     19  C   UNL     1       4.894  -6.725  -2.581  0.00  0.00    +0.025 A 
ATOM     20  C   UNL     1       5.648  -7.828  -2.930  0.00  0.00    +0.024 A 
ATOM     21  C   UNL     1       6.844  -7.664  -3.608  0.00  0.00    +0.071 A 
ATOM     22  C   UNL     1       7.287  -6.395  -3.937  0.00  0.00    +0.146 A 
ATOM     23  C   UNL     1       6.534  -5.289  -3.595  0.00  0.00    +0.057 A 
ATOM     24 CL   UNL     1       7.789  -9.053  -4.045  0.00  0.00    -0.081 Cl
BRANCH  22  25
ATOM     25  N   UNL     1       8.566  -6.224  -4.662  0.00  0.00    +0.058 N 
ATOM     26  O   UNL     1       8.954  -5.116  -4.949  0.00  0.00    -0.126 OA
ATOM     27  O   UNL     1       9.223  -7.192  -4.965  0.00  0.00    -0.126 OA
ENDBRANCH  22  25
ENDBRANCH   3  18
BRANCH   2  28
ATOM     28  N   UNL     1       4.819  -4.485  -0.159  0.00  0.00    -0.346 N 
ATOM     29  H   UNL     1       4.672  -4.075   0.708  0.00  0.00    +0.143 HD
ATOM     30  H   UNL     1       5.307  -5.320  -0.224  0.00  0.00    +0.143 HD
ENDBRANCH   2  28
TORSDOF 4
