REMARK  Name = ZINC67187747
REMARK  8 active torsions:
REMARK  status: ('A' for Active; 'I' for Inactive)
REMARK    1  A    between atoms: C_1  and  C_2
REMARK    2  A    between atoms: C_3  and  C_11
REMARK    3  A    between atoms: C_4  and  C_10
REMARK    4  A    between atoms: N_5  and  C_7
REMARK    5  A    between atoms: C_7  and  C_8
REMARK    6  A    between atoms: C_8  and  O_9
REMARK    7  A    between atoms: C_11  and  N_12
REMARK    8  A    between atoms: N_12  and  C_13
REMARK                            x       y       z     vdW  Elec       q    Type
REMARK                         _______ _______ _______ _____ _____    ______ ____
ROOT
ATOM      1  C   UNL     1      -0.005  -0.210  -2.533  0.00  0.00    -0.042 C 
ENDROOT
BRANCH   1   4
ATOM      2  C   UNL     1       0.082   2.040  -0.303  0.00  0.00    +0.068 C 
ATOM      3  C   UNL     1       0.049   0.553  -0.059  0.00  0.00    +0.062 A 
ATOM      4  C   UNL     1       0.011  -0.440  -1.044  0.00  0.00    -0.021 A 
ATOM      5  C   UNL     1      -0.009  -1.642  -0.423  0.00  0.00    +0.038 A 
ATOM      6  N   UNL     1       0.015  -1.418   0.907  0.00  0.00    -0.266 N 
ATOM      7  N   UNL     1       0.057  -0.033   1.111  0.00  0.00    -0.176 NA
ATOM      8  C   UNL     1      -0.052  -2.989  -1.097  0.00  0.00    +0.065 C 
BRANCH   6   9
ATOM      9  C   UNL     1       0.005  -2.443   1.954  0.00  0.00    +0.171 C 
BRANCH   9  10
ATOM     10  C   UNL     1       1.444  -2.835   2.298  0.00  0.00    +0.179 C 
BRANCH  10  11
ATOM     11  O   UNL     1       1.434  -3.834   3.319  0.00  0.00    -0.393 OA
ATOM     12  H   UNL     1       2.314  -4.131   3.587  0.00  0.00    +0.209 HD
ENDBRANCH  10  11
ENDBRANCH   9  10
ENDBRANCH   6   9
ENDBRANCH   1   4
BRANCH   1  13
ATOM     13  N   UNL     1       1.374  -0.169  -3.038  0.00  0.00    +0.386 N 
ATOM     14  H   UNL     1       1.899   0.525  -2.527  0.00  0.00    -0.085 HD
ATOM     15  H   UNL     1       1.804  -1.074  -2.914  0.00  0.00    -0.085 HD
BRANCH  13  16
ATOM     16  C   UNL     1       1.364   0.178  -4.465  0.00  0.00    -0.037 C 
ATOM     17  C   UNL     1       0.713  -0.957  -5.267  0.00  0.00    -0.011 C 
ATOM     18  C   UNL     1       0.942  -0.718  -6.763  0.00  0.00    +0.006 C 
ATOM     19  C   UNL     1       2.424  -0.932  -7.095  0.00  0.00    +0.074 C 
ATOM     20  C   UNL     1       3.252  -0.135  -6.118  0.00  0.00    +0.106 A 
ATOM     21  C   UNL     1       2.777   0.357  -4.954  0.00  0.00    -0.020 A 
ATOM     22  C   UNL     1       3.836   1.038  -4.327  0.00  0.00    +0.043 A 
ATOM     23  C   UNL     1       4.903   0.926  -5.143  0.00  0.00    +0.195 A 
ATOM     24  O   UNL     1       4.540   0.211  -6.225  0.00  0.00    -0.468 OA
ENDBRANCH  13  16
ENDBRANCH   1  13
TORSDOF 6
