REMARK  Name = ZINC44559692
REMARK  7 active torsions:
REMARK  status: ('A' for Active; 'I' for Inactive)
REMARK    1  A    between atoms: C_1  and  N_2
REMARK    2  A    between atoms: C_14  and  N_22
REMARK    3  A    between atoms: N_17  and  C_21
REMARK    4  A    between atoms: N_22  and  S_23
REMARK    5  A    between atoms: S_23  and  N_26
REMARK    6  A    between atoms: N_26  and  C_27
REMARK    7  A    between atoms: N_26  and  C_28
REMARK                            x       y       z     vdW  Elec       q    Type
REMARK                         _______ _______ _______ _____ _____    ______ ____
ROOT
ATOM      1  C   UNL     1      -0.018   1.461   0.010  0.00  0.00    +0.149 C 
ATOM      2  N   UNL     1       0.002  -0.004   0.002  0.00  0.00    -0.349 N 
ATOM      3  C   UNL     1       0.008  -0.789  -1.141  0.00  0.00    +0.090 A 
ATOM      4  C   UNL     1       0.027  -2.073  -0.816  0.00  0.00    -0.023 A 
ATOM      5  C   UNL     1       0.029  -2.106   0.647  0.00  0.00    +0.006 A 
ATOM      6  C   UNL     1       0.023  -0.788   1.116  0.00  0.00    +0.049 A 
ATOM      7  C   UNL     1       0.038  -0.601   2.497  0.00  0.00    +0.026 A 
ATOM      8  C   UNL     1       0.057  -1.745   3.284  0.00  0.00    +0.002 A 
ATOM      9  C   UNL     1       0.061  -3.044   2.777  0.00  0.00    +0.004 A 
ATOM     10  C   UNL     1       0.039  -3.259   1.435  0.00  0.00    -0.036 A 
ATOM     11  C   UNL     1       0.030  -4.568   0.706  0.00  0.00    +0.008 C 
ATOM     12  C   UNL     1       0.774  -5.619   1.536  0.00  0.00    +0.025 C 
ATOM     13  C   UNL     1       0.798  -6.944   0.769  0.00  0.00    +0.062 C 
ATOM     14  C   UNL     1       1.450  -6.720  -0.598  0.00  0.00    -0.058 C 
ATOM     15  N   UNL     1       0.672  -5.732  -1.355  0.00  0.00    +0.381 N 
ATOM     16  C   UNL     1       0.717  -4.442  -0.654  0.00  0.00    -0.057 C 
ATOM     17  C   UNL     1       0.046  -3.380  -1.567  0.00  0.00    +0.022 C 
ATOM     18  C   UNL     1       1.251  -5.580  -2.696  0.00  0.00    -0.096 C 
ATOM     19  H   UNL     1      -0.282  -6.049  -1.437  0.00  0.00    -0.082 HD
ENDROOT
BRANCH  13  20
ATOM     20  N   UNL     1       1.569  -7.934   1.524  0.00  0.00    -0.178 NA
ATOM     21  H   UNL     1       2.343  -7.656   2.039  0.00  0.00    +0.149 HD
BRANCH  20  22
ATOM     22  S   UNL     1       1.120  -9.528   1.500  0.00  0.00    +0.097 S 
ATOM     23  O   UNL     1       2.066 -10.229   2.295  0.00  0.00    -0.141 OA
ATOM     24  O   UNL     1      -0.275  -9.561   1.770  0.00  0.00    -0.141 OA
BRANCH  22  25
ATOM     25  N   UNL     1       1.314 -10.068  -0.053  0.00  0.00    -0.173 NA
ATOM     26  C   UNL     1       2.593 -10.647  -0.473  0.00  0.00    +0.132 C 
ATOM     27  C   UNL     1       0.208  -9.966  -1.008  0.00  0.00    +0.132 C 
ENDBRANCH  22  25
ENDBRANCH  20  22
ENDBRANCH  13  20
TORSDOF 3
