REMARK  Name = ZINC43100425
REMARK  9 active torsions:
REMARK  status: ('A' for Active; 'I' for Inactive)
REMARK    1  A    between atoms: C_1  and  C_2
REMARK    2  A    between atoms: C_2  and  C_3
REMARK    3  A    between atoms: C_3  and  C_5
REMARK    4  A    between atoms: C_3  and  N_23
REMARK    5  A    between atoms: C_5  and  C_7
REMARK    6  A    between atoms: C_5  and  O_15
REMARK    7  A    between atoms: C_12  and  O_13
REMARK    8  A    between atoms: O_13  and  C_14
REMARK    9  A    between atoms: O_15  and  C_16
REMARK                            x       y       z     vdW  Elec       q    Type
REMARK                         _______ _______ _______ _____ _____    ______ ____
ROOT
ATOM      1  C   UNL     1       0.630  -1.973  -1.195  0.00  0.00    +0.138 C 
ENDROOT
BRANCH   1   2
ATOM      2  C   UNL     1       1.462  -2.369  -2.388  0.00  0.00    +0.021 A 
ATOM      3  C   UNL     1       2.803  -2.664  -2.228  0.00  0.00    +0.010 A 
ATOM      4  C   UNL     1       3.567  -3.027  -3.321  0.00  0.00    +0.001 A 
ATOM      5  C   UNL     1       2.992  -3.097  -4.577  0.00  0.00    +0.004 A 
ATOM      6  C   UNL     1       1.652  -2.804  -4.742  0.00  0.00    +0.046 A 
ATOM      7  C   UNL     1       0.882  -2.444  -3.645  0.00  0.00    +0.126 A 
BRANCH   7   8
ATOM      8  O   UNL     1      -0.438  -2.161  -3.804  0.00  0.00    -0.495 OA
ATOM      9  C   UNL     1      -0.968  -2.259  -5.127  0.00  0.00    +0.277 C 
ENDBRANCH   7   8
ENDBRANCH   1   2
BRANCH   1  10
ATOM     10  C   UNL     1       0.572  -0.447  -1.098  0.00  0.00    -0.041 C 
BRANCH  10  11
ATOM     11  N   UNL     1       1.933   0.086  -0.949  0.00  0.00    +0.382 N 
ATOM     12  H   UNL     1       2.488  -0.180  -1.748  0.00  0.00    -0.090 HD
ATOM     13  H   UNL     1       1.895   1.092  -0.884  0.00  0.00    -0.090 HD
ATOM     14  H   UNL     1       2.351  -0.289  -0.110  0.00  0.00    -0.090 HD
ENDBRANCH  10  11
BRANCH  10  16
ATOM     15  C   UNL     1      -0.441   1.475   0.134  0.00  0.00    +0.002 C 
ATOM     16  C   UNL     1      -0.269  -0.045   0.114  0.00  0.00    -0.017 C 
ENDBRANCH  10  16
ENDBRANCH   1  10
BRANCH   1  17
ATOM     17  O   UNL     1       1.218  -2.504  -0.006  0.00  0.00    -0.370 OA
BRANCH  17  18
ATOM     18  C   UNL     1       0.773  -3.821   0.324  0.00  0.00    +0.119 C 
ATOM     19  C   UNL     1      -0.528  -3.718   1.145  0.00  0.00    +0.031 C 
ATOM     20  C   UNL     1      -1.256  -5.032   1.055  0.00  0.00    +0.002 C 
ATOM     21  C   UNL     1      -0.926  -5.970   2.232  0.00  0.00    +0.000 C 
ATOM     22  C   UNL     1       0.570  -5.963   2.600  0.00  0.00    +0.000 C 
ATOM     23  C   UNL     1       1.461  -5.967   1.387  0.00  0.00    +0.002 C 
ATOM     24  C   UNL     1       1.833  -4.509   1.048  0.00  0.00    +0.031 C 
ENDBRANCH  17  18
ENDBRANCH   1  17
TORSDOF 7
