REMARK  Name = ZINC34912488
REMARK  7 active torsions:
REMARK  status: ('A' for Active; 'I' for Inactive)
REMARK    1  A    between atoms: C_1  and  C_2
REMARK    2  A    between atoms: C_7  and  C_12
REMARK    3  A    between atoms: C_8  and  N_11
REMARK    4  A    between atoms: C_15  and  O_20
REMARK    5  A    between atoms: C_16  and  O_18
REMARK    6  A    between atoms: O_18  and  C_19
REMARK    7  A    between atoms: O_20  and  C_21
REMARK                            x       y       z     vdW  Elec       q    Type
REMARK                         _______ _______ _______ _____ _____    ______ ____
ROOT
ATOM      1  C   UNL     1      -0.018   1.503   0.010  0.00  0.00    +0.045 C 
ATOM      2  C   UNL     1       0.002  -0.004   0.002  0.00  0.00    -0.034 A 
ATOM      3  C   UNL     1       0.006  -0.697  -1.222  0.00  0.00    +0.008 A 
ATOM      4  C   UNL     1       0.025  -2.056  -1.229  0.00  0.00    +0.045 A 
ATOM      5  C   UNL     1       0.040  -2.755  -0.003  0.00  0.00    +0.117 A 
ATOM      6  N   UNL     1       0.060  -4.047   0.278  0.00  0.00    -0.338 N 
ATOM      7  C   UNL     1       0.069  -4.211   1.613  0.00  0.00    +0.087 A 
ATOM      8  C   UNL     1       0.054  -2.962   2.197  0.00  0.00    +0.126 A 
ATOM      9  N   UNL     1       0.036  -2.050   1.179  0.00  0.00    -0.289 N 
ATOM     10  C   UNL     1       0.022  -0.681   1.168  0.00  0.00    +0.097 A 
ATOM     11  H   UNL     1       0.066  -4.764  -0.376  0.00  0.00    +0.167 HD
ENDROOT
BRANCH   7  12
ATOM     12  C   UNL     1       0.090  -5.508   2.331  0.00  0.00    +0.005 A 
ATOM     13  C   UNL     1      -0.760  -5.719   3.416  0.00  0.00    +0.014 A 
ATOM     14  C   UNL     1      -0.740  -6.927   4.084  0.00  0.00    +0.050 A 
ATOM     15  C   UNL     1       0.124  -7.932   3.678  0.00  0.00    +0.162 A 
ATOM     16  C   UNL     1       0.975  -7.727   2.595  0.00  0.00    +0.162 A 
ATOM     17  C   UNL     1       0.955  -6.520   1.919  0.00  0.00    +0.059 A 
BRANCH  16  18
ATOM     18  O   UNL     1       1.823  -8.714   2.200  0.00  0.00    -0.491 OA
ATOM     19  C   UNL     1       2.667  -8.435   1.081  0.00  0.00    +0.277 C 
ENDBRANCH  16  18
BRANCH  15  20
ATOM     20  O   UNL     1       0.141  -9.121   4.339  0.00  0.00    -0.491 OA
ATOM     21  C   UNL     1      -0.757  -9.263   5.441  0.00  0.00    +0.277 C 
ENDBRANCH  15  20
ENDBRANCH   7  12
BRANCH   8  22
ATOM     22  N   UNL     1       0.056  -2.683   3.565  0.00  0.00    -0.343 N 
ATOM     23  H   UNL     1       0.070  -3.409   4.208  0.00  0.00    +0.144 HD
ATOM     24  H   UNL     1       0.045  -1.763   3.872  0.00  0.00    +0.144 HD
ENDBRANCH   8  22
TORSDOF 4
