REMARK  Name = ZINC38783583
REMARK  5 active torsions:
REMARK  status: ('A' for Active; 'I' for Inactive)
REMARK    1  A    between atoms: C_7  and  C_10
REMARK    2  A    between atoms: C_10  and  C_11
REMARK    3  A    between atoms: C_11  and  C_12
REMARK    4  A    between atoms: C_12  and  C_13
REMARK    5  A    between atoms: N_15  and  C_16
REMARK                            x       y       z     vdW  Elec       q    Type
REMARK                         _______ _______ _______ _____ _____    ______ ____
ROOT
ATOM      1  C   UNL     1      -5.063   5.629  -2.773  0.00  0.00    +0.215 C 
ATOM      2  O   UNL     1      -4.714   4.927  -3.699  0.00  0.00    -0.276 OA
ATOM      3  N   UNL     1      -5.521   6.875  -3.008  0.00  0.00    -0.288 N 
ATOM      4  H   UNL     1      -5.800   7.436  -2.268  0.00  0.00    +0.151 HD
ENDROOT
BRANCH   3   5
ATOM      5  C   UNL     1      -5.596   7.381  -4.380  0.00  0.00    +0.224 C 
ATOM      6  N   UNL     1      -6.366   8.631  -4.441  0.00  0.00    -0.316 N 
ATOM      7  C   UNL     1      -5.703   9.776  -4.880  0.00  0.00    +0.043 A 
ATOM      8  C   UNL     1      -6.274  11.055  -5.004  0.00  0.00    +0.024 A 
ATOM      9  C   UNL     1      -5.533  12.126  -5.448  0.00  0.00    +0.002 A 
ATOM     10  C   UNL     1      -4.201  11.980  -5.788  0.00  0.00    +0.001 A 
ATOM     11  C   UNL     1      -3.612  10.731  -5.676  0.00  0.00    +0.016 A 
ATOM     12  C   UNL     1      -4.355   9.661  -5.232  0.00  0.00    +0.032 A 
ATOM     13  S   UNL     1      -3.950   7.948  -4.967  0.00  0.00    -0.082 S 
ATOM     14  H   UNL     1      -7.302   8.658  -4.186  0.00  0.00    +0.149 HD
ENDBRANCH   3   5
BRANCH   1  15
ATOM     15  C   UNL     1      -4.986   5.108  -1.361  0.00  0.00    +0.096 C 
BRANCH  15  16
ATOM     16  C   UNL     1      -4.437   3.680  -1.374  0.00  0.00    +0.014 C 
BRANCH  16  17
ATOM     17  C   UNL     1      -4.358   3.151   0.060  0.00  0.00    +0.038 C 
BRANCH  17  24
ATOM     18  C   UNL     1      -0.017   1.384   0.010  0.00  0.00    +0.001 A 
ATOM     19  C   UNL     1       0.002  -0.004   0.002  0.00  0.00    +0.002 A 
ATOM     20  C   UNL     1      -1.173  -0.723   0.009  0.00  0.00    +0.026 A 
ATOM     21  C   UNL     1      -2.392  -0.053   0.024  0.00  0.00    +0.047 A 
ATOM     22  N   UNL     1      -3.704  -0.472   0.034  0.00  0.00    -0.360 N 
ATOM     23  C   UNL     1      -4.539   0.612   0.047  0.00  0.00    +0.087 A 
ATOM     24  C   UNL     1      -3.818   1.744   0.047  0.00  0.00    -0.022 A 
ATOM     25  C   UNL     1      -2.406   1.353   0.032  0.00  0.00    +0.003 A 
ATOM     26  C   UNL     1      -1.203   2.062   0.030  0.00  0.00    +0.010 A 
ATOM     27  H   UNL     1      -3.993  -1.398   0.030  0.00  0.00    +0.165 HD
ENDBRANCH  17  24
ENDBRANCH  16  17
ENDBRANCH  15  16
ENDBRANCH   1  15
TORSDOF 5
