REMARK  Name = ZINC09039309
REMARK  11 active torsions:
REMARK  status: ('A' for Active; 'I' for Inactive)
REMARK    1  A    between atoms: C_1  and  C_2
REMARK    2  A    between atoms: C_2  and  C_3
REMARK    3  A    between atoms: C_4  and  C_28
REMARK    4  A    between atoms: C_12  and  N_17
REMARK    5  A    between atoms: C_14  and  C_16
REMARK    6  A    between atoms: C_18  and  C_20
REMARK    7  A    between atoms: N_22  and  C_23
REMARK    8  A    between atoms: C_23  and  C_24
REMARK    9  A    between atoms: C_24  and  C_25
REMARK   10  A    between atoms: C_25  and  C_26
REMARK   11  A    between atoms: C_25  and  C_27
REMARK                            x       y       z     vdW  Elec       q    Type
REMARK                         _______ _______ _______ _____ _____    ______ ____
ROOT
ATOM      1  C   UNL     1       1.187   1.950   0.001  0.00  0.00    +0.038 A 
ATOM      2  C   UNL     1       1.125   3.312   0.009  0.00  0.00    +0.050 A 
ATOM      3  N   UNL     1      -0.057   3.927   0.024  0.00  0.00    -0.217 NA
ATOM      4  C   UNL     1      -1.183   3.247   0.031  0.00  0.00    +0.234 A 
ATOM      5  N   UNL     1      -1.185   1.888   0.018  0.00  0.00    -0.291 N 
ATOM      6  H   UNL     1      -2.025   1.403   0.019  0.00  0.00    +0.172 HD
ATOM      7  C   UNL     1      -0.015   1.216   0.009  0.00  0.00    +0.256 A 
ATOM      8  O   UNL     1       0.002  -0.004   0.002  0.00  0.00    -0.267 OA
ATOM      9  N   UNL     1      -2.386   3.928   0.046  0.00  0.00    -0.185 N 
ATOM     10  C   UNL     1      -2.544   5.284   0.059  0.00  0.00    +0.132 A 
ATOM     11  C   UNL     1      -3.881   5.537   0.068  0.00  0.00    +0.068 A 
ATOM     12  C   UNL     1      -4.551   4.309   0.068  0.00  0.00    +0.062 A 
ATOM     13  N   UNL     1      -3.662   3.350   0.055  0.00  0.00    -0.167 NA
ATOM     14  C   UNL     1      -6.047   4.123   0.082  0.00  0.00    +0.067 C 
ATOM     15  C   UNL     1       2.395   4.123   0.002  0.00  0.00    +0.066 C 
ENDROOT
BRANCH  10  16
ATOM     16  N   UNL     1      -1.527   6.232   0.061  0.00  0.00    -0.262 N 
ATOM     17  C   UNL     1      -1.829   7.545   0.076  0.00  0.00    +0.304 C 
ATOM     18  O   UNL     1      -2.990   7.901   0.087  0.00  0.00    -0.265 OA
ATOM     19  H   UNL     1      -0.600   5.947   0.052  0.00  0.00    +0.157 HD
BRANCH  17  20
ATOM     20  C   UNL     1      -0.737   8.563   0.078  0.00  0.00    +0.299 C 
ATOM     21  O   UNL     1       0.424   8.207   0.066  0.00  0.00    -0.265 OA
ATOM     22  N   UNL     1      -1.039   9.876   0.092  0.00  0.00    -0.308 N 
ATOM     23  H   UNL     1      -1.966  10.160   0.101  0.00  0.00    +0.149 HD
BRANCH  22  24
ATOM     24  C   UNL     1       0.033  10.874   0.094  0.00  0.00    +0.105 C 
BRANCH  24  25
ATOM     25  C   UNL     1      -0.577  12.277   0.112  0.00  0.00    +0.022 C 
BRANCH  25  26
ATOM     26  C   UNL     1       0.543  13.320   0.114  0.00  0.00    -0.016 C 
ATOM     27  C   UNL     1       1.323  13.234  -1.200  0.00  0.00    +0.007 C 
ATOM     28  C   UNL     1      -0.062  14.718   0.257  0.00  0.00    +0.007 C 
ENDBRANCH  25  26
ENDBRANCH  24  25
ENDBRANCH  22  24
ENDBRANCH  17  20
ENDBRANCH  10  16
BRANCH   1  30
ATOM     29  C   UNL     1       2.922   0.885   1.417  0.00  0.00    +0.009 C 
ATOM     30  C   UNL     1       2.517   1.243  -0.015  0.00  0.00    +0.039 C 
ENDBRANCH   1  30
TORSDOF 6
