REMARK  Name = ZINC63780800
REMARK  6 active torsions:
REMARK  status: ('A' for Active; 'I' for Inactive)
REMARK    1  A    between atoms: C_6  and  C_11
REMARK    2  A    between atoms: N_13  and  C_14
REMARK    3  A    between atoms: C_14  and  C_15
REMARK    4  A    between atoms: C_15  and  N_16
REMARK    5  A    between atoms: C_17  and  C_19
REMARK    6  A    between atoms: N_21  and  C_22
REMARK                            x       y       z     vdW  Elec       q    Type
REMARK                         _______ _______ _______ _____ _____    ______ ____
ROOT
ATOM      1  N   UNL     1       3.817  -6.859  -3.895  0.00  0.00    -0.306 N 
ATOM      2  C   UNL     1       3.522  -8.158  -4.100  0.00  0.00    +0.299 C 
ATOM      3  O   UNL     1       2.869  -8.769  -3.279  0.00  0.00    -0.265 OA
ATOM      4  H   UNL     1       4.338  -6.370  -4.551  0.00  0.00    +0.149 HD
ENDROOT
BRANCH   2   5
ATOM      5  C   UNL     1       3.998  -8.845  -5.337  0.00  0.00    +0.303 C 
ATOM      6  O   UNL     1       4.651  -8.234  -6.158  0.00  0.00    -0.265 OA
ATOM      7  N   UNL     1       3.704 -10.144  -5.542  0.00  0.00    -0.278 N 
ATOM      8  H   UNL     1       3.240 -10.650  -4.857  0.00  0.00    +0.155 HD
BRANCH   7   9
ATOM      9  C   UNL     1       4.066 -10.762  -6.743  0.00  0.00    +0.038 A 
ATOM     10  C   UNL     1       3.240 -11.728  -7.304  0.00  0.00    +0.027 A 
ATOM     11  C   UNL     1       3.599 -12.339  -8.490  0.00  0.00    +0.051 A 
ATOM     12  C   UNL     1       4.782 -11.991  -9.124  0.00  0.00    +0.162 A 
ATOM     13  C   UNL     1       5.610 -11.023  -8.566  0.00  0.00    +0.164 A 
ATOM     14  C   UNL     1       5.249 -10.407  -7.378  0.00  0.00    +0.072 A 
ATOM     15  O   UNL     1       6.771 -10.663  -9.178  0.00  0.00    -0.485 OA
ATOM     16  C   UNL     1       7.281 -11.559 -10.171  0.00  0.00    +0.270 C 
ATOM     17  C   UNL     1       6.121 -11.968 -11.090  0.00  0.00    +0.270 C 
ATOM     18  O   UNL     1       5.120 -12.607 -10.291  0.00  0.00    -0.485 OA
ENDBRANCH   7   9
ENDBRANCH   2   5
BRANCH   1  19
ATOM     19  C   UNL     1       3.349  -6.184  -2.682  0.00  0.00    +0.123 C 
BRANCH  19  20
ATOM     20  C   UNL     1       3.816  -4.727  -2.696  0.00  0.00    +0.123 C 
BRANCH  20  23
ATOM     21  C   UNL     1       3.643  -2.754  -1.277  0.00  0.00    +0.239 C 
ATOM     22  O   UNL     1       4.295  -2.143  -2.097  0.00  0.00    -0.273 OA
ATOM     23  N   UNL     1       3.349  -4.053  -1.482  0.00  0.00    -0.312 N 
ATOM     24  H   UNL     1       2.827  -4.541  -0.826  0.00  0.00    +0.149 HD
BRANCH  21  30
ATOM     25  C   UNL     1      -0.005   1.333   0.048  0.00  0.00    +0.001 A 
ATOM     26  C   UNL     1       1.175   2.089   0.033  0.00  0.00    +0.002 A 
ATOM     27  C   UNL     1       2.401   1.526   0.009  0.00  0.00    +0.026 A 
ATOM     28  C   UNL     1       2.543   0.111  -0.003  0.00  0.00    +0.043 A 
ATOM     29  N   UNL     1       3.602  -0.660  -0.027  0.00  0.00    -0.370 N 
ATOM     30  C   UNL     1       3.162  -2.060  -0.029  0.00  0.00    +0.190 C 
ATOM     31  C   UNL     1       1.651  -2.019  -0.002  0.00  0.00    +0.016 C 
ATOM     32  C   UNL     1       1.311  -0.710   0.013  0.00  0.00    -0.004 A 
ATOM     33  C   UNL     1       0.016  -0.019   0.039  0.00  0.00    +0.010 A 
ATOM     34  H   UNL     1       4.523  -0.356  -0.041  0.00  0.00    +0.161 HD
ENDBRANCH  21  30
ENDBRANCH  20  23
ENDBRANCH  19  20
ENDBRANCH   1  19
TORSDOF 6
