REMARK  Name = ZINC62361661
REMARK  4 active torsions:
REMARK  status: ('A' for Active; 'I' for Inactive)
REMARK    1  A    between atoms: C_2  and  C_6
REMARK    2  A    between atoms: N_8  and  C_9
REMARK    3  A    between atoms: C_14  and  C_16
REMARK    4  A    between atoms: N_17  and  O_18
REMARK                            x       y       z     vdW  Elec       q    Type
REMARK                         _______ _______ _______ _____ _____    ______ ____
ROOT
ATOM      1  C   UNL     1       3.622   4.955   0.301  0.00  0.00    +0.083 C 
ATOM      2  C   UNL     1       3.831   5.379   1.766  0.00  0.00    +0.023 C 
ATOM      3  C   UNL     1       5.299   5.837   1.887  0.00  0.00    +0.003 C 
ATOM      4  C   UNL     1       6.020   5.115   0.721  0.00  0.00    +0.013 C 
ATOM      5  C   UNL     1       4.970   5.171  -0.418  0.00  0.00    +0.076 C 
ENDROOT
BRANCH   5   6
ATOM      6  C   UNL     1       5.216   4.072  -1.418  0.00  0.00    +0.136 C 
ATOM      7  N   UNL     1       4.896   4.243  -2.658  0.00  0.00    -0.076 NA
ATOM      8  N   UNL     1       5.782   2.884  -1.011  0.00  0.00    -0.344 N 
ATOM      9  H   UNL     1       6.023   2.756  -0.080  0.00  0.00    +0.144 HD
ATOM     10  H   UNL     1       5.941   2.176  -1.655  0.00  0.00    +0.144 HD
BRANCH   7  11
ATOM     11  O   UNL     1       4.414   5.500  -3.098  0.00  0.00    -0.408 OA
ATOM     12  H   UNL     1       4.129   5.510  -4.022  0.00  0.00    +0.328 HD
ENDBRANCH   7  11
ENDBRANCH   5   6
BRANCH   1  15
ATOM     13  C   UNL     1       1.938   3.196   0.251  0.00  0.00    +0.263 C 
ATOM     14  O   UNL     1       1.079   4.056   0.226  0.00  0.00    -0.269 OA
ATOM     15  N   UNL     1       3.240   3.542   0.237  0.00  0.00    -0.307 N 
ATOM     16  H   UNL     1       3.924   2.857   0.184  0.00  0.00    +0.149 HD
BRANCH  13  18
ATOM     17  C   UNL     1       0.249   1.379   0.415  0.00  0.00    +0.079 A 
ATOM     18  C   UNL     1       1.555   1.774   0.295  0.00  0.00    +0.132 A 
ATOM     19  N   UNL     1       2.461   0.794   0.221  0.00  0.00    -0.243 NA
ATOM     20  C   UNL     1       2.043  -0.441   0.268  0.00  0.00    +0.156 A 
ATOM     21  S   UNL     1       0.378  -0.296   0.415  0.00  0.00    -0.083 S 
ENDBRANCH  13  18
ENDBRANCH   1  15
TORSDOF 4
