REMARK  Name = ZINC32760681
REMARK  10 active torsions:
REMARK  status: ('A' for Active; 'I' for Inactive)
REMARK    1  A    between atoms: C_1  and  C_2
REMARK    2  A    between atoms: C_2  and  C_3
REMARK    3  A    between atoms: C_2  and  C_4
REMARK    4  A    between atoms: C_4  and  C_6
REMARK    5  A    between atoms: C_4  and  N_20
REMARK    6  A    between atoms: C_6  and  N_7
REMARK    7  A    between atoms: N_7  and  C_8
REMARK    8  A    between atoms: C_11  and  C_17
REMARK    9  A    between atoms: C_13  and  N_14
REMARK   10  A    between atoms: N_23  and  C_26
REMARK                            x       y       z     vdW  Elec       q    Type
REMARK                         _______ _______ _______ _____ _____    ______ ____
ROOT
ATOM      1  N   UNL     1      -2.190  -2.800  -0.594  0.00  0.00    -0.341 N 
ATOM      2  H   UNL     1      -2.981  -2.331  -0.904  0.00  0.00    +0.146 HD
ENDROOT
BRANCH   1   3
ATOM      3  C   UNL     1      -2.270  -4.144  -0.247  0.00  0.00    +0.058 A 
ATOM      4  C   UNL     1      -1.144  -4.804   0.237  0.00  0.00    +0.026 A 
ATOM      5  C   UNL     1      -1.220  -6.134   0.582  0.00  0.00    +0.015 A 
ATOM      6  C   UNL     1      -2.429  -6.822   0.447  0.00  0.00    +0.039 A 
ATOM      7  C   UNL     1      -3.558  -6.156  -0.039  0.00  0.00    +0.047 A 
ATOM      8  C   UNL     1      -3.477  -4.825  -0.378  0.00  0.00    +0.148 A 
BRANCH   6   9
ATOM      9  C   UNL     1      -2.514  -8.248   0.816  0.00  0.00    +0.242 C 
ATOM     10  O   UNL     1      -3.566  -8.845   0.697  0.00  0.00    -0.270 OA
ATOM     11  N   UNL     1      -1.424  -8.889   1.284  0.00  0.00    -0.325 N 
ATOM     12  H   UNL     1      -0.585  -8.412   1.378  0.00  0.00    +0.145 HD
ATOM     13  H   UNL     1      -1.480  -9.826   1.526  0.00  0.00    +0.145 HD
ENDBRANCH   6   9
BRANCH   8  14
ATOM     14  N   UNL     1      -4.673  -4.117  -0.887  0.00  0.00    +0.058 N 
ATOM     15  O   UNL     1      -4.877  -2.969  -0.570  0.00  0.00    -0.126 OA
ATOM     16  O   UNL     1      -5.446  -4.688  -1.620  0.00  0.00    -0.126 OA
ENDBRANCH   8  14
ENDBRANCH   1   3
BRANCH   1  17
ATOM     17  C   UNL     1      -0.911  -2.092  -0.493  0.00  0.00    +0.120 C 
BRANCH  17  18
ATOM     18  C   UNL     1      -1.118  -0.615  -0.837  0.00  0.00    +0.076 C 
BRANCH  18  19
ATOM     19  N   UNL     1      -1.697  -0.502  -2.182  0.00  0.00    -0.301 NA
ATOM     20  C   UNL     1      -0.665  -0.669  -3.216  0.00  0.00    +0.066 C 
ATOM     21  C   UNL     1      -1.318  -0.604  -4.599  0.00  0.00    -0.064 C 
ATOM     22  N   UNL     1      -1.994   0.690  -4.761  0.00  0.00    +0.379 N 
ATOM     23  C   UNL     1      -3.038   0.831  -3.737  0.00  0.00    -0.064 C 
ATOM     24  C   UNL     1      -2.400   0.778  -2.348  0.00  0.00    +0.066 C 
ATOM     25  C   UNL     1      -2.605   0.758  -6.095  0.00  0.00    -0.096 C 
ATOM     26  H   UNL     1      -1.321   1.435  -4.661  0.00  0.00    -0.082 HD
ENDBRANCH  18  19
BRANCH  18  28
ATOM     27  C   UNL     1       0.014   1.600  -1.071  0.00  0.00    +0.009 C 
ATOM     28  C   UNL     1       0.229   0.110  -0.799  0.00  0.00    +0.001 C 
ATOM     29  C   UNL     1       0.867  -0.070   0.580  0.00  0.00    +0.009 C 
ENDBRANCH  18  28
ENDBRANCH  17  18
ENDBRANCH   1  17
TORSDOF 7
