REMARK  Name = ZINC51259597
REMARK  12 active torsions:
REMARK  status: ('A' for Active; 'I' for Inactive)
REMARK    1  A    between atoms: C_1  and  C_2
REMARK    2  A    between atoms: C_2  and  C_3
REMARK    3  A    between atoms: C_3  and  C_4
REMARK    4  A    between atoms: C_4  and  C_5
REMARK    5  A    between atoms: C_4  and  C_6
REMARK    6  A    between atoms: C_4  and  C_8
REMARK    7  A    between atoms: C_6  and  N_7
REMARK    8  A    between atoms: C_8  and  N_9
REMARK    9  A    between atoms: N_9  and  C_10
REMARK   10  A    between atoms: N_9  and  C_11
REMARK   11  A    between atoms: C_14  and  C_17
REMARK   12  A    between atoms: C_17  and  C_18
REMARK                            x       y       z     vdW  Elec       q    Type
REMARK                         _______ _______ _______ _____ _____    ______ ____
ROOT
ATOM      1  C   UNL     1      -2.859  -2.788  -0.093  0.00  0.00    -0.074 C 
ENDROOT
BRANCH   1   2
ATOM      2  N   UNL     1      -2.711  -4.249  -0.138  0.00  0.00    +0.380 N 
ATOM      3  C   UNL     1      -2.063  -4.713   1.096  0.00  0.00    -0.096 C 
ATOM      4  H   UNL     1      -2.144  -4.506  -0.932  0.00  0.00    -0.082 HD
BRANCH   2   5
ATOM      5  C   UNL     1      -4.036  -4.872  -0.259  0.00  0.00    -0.069 C 
ATOM      6  C   UNL     1      -4.711  -4.388  -1.544  0.00  0.00    -0.015 C 
ATOM      7  C   UNL     1      -6.091  -5.037  -1.671  0.00  0.00    +0.002 C 
ATOM      8  C   UNL     1      -5.937  -6.558  -1.717  0.00  0.00    -0.011 C 
ATOM      9  C   UNL     1      -5.262  -7.042  -0.431  0.00  0.00    +0.002 C 
ATOM     10  C   UNL     1      -3.882  -6.393  -0.305  0.00  0.00    -0.015 C 
BRANCH   8  11
ATOM     11  C   UNL     1      -7.317  -7.207  -1.843  0.00  0.00    -0.000 C 
ATOM     12  C   UNL     1      -7.156  -8.719  -2.014  0.00  0.00    +0.004 C 
ENDBRANCH   8  11
ENDBRANCH   2   5
ENDBRANCH   1   2
BRANCH   1  13
ATOM     13  C   UNL     1      -1.575  -2.130  -0.602  0.00  0.00    -0.063 C 
ATOM     14  C   UNL     1      -1.389  -2.454  -2.086  0.00  0.00    +0.007 C 
BRANCH  13  15
ATOM     15  C   UNL     1      -0.380  -2.664   0.190  0.00  0.00    +0.003 C 
BRANCH  15  17
ATOM     16  C   UNL     1       2.080  -2.443   0.568  0.00  0.00    +0.004 C 
ATOM     17  C   UNL     1       0.885  -1.909  -0.225  0.00  0.00    -0.003 C 
ENDBRANCH  15  17
ENDBRANCH  13  15
BRANCH  13  18
ATOM     18  C   UNL     1      -1.671  -0.614  -0.419  0.00  0.00    -0.082 C 
BRANCH  18  19
ATOM     19  N   UNL     1      -1.850  -0.303   1.005  0.00  0.00    +0.378 N 
ATOM     20  H   UNL     1      -1.062  -0.655   1.528  0.00  0.00    -0.090 HD
ATOM     21  H   UNL     1      -1.914   0.697   1.126  0.00  0.00    -0.090 HD
ATOM     22  H   UNL     1      -2.697  -0.737   1.341  0.00  0.00    -0.090 HD
ENDBRANCH  18  19
ENDBRANCH  13  18
ENDBRANCH   1  13
TORSDOF 8
