REMARK  Name = ZINC17952344
REMARK  2 active torsions:
REMARK  status: ('A' for Active; 'I' for Inactive)
REMARK    1  A    between atoms: C_1  and  C_2
REMARK    2  A    between atoms: C_17  and  O_19
REMARK                            x       y       z     vdW  Elec       q    Type
REMARK                         _______ _______ _______ _____ _____    ______ ____
ROOT
ATOM      1  C   UNL     1      -0.018   1.503   0.010  0.00  0.00    +0.066 C 
ATOM      2  C   UNL     1       0.002  -0.004   0.002  0.00  0.00    +0.047 A 
ATOM      3  C   UNL     1      -1.171  -0.701   0.004  0.00  0.00    +0.093 A 
ATOM      4  C   UNL     1      -1.124  -2.108  -0.004  0.00  0.00    +0.253 A 
ATOM      5  N   UNL     1       0.081  -2.717  -0.013  0.00  0.00    -0.291 N 
ATOM      6  C   UNL     1       1.216  -1.968  -0.015  0.00  0.00    +0.235 A 
ATOM      7  N   UNL     1       1.165  -0.653  -0.013  0.00  0.00    -0.217 NA
ATOM      8  N   UNL     1       2.443  -2.598  -0.023  0.00  0.00    -0.159 N 
ATOM      9  C   UNL     1       3.565  -1.849  -0.019  0.00  0.00    +0.282 A 
ATOM     10  O   UNL     1       3.498  -0.633  -0.007  0.00  0.00    -0.265 OA
ATOM     11  C   UNL     1       4.869  -2.526  -0.029  0.00  0.00    +0.054 A 
ATOM     12  C   UNL     1       6.068  -1.815  -0.024  0.00  0.00    +0.014 A 
ATOM     13  C   UNL     1       7.264  -2.500  -0.033  0.00  0.00    +0.001 A 
ATOM     14  C   UNL     1       7.285  -3.888  -0.046  0.00  0.00    +0.001 A 
ATOM     15  C   UNL     1       6.111  -4.610  -0.051  0.00  0.00    +0.014 A 
ATOM     16  C   UNL     1       4.890  -3.938  -0.042  0.00  0.00    +0.050 A 
ATOM     17  C   UNL     1       3.610  -4.658  -0.045  0.00  0.00    +0.239 A 
ATOM     18  N   UNL     1       2.490  -3.993  -0.031  0.00  0.00    -0.123 NA
ATOM     19  O   UNL     1      -2.153  -2.764  -0.002  0.00  0.00    -0.268 OA
ATOM     20  H   UNL     1       0.137  -3.685  -0.018  0.00  0.00    +0.172 HD
ENDROOT
BRANCH  17  21
ATOM     21  O   UNL     1       3.595  -6.015  -0.058  0.00  0.00    -0.491 OA
ATOM     22  H   UNL     1       2.707  -6.398  -0.060  0.00  0.00    +0.294 HD
ENDBRANCH  17  21
TORSDOF 1
