REMARK  Name = ZINC04124468
REMARK  2 active torsions:
REMARK  status: ('A' for Active; 'I' for Inactive)
REMARK    1  A    between atoms: C_7  and  C_11
REMARK    2  A    between atoms: C_11  and  C_21
REMARK                            x       y       z     vdW  Elec       q    Type
REMARK                         _______ _______ _______ _____ _____    ______ ____
ROOT
ATOM      1  C   UNL     1      -2.545   1.335   0.020  0.00  0.00    +0.127 C 
ATOM      2  C   UNL     1      -3.235   1.733   1.305  0.00  0.00    -0.002 A 
ATOM      3  C   UNL     1      -2.990   1.442   2.628  0.00  0.00    +0.007 A 
ATOM      4  C   UNL     1      -3.812   1.960   3.612  0.00  0.00    +0.000 A 
ATOM      5  C   UNL     1      -4.877   2.771   3.262  0.00  0.00    +0.002 A 
ATOM      6  C   UNL     1      -5.125   3.064   1.938  0.00  0.00    +0.023 A 
ATOM      7  C   UNL     1      -4.301   2.545   0.940  0.00  0.00    +0.038 A 
ATOM      8  N   UNL     1      -4.343   2.692  -0.447  0.00  0.00    -0.284 N 
ATOM      9  C   UNL     1      -3.355   2.019  -1.060  0.00  0.00    +0.237 C 
ATOM     10  O   UNL     1      -3.151   1.969  -2.255  0.00  0.00    -0.274 OA
ATOM     11  H   UNL     1      -5.010   3.219  -0.914  0.00  0.00    +0.155 HD
ENDROOT
BRANCH   1  18
ATOM     12  C   UNL     1       0.874   1.201  -3.185  0.00  0.00    +0.001 A 
ATOM     13  C   UNL     1       2.050   1.793  -2.746  0.00  0.00    +0.002 A 
ATOM     14  C   UNL     1       2.131   2.346  -1.486  0.00  0.00    +0.026 A 
ATOM     15  C   UNL     1       1.024   2.312  -0.645  0.00  0.00    +0.047 A 
ATOM     16  C   UNL     1      -0.166   1.712  -1.095  0.00  0.00    +0.004 A 
ATOM     17  C   UNL     1      -0.226   1.157  -2.375  0.00  0.00    +0.010 A 
ATOM     18  C   UNL     1      -1.123   1.832   0.008  0.00  0.00    +0.001 A 
ATOM     19  C   UNL     1      -0.492   2.473   1.006  0.00  0.00    +0.089 A 
ATOM     20  N   UNL     1       0.792   2.764   0.635  0.00  0.00    -0.360 N 
ATOM     21  H   UNL     1       1.442   3.222   1.191  0.00  0.00    +0.165 HD
ENDBRANCH   1  18
BRANCH   1  22
ATOM     22  C   UNL     1      -2.581  -0.162  -0.157  0.00  0.00    +0.001 A 
ATOM     23  C   UNL     1      -1.522  -0.985  -0.207  0.00  0.00    +0.089 A 
ATOM     24  N   UNL     1      -1.943  -2.276  -0.376  0.00  0.00    -0.360 N 
ATOM     25  H   UNL     1      -1.360  -3.049  -0.441  0.00  0.00    +0.165 HD
ATOM     26  C   UNL     1      -3.318  -2.315  -0.442  0.00  0.00    +0.047 A 
ATOM     27  C   UNL     1      -3.778  -0.993  -0.301  0.00  0.00    +0.004 A 
ATOM     28  C   UNL     1      -5.148  -0.727  -0.323  0.00  0.00    +0.010 A 
ATOM     29  C   UNL     1      -6.037  -1.753  -0.477  0.00  0.00    +0.001 A 
ATOM     30  C   UNL     1      -5.588  -3.060  -0.613  0.00  0.00    +0.002 A 
ATOM     31  C   UNL     1      -4.240  -3.344  -0.602  0.00  0.00    +0.026 A 
ENDBRANCH   1  22
TORSDOF 2
