REMARK  Name = ZINC40378380
REMARK  7 active torsions:
REMARK  status: ('A' for Active; 'I' for Inactive)
REMARK    1  A    between atoms: N_3  and  C_6
REMARK    2  A    between atoms: C_6  and  C_7
REMARK    3  A    between atoms: C_7  and  C_8
REMARK    4  A    between atoms: C_14  and  C_17
REMARK    5  A    between atoms: C_17  and  N_18
REMARK    6  A    between atoms: N_18  and  S_19
REMARK    7  A    between atoms: S_19  and  N_22
REMARK                            x       y       z     vdW  Elec       q    Type
REMARK                         _______ _______ _______ _____ _____    ______ ____
ROOT
ATOM      1  C   UNL     1       5.551   0.603   1.395  0.00  0.00    +0.217 C 
ATOM      2  O   UNL     1       6.147   0.601   0.339  0.00  0.00    -0.276 OA
ATOM      3  N   UNL     1       6.236   0.588   2.555  0.00  0.00    -0.301 N 
ATOM      4  C   UNL     1       5.528   0.585   3.843  0.00  0.00    +0.108 C 
ATOM      5  C   UNL     1       6.033  -0.594   4.681  0.00  0.00    +0.019 C 
ATOM      6  C   UNL     1       7.556  -0.513   4.802  0.00  0.00    +0.008 C 
ATOM      7  C   UNL     1       8.186  -0.605   3.410  0.00  0.00    +0.022 C 
ATOM      8  C   UNL     1       7.705   0.568   2.558  0.00  0.00    +0.112 C 
ENDROOT
BRANCH   1   9
ATOM      9  C   UNL     1       4.044   0.624   1.409  0.00  0.00    +0.117 C 
BRANCH   9  10
ATOM     10  C   UNL     1       3.521   0.638  -0.028  0.00  0.00    +0.132 C 
BRANCH  10  13
ATOM     11  C   UNL     1      -0.016   1.337   0.009  0.00  0.00    +0.101 A 
ATOM     12  C   UNL     1       1.259   1.771  -0.000  0.00  0.00    +0.104 A 
ATOM     13  N   UNL     1       2.056   0.658  -0.014  0.00  0.00    -0.338 N 
ATOM     14  C   UNL     1       1.240  -0.418  -0.012  0.00  0.00    +0.173 A 
ATOM     15  N   UNL     1       0.002  -0.004   0.002  0.00  0.00    -0.352 N 
ATOM     16  H   UNL     1      -0.781  -0.576   0.007  0.00  0.00    +0.166 HD
ENDBRANCH  10  13
ENDBRANCH   9  10
ENDBRANCH   1   9
BRANCH   7  17
ATOM     17  C   UNL     1       9.710  -0.557   3.535  0.00  0.00    +0.112 C 
BRANCH  17  18
ATOM     18  N   UNL     1      10.315  -0.765   2.217  0.00  0.00    -0.180 NA
ATOM     19  H   UNL     1       9.780  -1.115   1.487  0.00  0.00    +0.149 HD
BRANCH  18  20
ATOM     20  S   UNL     1      11.912  -0.401   1.972  0.00  0.00    +0.092 S 
ATOM     21  O   UNL     1      12.201  -0.732   0.620  0.00  0.00    -0.142 OA
ATOM     22  O   UNL     1      12.116   0.903   2.497  0.00  0.00    -0.142 OA
BRANCH  20  23
ATOM     23  N   UNL     1      12.799  -1.435   2.913  0.00  0.00    -0.193 NA
ATOM     24  H   UNL     1      12.351  -2.093   3.466  0.00  0.00    +0.145 HD
ATOM     25  H   UNL     1      13.768  -1.382   2.911  0.00  0.00    +0.145 HD
ENDBRANCH  20  23
ENDBRANCH  18  20
ENDBRANCH  17  18
ENDBRANCH   7  17
TORSDOF 7
