REMARK  Name = ZINC53866623
REMARK  8 active torsions:
REMARK  status: ('A' for Active; 'I' for Inactive)
REMARK    1  A    between atoms: C_1  and  C_2
REMARK    2  A    between atoms: C_2  and  N_3
REMARK    3  A    between atoms: N_3  and  C_4
REMARK    4  A    between atoms: C_11  and  C_13
REMARK    5  A    between atoms: C_13  and  N_14
REMARK    6  A    between atoms: N_14  and  C_15
REMARK    7  A    between atoms: N_14  and  C_17
REMARK    8  A    between atoms: C_15  and  C_16
REMARK                            x       y       z     vdW  Elec       q    Type
REMARK                         _______ _______ _______ _____ _____    ______ ____
ROOT
ATOM      1  C   UNL     1       0.840  -0.584   1.328  0.00  0.00    -0.070 C 
ATOM      2  C   UNL     1      -0.676  -0.842   1.237  0.00  0.00    -0.016 C 
ATOM      3  C   UNL     1      -1.024  -2.341   1.162  0.00  0.00    -0.002 C 
ATOM      4  C   UNL     1      -0.095  -3.103   0.256  0.00  0.00    -0.000 C 
ATOM      5  C   UNL     1       1.041  -3.702   1.111  0.00  0.00    +0.000 C 
ATOM      6  C   UNL     1       2.074  -2.725   1.425  0.00  0.00    -0.000 C 
ATOM      7  C   UNL     1       1.531  -1.544   2.257  0.00  0.00    -0.042 C 
ENDROOT
BRANCH   1   8
ATOM      8  N   UNL     1       1.061   0.786   1.810  0.00  0.00    +0.381 N 
ATOM      9  H   UNL     1       2.050   0.946   1.929  0.00  0.00    -0.086 HD
ATOM     10  H   UNL     1       0.591   0.911   2.695  0.00  0.00    -0.086 HD
BRANCH   8  12
ATOM     11  C   UNL     1       0.754   3.169   1.334  0.00  0.00    -0.017 C 
ATOM     12  C   UNL     1       0.525   1.742   0.832  0.00  0.00    -0.086 C 
ENDBRANCH   8  12
ENDBRANCH   1   8
BRANCH   7  13
ATOM     13  C   UNL     1       2.691  -0.836   2.960  0.00  0.00    -0.077 C 
BRANCH  13  14
ATOM     14  N   UNL     1       3.305  -1.748   3.933  0.00  0.00    +0.382 N 
ATOM     15  H   UNL     1       3.521  -2.625   3.483  0.00  0.00    -0.081 HD
BRANCH  14  16
ATOM     16  C   UNL     1       2.370  -1.984   5.041  0.00  0.00    -0.069 C 
ATOM     17  C   UNL     1       3.114  -2.614   6.236  0.00  0.00    -0.015 C 
ATOM     18  C   UNL     1       2.098  -3.623   6.828  0.00  0.00    -0.002 C 
ATOM     19  C   UNL     1       1.417  -4.203   5.564  0.00  0.00    -0.002 C 
ATOM     20  C   UNL     1       1.291  -2.995   4.614  0.00  0.00    -0.015 C 
ENDBRANCH  14  16
BRANCH  14  21
ATOM     21  C   UNL     1       4.540  -1.149   4.455  0.00  0.00    -0.082 C 
ATOM     22  C   UNL     1       5.567  -1.033   3.327  0.00  0.00    -0.017 C 
ENDBRANCH  14  21
ENDBRANCH  13  14
ENDBRANCH   7  13
TORSDOF 6
