REMARK  Name = ZINC13629999
REMARK  4 active torsions:
REMARK  status: ('A' for Active; 'I' for Inactive)
REMARK    1  A    between atoms: C_1  and  O_2
REMARK    2  A    between atoms: O_2  and  C_3
REMARK    3  A    between atoms: C_8  and  C_9
REMARK    4  A    between atoms: C_9  and  N_10
REMARK                            x       y       z     vdW  Elec       q    Type
REMARK                         _______ _______ _______ _____ _____    ______ ____
ROOT
ATOM      1  N   UNL     1      -3.081   3.904   1.414  0.00  0.00    -0.302 N 
ATOM      2  C   UNL     1      -3.976   2.893   2.001  0.00  0.00    +0.118 C 
ATOM      3  C   UNL     1      -5.255   2.791   1.152  0.00  0.00    +0.190 C 
ATOM      4  S   UNL     1      -6.551   2.673   2.460  0.00  0.00    -0.027 S 
ATOM      5  O   UNL     1      -6.636   1.331   2.919  0.00  0.00    -0.174 OA
ATOM      6  O   UNL     1      -7.725   3.344   2.023  0.00  0.00    -0.174 OA
ATOM      7  C   UNL     1      -5.697   3.701   3.732  0.00  0.00    +0.190 C 
ATOM      8  C   UNL     1      -4.215   3.393   3.429  0.00  0.00    +0.115 C 
ATOM      9  N   UNL     1      -3.439   4.641   3.505  0.00  0.00    -0.320 N 
ATOM     10  C   UNL     1      -2.834   4.851   2.329  0.00  0.00    +0.134 C 
ATOM     11  S   UNL     1      -1.834   6.207   2.022  0.00  0.00    -0.019 S 
ATOM     12  H   UNL     1      -3.376   5.218   4.282  0.00  0.00    +0.148 HD
ENDROOT
BRANCH   1  13
ATOM     13  C   UNL     1      -2.551   3.880   0.048  0.00  0.00    +0.146 C 
BRANCH  13  19
ATOM     14  C   UNL     1      -1.223   1.754   0.017  0.00  0.00    +0.125 A 
ATOM     15  C   UNL     1      -0.013   1.076   0.008  0.00  0.00    +0.046 A 
ATOM     16  C   UNL     1       1.174   1.783   0.000  0.00  0.00    +0.004 A 
ATOM     17  C   UNL     1       1.156   3.166   0.008  0.00  0.00    +0.001 A 
ATOM     18  C   UNL     1      -0.049   3.844   0.023  0.00  0.00    +0.009 A 
ATOM     19  C   UNL     1      -1.239   3.141   0.031  0.00  0.00    +0.011 A 
BRANCH  14  21
ATOM     20  C   UNL     1      -2.300  -0.366   0.011  0.00  0.00    +0.277 C 
ATOM     21  O   UNL     1      -2.392   1.060   0.019  0.00  0.00    -0.495 OA
ENDBRANCH  14  21
ENDBRANCH  13  19
ENDBRANCH   1  13
TORSDOF 3
