REMARK  Name = ZINC39675196
REMARK  9 active torsions:
REMARK  status: ('A' for Active; 'I' for Inactive)
REMARK    1  A    between atoms: C_1  and  C_2
REMARK    2  A    between atoms: C_2  and  C_4
REMARK    3  A    between atoms: C_2  and  N_14
REMARK    4  A    between atoms: C_4  and  C_5
REMARK    5  A    between atoms: C_5  and  C_6
REMARK    6  A    between atoms: C_9  and  O_12
REMARK    7  A    between atoms: O_12  and  C_13
REMARK    8  A    between atoms: C_15  and  C_17
REMARK    9  A    between atoms: C_28  and  C_30
REMARK                            x       y       z     vdW  Elec       q    Type
REMARK                         _______ _______ _______ _____ _____    ______ ____
ROOT
ATOM      1  C   UNL     1       0.780  -1.133   3.576  0.00  0.00    +0.100 C 
ATOM      2  C   UNL     1       1.973  -0.207   3.907  0.00  0.00    +0.121 C 
ATOM      3  N   UNL     1       1.444   0.739   4.916  0.00  0.00    -0.296 N 
ATOM      4  C   UNL     1       0.577  -0.093   5.784  0.00  0.00    +0.115 C 
ATOM      5  C   UNL     1      -0.132  -1.058   4.812  0.00  0.00    -0.004 C 
ATOM      6  C   UNL     1      -0.275  -2.438   5.448  0.00  0.00    -0.010 C 
ATOM      7  C   UNL     1      -1.232  -2.349   6.640  0.00  0.00    -0.082 C 
ATOM      8  N   UNL     1      -2.539  -1.860   6.184  0.00  0.00    +0.379 N 
ATOM      9  C   UNL     1      -2.409  -0.496   5.660  0.00  0.00    -0.082 C 
ATOM     10  C   UNL     1      -1.501  -0.506   4.426  0.00  0.00    -0.010 C 
ATOM     11  C   UNL     1       1.694   2.059   5.022  0.00  0.00    +0.252 C 
ATOM     12  O   UNL     1       1.180   2.706   5.914  0.00  0.00    -0.270 OA
ATOM     13  H   UNL     1      -2.889  -2.466   5.458  0.00  0.00    -0.086 HD
ATOM     14  H   UNL     1      -3.186  -1.861   6.959  0.00  0.00    -0.086 HD
ENDROOT
BRANCH  11  15
ATOM     15  C   UNL     1       2.593   2.720   4.056  0.00  0.00    +0.107 A 
ATOM     16  C   UNL     1       2.075   3.276   2.881  0.00  0.00    +0.138 A 
ATOM     17  C   UNL     1       2.924   3.893   1.982  0.00  0.00    +0.039 A 
ATOM     18  C   UNL     1       4.281   3.961   2.240  0.00  0.00    +0.006 A 
ATOM     19  C   UNL     1       4.801   3.413   3.398  0.00  0.00    +0.039 A 
ATOM     20  C   UNL     1       3.966   2.797   4.312  0.00  0.00    +0.138 A 
ATOM     21  F   UNL     1       4.475   2.268   5.446  0.00  0.00    -0.205 F 
ATOM     22  F   UNL     1       0.750   3.211   2.627  0.00  0.00    -0.205 F 
ENDBRANCH  11  15
BRANCH   1  24
ATOM     23  N   UNL     1      -0.596  -1.503   1.555  0.00  0.00    -0.312 N 
ATOM     24  C   UNL     1       0.051  -0.633   2.355  0.00  0.00    +0.218 C 
ATOM     25  O   UNL     1       0.047   0.551   2.093  0.00  0.00    -0.275 OA
ATOM     26  H   UNL     1      -0.593  -2.450   1.764  0.00  0.00    +0.149 HD
BRANCH  23  28
ATOM     27  C   UNL     1      -0.323  -0.900  -0.800  0.00  0.00    +0.028 C 
ATOM     28  C   UNL     1      -1.305  -1.018   0.368  0.00  0.00    +0.070 C 
BRANCH  28  29
ATOM     29  C   UNL     1      -2.418  -2.001   0.001  0.00  0.00    +0.026 C 
BRANCH  29  30
ATOM     30  C   UNL     1      -3.466  -2.025   1.116  0.00  0.00    +0.037 C 
BRANCH  30  31
ATOM     31  C   UNL     1      -4.562  -2.993   0.755  0.00  0.00    -0.047 A 
ATOM     32  C   UNL     1      -5.662  -2.555   0.040  0.00  0.00    +0.007 A 
ATOM     33  C   UNL     1      -6.669  -3.441  -0.292  0.00  0.00    +0.046 A 
ATOM     34  C   UNL     1      -6.576  -4.770   0.092  0.00  0.00    +0.120 A 
ATOM     35  C   UNL     1      -5.471  -5.207   0.809  0.00  0.00    +0.046 A 
ATOM     36  C   UNL     1      -4.465  -4.319   1.134  0.00  0.00    +0.007 A 
BRANCH  34  37
ATOM     37  O   UNL     1      -7.565  -5.644  -0.233  0.00  0.00    -0.495 OA
ATOM     38  C   UNL     1      -7.403  -6.997   0.195  0.00  0.00    +0.277 C 
ENDBRANCH  34  37
ENDBRANCH  30  31
ENDBRANCH  29  30
ENDBRANCH  28  29
ENDBRANCH  23  28
ENDBRANCH   1  24
TORSDOF 7
