REMARK  Name = ZINC14457532
REMARK  8 active torsions:
REMARK  status: ('A' for Active; 'I' for Inactive)
REMARK    1  A    between atoms: C_1  and  C_2
REMARK    2  A    between atoms: C_2  and  C_3
REMARK    3  A    between atoms: C_3  and  N_4
REMARK    4  A    between atoms: C_5  and  C_7
REMARK    5  A    between atoms: C_20  and  C_23
REMARK    6  A    between atoms: C_26  and  O_30
REMARK    7  A    between atoms: C_27  and  O_29
REMARK    8  A    between atoms: O_30  and  C_31
REMARK                            x       y       z     vdW  Elec       q    Type
REMARK                         _______ _______ _______ _____ _____    ______ ____
ROOT
ATOM      1  C   UNL     1      -2.974  -4.090  -0.052  0.00  0.00    +0.037 A 
ATOM      2  C   UNL     1      -1.700  -4.667  -0.074  0.00  0.00    +0.015 A 
ATOM      3  C   UNL     1      -1.576  -6.037  -0.068  0.00  0.00    +0.024 A 
ATOM      4  C   UNL     1      -2.711  -6.844  -0.040  0.00  0.00    +0.031 A 
ATOM      5  C   UNL     1      -3.981  -6.280  -0.019  0.00  0.00    -0.019 A 
ATOM      6  C   UNL     1      -4.107  -4.903  -0.020  0.00  0.00    +0.019 A 
ATOM      7  C   UNL     1      -5.213  -7.106  -0.010  0.00  0.00    +0.049 C 
ATOM      8  C   UNL     1      -5.863  -7.104   1.377  0.00  0.00    -0.023 C 
ATOM      9  C   UNL     1      -6.380  -8.278   1.643  0.00  0.00    -0.030 C 
ATOM     10  C   UNL     1      -6.162  -9.230   0.483  0.00  0.00    +0.033 C 
ATOM     11  C   UNL     1      -4.958  -8.602  -0.278  0.00  0.00    +0.029 C 
ATOM     12  C   UNL     1      -3.681  -9.050   0.439  0.00  0.00    +0.105 C 
ATOM     13  N   UNL     1      -2.560  -8.229  -0.030  0.00  0.00    -0.336 N 
ATOM     14  H   UNL     1      -1.733  -8.640  -0.326  0.00  0.00    +0.147 HD
ENDROOT
BRANCH  12  15
ATOM     15  C   UNL     1      -3.849  -8.872   1.926  0.00  0.00    -0.023 A 
ATOM     16  C   UNL     1      -3.496  -7.676   2.522  0.00  0.00    +0.009 A 
ATOM     17  C   UNL     1      -3.653  -7.506   3.885  0.00  0.00    +0.050 A 
ATOM     18  C   UNL     1      -4.155  -8.541   4.659  0.00  0.00    +0.161 A 
ATOM     19  C   UNL     1      -4.505  -9.747   4.060  0.00  0.00    +0.159 A 
ATOM     20  C   UNL     1      -4.350  -9.908   2.692  0.00  0.00    +0.054 A 
BRANCH  19  21
ATOM     21  O   UNL     1      -4.998 -10.765   4.815  0.00  0.00    -0.503 OA
ATOM     22  H   UNL     1      -4.320 -11.361   5.162  0.00  0.00    +0.292 HD
ENDBRANCH  19  21
BRANCH  18  23
ATOM     23  O   UNL     1      -4.305  -8.378   6.001  0.00  0.00    -0.491 OA
ATOM     24  C   UNL     1      -3.925  -7.113   6.547  0.00  0.00    +0.277 C 
ENDBRANCH  18  23
ENDBRANCH  12  15
BRANCH   1  26
ATOM     25  N   UNL     1      -2.023  -1.837  -0.083  0.00  0.00    -0.311 N 
ATOM     26  C   UNL     1      -3.119  -2.622  -0.058  0.00  0.00    +0.244 C 
ATOM     27  O   UNL     1      -4.226  -2.120  -0.038  0.00  0.00    -0.270 OA
ATOM     28  H   UNL     1      -1.140  -2.237  -0.099  0.00  0.00    +0.149 HD
BRANCH  25  29
ATOM     29  C   UNL     1      -2.167  -0.379  -0.088  0.00  0.00    +0.104 C 
BRANCH  29  31
ATOM     30  C   UNL     1      -0.932   1.793  -0.124  0.00  0.00    +0.005 C 
ATOM     31  C   UNL     1      -0.782   0.270  -0.119  0.00  0.00    +0.015 C 
ENDBRANCH  29  31
ENDBRANCH  25  29
ENDBRANCH   1  26
TORSDOF 6
