REMARK  Name = ZINC20682436
REMARK  8 active torsions:
REMARK  status: ('A' for Active; 'I' for Inactive)
REMARK    1  A    between atoms: C_1  and  C_2
REMARK    2  A    between atoms: C_2  and  C_3
REMARK    3  A    between atoms: C_3  and  C_5
REMARK    4  A    between atoms: C_3  and  N_6
REMARK    5  A    between atoms: C_7  and  C_9
REMARK    6  A    between atoms: C_22  and  C_25
REMARK    7  A    between atoms: C_28  and  O_32
REMARK    8  A    between atoms: C_30  and  O_31
REMARK                            x       y       z     vdW  Elec       q    Type
REMARK                         _______ _______ _______ _____ _____    ______ ____
ROOT
ATOM      1  C   UNL     1       3.387  -6.713   0.381  0.00  0.00    +0.037 A 
ATOM      2  C   UNL     1       3.927  -5.929   1.405  0.00  0.00    +0.015 A 
ATOM      3  C   UNL     1       3.606  -4.594   1.479  0.00  0.00    +0.024 A 
ATOM      4  C   UNL     1       2.748  -4.026   0.540  0.00  0.00    +0.031 A 
ATOM      5  C   UNL     1       2.206  -4.796  -0.482  0.00  0.00    -0.019 A 
ATOM      6  C   UNL     1       2.529  -6.139  -0.557  0.00  0.00    +0.019 A 
ATOM      7  C   UNL     1       1.281  -4.225  -1.511  0.00  0.00    +0.049 C 
ATOM      8  C   UNL     1      -0.146  -4.649  -1.261  0.00  0.00    -0.023 C 
ATOM      9  C   UNL     1      -0.969  -3.673  -1.560  0.00  0.00    -0.030 C 
ATOM     10  C   UNL     1      -0.201  -2.464  -2.056  0.00  0.00    +0.033 C 
ATOM     11  C   UNL     1       1.227  -2.685  -1.484  0.00  0.00    +0.029 C 
ATOM     12  C   UNL     1       1.225  -2.187  -0.036  0.00  0.00    +0.108 C 
ATOM     13  N   UNL     1       2.434  -2.672   0.637  0.00  0.00    -0.336 N 
ATOM     14  H   UNL     1       3.068  -1.972   1.202  0.00  0.00    +0.147 HD
ENDROOT
BRANCH  12  15
ATOM     15  C   UNL     1       1.209  -0.680  -0.020  0.00  0.00    +0.015 A 
ATOM     16  C   UNL     1       0.057  -0.006   0.336  0.00  0.00    +0.012 A 
ATOM     17  C   UNL     1       0.039   1.376   0.352  0.00  0.00    +0.046 A 
ATOM     18  C   UNL     1       1.179   2.089   0.009  0.00  0.00    +0.120 A 
ATOM     19  C   UNL     1       2.336   1.415  -0.349  0.00  0.00    +0.091 A 
ATOM     20  C   UNL     1       2.351   0.029  -0.364  0.00  0.00    +0.125 A 
BRANCH  20  21
ATOM     21  O   UNL     1       3.484  -0.635  -0.714  0.00  0.00    -0.506 OA
ATOM     22  H   UNL     1       4.389  -0.073  -0.986  0.00  0.00    +0.292 HD
ENDBRANCH  20  21
BRANCH  18  23
ATOM     23  O   UNL     1       1.161   3.448   0.025  0.00  0.00    -0.507 OA
ATOM     24  H   UNL     1       2.064   4.013  -0.247  0.00  0.00    +0.292 HD
ENDBRANCH  18  23
ENDBRANCH  12  15
BRANCH   1  26
ATOM     25  N   UNL     1       4.554  -8.700   1.199  0.00  0.00    -0.309 N 
ATOM     26  C   UNL     1       3.725  -8.146   0.292  0.00  0.00    +0.244 C 
ATOM     27  O   UNL     1       3.256  -8.827  -0.599  0.00  0.00    -0.270 OA
ATOM     28  H   UNL     1       4.979  -8.084   2.005  0.00  0.00    +0.149 HD
BRANCH  25  29
ATOM     29  C   UNL     1       4.890 -10.123   1.111  0.00  0.00    +0.070 C 
ATOM     30  C   UNL     1       6.059 -10.313   0.143  0.00  0.00    +0.028 C 
BRANCH  29  32
ATOM     31  C   UNL     1       4.077 -10.567   3.431  0.00  0.00    +0.005 C 
ATOM     32  C   UNL     1       5.285 -10.641   2.495  0.00  0.00    +0.018 C 
ENDBRANCH  29  32
ENDBRANCH  25  29
ENDBRANCH   1  26
TORSDOF 6
