REMARK  Name = ZINC43412562
REMARK  6 active torsions:
REMARK  status: ('A' for Active; 'I' for Inactive)
REMARK    1  A    between atoms: C_1  and  C_2
REMARK    2  A    between atoms: N_10  and  C_11
REMARK    3  A    between atoms: C_11  and  C_13
REMARK    4  A    between atoms: C_11  and  C_14
REMARK    5  A    between atoms: C_14  and  C_15
REMARK    6  A    between atoms: C_14  and  C_16
REMARK                            x       y       z     vdW  Elec       q    Type
REMARK                         _______ _______ _______ _____ _____    ______ ____
ROOT
ATOM      1  C   UNL     1      -0.018   1.503   0.010  0.00  0.00    +0.075 C 
ATOM      2  C   UNL     1       0.002  -0.004   0.002  0.00  0.00    +0.101 A 
ATOM      3  N   UNL     1       0.010  -0.844  -1.014  0.00  0.00    -0.145 NA
ATOM      4  N   UNL     1       0.028  -2.086  -0.784  0.00  0.00    -0.126 NA
ATOM      5  C   UNL     1       0.040  -2.568   0.443  0.00  0.00    +0.189 A 
ATOM      6  S   UNL     1       0.031  -1.158   1.367  0.00  0.00    -0.036 S 
ATOM      7  N   UNL     1       0.060  -3.893   0.865  0.00  0.00    -0.247 N 
ATOM      8  C   UNL     1       0.070  -4.889  -0.043  0.00  0.00    +0.306 C 
ATOM      9  O   UNL     1       0.062  -4.630  -1.230  0.00  0.00    -0.252 OA
ATOM     10  N   UNL     1       0.089  -6.173   0.366  0.00  0.00    -0.296 N 
ATOM     11  H   UNL     1       0.066  -4.100   1.813  0.00  0.00    +0.158 HD
ATOM     12  H   UNL     1       0.096  -6.380   1.314  0.00  0.00    +0.151 HD
ENDROOT
BRANCH  10  13
ATOM     13  C   UNL     1       0.101  -7.256  -0.620  0.00  0.00    +0.074 C 
ATOM     14  C   UNL     1      -1.334  -7.568  -1.051  0.00  0.00    +0.028 C 
BRANCH  13  15
ATOM     15  C   UNL     1       0.730  -8.505   0.000  0.00  0.00    +0.003 C 
ATOM     16  C   UNL     1       0.742  -9.636  -1.030  0.00  0.00    +0.009 C 
ATOM     17  C   UNL     1       2.165  -8.193   0.431  0.00  0.00    +0.009 C 
ENDBRANCH  13  15
ENDBRANCH  10  13
TORSDOF 2
