REMARK  Name = ZINC28623817
REMARK  7 active torsions:
REMARK  status: ('A' for Active; 'I' for Inactive)
REMARK    1  A    between atoms: C_2  and  C_3
REMARK    2  A    between atoms: C_3  and  N_4
REMARK    3  A    between atoms: C_5  and  C_7
REMARK    4  A    between atoms: C_7  and  N_8
REMARK    5  A    between atoms: N_11  and  C_14
REMARK    6  A    between atoms: C_17  and  C_23
REMARK    7  A    between atoms: C_19  and  N_20
REMARK                            x       y       z     vdW  Elec       q    Type
REMARK                         _______ _______ _______ _____ _____    ______ ____
ROOT
ATOM      1  N   UNL     1       4.072  -1.181  -0.070  0.00  0.00    +0.387 N 
ATOM      2  C   UNL     1       4.065  -0.197   1.022  0.00  0.00    -0.059 C 
ATOM      3  C   UNL     1       2.702   0.498   1.071  0.00  0.00    +0.086 C 
ATOM      4  N   UNL     1       2.440   1.148  -0.221  0.00  0.00    -0.332 N 
ATOM      5  C   UNL     1       2.447   0.164  -1.313  0.00  0.00    +0.086 C 
ATOM      6  C   UNL     1       3.810  -0.531  -1.362  0.00  0.00    -0.059 C 
ATOM      7  H   UNL     1       3.263  -1.902   0.117  0.00  0.00    -0.081 HD
ENDROOT
BRANCH   4   8
ATOM      8  C   UNL     1       1.241   1.851  -0.192  0.00  0.00    +0.060 A 
ATOM      9  C   UNL     1       0.049   1.181   0.070  0.00  0.00    +0.026 A 
ATOM     10  C   UNL     1      -1.140   1.872   0.094  0.00  0.00    +0.015 A 
ATOM     11  C   UNL     1      -1.149   3.252  -0.133  0.00  0.00    +0.039 A 
ATOM     12  C   UNL     1       0.049   3.922  -0.395  0.00  0.00    +0.047 A 
ATOM     13  C   UNL     1       1.235   3.223  -0.424  0.00  0.00    +0.148 A 
BRANCH  11  14
ATOM     14  C   UNL     1      -2.421   3.998  -0.101  0.00  0.00    +0.242 C 
ATOM     15  O   UNL     1      -2.428   5.197  -0.304  0.00  0.00    -0.270 OA
ATOM     16  N   UNL     1      -3.576   3.350   0.152  0.00  0.00    -0.325 N 
ATOM     17  H   UNL     1      -4.525   3.907   0.175  0.00  0.00    +0.145 HD
ATOM     18  H   UNL     1      -3.570   2.266   0.335  0.00  0.00    +0.145 HD
ENDBRANCH  11  14
BRANCH  13  19
ATOM     19  N   UNL     1       2.504   3.932  -0.702  0.00  0.00    +0.058 N 
ATOM     20  O   UNL     1       2.499   5.133  -0.905  0.00  0.00    -0.126 OA
ATOM     21  O   UNL     1       3.554   3.314  -0.727  0.00  0.00    -0.126 OA
ENDBRANCH  13  19
ENDBRANCH   4   8
BRANCH   1  22
ATOM     22  C   UNL     1       5.339  -1.923  -0.101  0.00  0.00    +0.019 C 
BRANCH  22  24
ATOM     23  N   UNL     1       6.593  -3.448   1.389  0.00  0.00    -0.313 N 
ATOM     24  C   UNL     1       5.454  -2.773   1.138  0.00  0.00    +0.197 C 
ATOM     25  O   UNL     1       4.521  -2.850   1.909  0.00  0.00    -0.278 OA
ATOM     26  H   UNL     1       7.439  -3.378   0.690  0.00  0.00    +0.149 HD
BRANCH  23  27
ATOM     27  C   UNL     1       6.705  -4.274   2.594  0.00  0.00    +0.131 C 
BRANCH  27  29
ATOM     28  C   UNL     1       8.833  -4.756   3.689  0.00  0.00    +0.005 C 
ATOM     29  C   UNL     1       8.067  -4.916   2.638  0.00  0.00    -0.016 C 
ENDBRANCH  27  29
ENDBRANCH  23  27
ENDBRANCH  22  24
ENDBRANCH   1  22
TORSDOF 7
