REMARK  Name = ZINC40515155
REMARK  5 active torsions:
REMARK  status: ('A' for Active; 'I' for Inactive)
REMARK    1  A    between atoms: C_1  and  C_2
REMARK    2  A    between atoms: C_4  and  C_19
REMARK    3  A    between atoms: C_6  and  O_11
REMARK    4  A    between atoms: C_7  and  C_8
REMARK    5  A    between atoms: O_11  and  C_12
REMARK                            x       y       z     vdW  Elec       q    Type
REMARK                         _______ _______ _______ _____ _____    ______ ____
ROOT
ATOM      1  C   UNL     1      -0.096   1.507   0.023  0.00  0.00    +0.045 C 
ATOM      2  C   UNL     1      -0.076   0.001   0.011  0.00  0.00    -0.033 A 
ATOM      3  C   UNL     1      -0.112  -0.700  -1.183  0.00  0.00    +0.027 A 
ATOM      4  C   UNL     1      -0.092  -2.082  -1.161  0.00  0.00    +0.042 A 
ATOM      5  N   UNL     1      -0.040  -2.746  -0.022  0.00  0.00    -0.217 NA
ATOM      6  C   UNL     1      -0.003  -2.126   1.145  0.00  0.00    +0.231 A 
ATOM      7  C   UNL     1      -0.014  -0.725   1.205  0.00  0.00    +0.077 A 
ATOM      8  C   UNL     1      -0.132  -2.844  -2.461  0.00  0.00    +0.066 C 
ENDROOT
BRANCH   7   9
ATOM      9  C   UNL     1       0.033  -0.028   2.506  0.00  0.00    +0.100 C 
ATOM     10  N   UNL     1       1.115  -0.129   3.278  0.00  0.00    -0.387 N 
ATOM     11  N   UNL     1      -1.007   0.702   2.909  0.00  0.00    -0.344 N 
ATOM     12  H   UNL     1       1.872  -0.660   2.984  0.00  0.00    +0.157 HD
ATOM     13  H   UNL     1      -1.794   0.776   2.347  0.00  0.00    +0.144 HD
ATOM     14  H   UNL     1      -0.976   1.160   3.764  0.00  0.00    +0.144 HD
ATOM     15  H   UNL     1       1.146   0.329   4.132  0.00  0.00    +0.157 HD
ENDBRANCH   7   9
BRANCH   6  16
ATOM     16  O   UNL     1       0.050  -2.849   2.289  0.00  0.00    -0.437 OA
BRANCH  16  17
ATOM     17  C   UNL     1      -0.037  -4.202   2.195  0.00  0.00    +0.130 A 
ATOM     18  C   UNL     1       1.062  -4.941   1.783  0.00  0.00    +0.048 A 
ATOM     19  C   UNL     1       0.972  -6.316   1.688  0.00  0.00    +0.023 A 
ATOM     20  C   UNL     1      -0.214  -6.956   2.002  0.00  0.00    +0.041 A 
ATOM     21  C   UNL     1      -1.312  -6.220   2.413  0.00  0.00    +0.023 A 
ATOM     22  C   UNL     1      -1.223  -4.845   2.515  0.00  0.00    +0.048 A 
ATOM     23 CL   UNL     1      -0.326  -8.684   1.880  0.00  0.00    -0.084 Cl
ENDBRANCH  16  17
ENDBRANCH   6  16
TORSDOF 3
