REMARK  Name = ZINC66318424
REMARK  8 active torsions:
REMARK  status: ('A' for Active; 'I' for Inactive)
REMARK    1  A    between atoms: C_1  and  C_2
REMARK    2  A    between atoms: C_6  and  N_11
REMARK    3  A    between atoms: C_7  and  C_8
REMARK    4  A    between atoms: C_12  and  C_14
REMARK    5  A    between atoms: C_15  and  C_16
REMARK    6  A    between atoms: C_15  and  C_17
REMARK    7  A    between atoms: C_22  and  O_23
REMARK    8  A    between atoms: O_23  and  C_24
REMARK                            x       y       z     vdW  Elec       q    Type
REMARK                         _______ _______ _______ _____ _____    ______ ____
ROOT
ATOM      1  N   UNL     1       0.496  -2.876   2.389  0.00  0.00    -0.281 N 
ATOM      2  C   UNL     1       0.433  -4.222   2.397  0.00  0.00    +0.241 C 
ATOM      3  O   UNL     1       0.673  -4.849   1.382  0.00  0.00    -0.270 OA
ATOM      4  H   UNL     1       0.353  -2.379   3.210  0.00  0.00    +0.155 HD
ENDROOT
BRANCH   1  10
ATOM      5  C   UNL     1      -0.083   1.108  -0.470  0.00  0.00    +0.044 C 
ATOM      6  C   UNL     1       0.499  -0.259  -0.217  0.00  0.00    -0.037 A 
ATOM      7  C   UNL     1       1.308  -0.851  -1.163  0.00  0.00    +0.004 A 
ATOM      8  C   UNL     1       1.847  -2.106  -0.936  0.00  0.00    +0.002 A 
ATOM      9  C   UNL     1       1.580  -2.779   0.239  0.00  0.00    +0.024 A 
ATOM     10  C   UNL     1       0.767  -2.199   1.204  0.00  0.00    +0.046 A 
ATOM     11  C   UNL     1       0.224  -0.924   0.980  0.00  0.00    +0.061 A 
BRANCH  11  12
ATOM     12  C   UNL     1      -0.635  -0.294   1.999  0.00  0.00    +0.244 C 
ATOM     13  O   UNL     1      -1.837  -0.477   1.978  0.00  0.00    -0.270 OA
ATOM     14  N   UNL     1      -0.089   0.485   2.954  0.00  0.00    -0.325 N 
ATOM     15  H   UNL     1       0.870   0.631   2.970  0.00  0.00    +0.145 HD
ATOM     16  H   UNL     1      -0.654   0.899   3.624  0.00  0.00    +0.145 HD
ENDBRANCH  11  12
ENDBRANCH   1  10
BRANCH   2  17
ATOM     17  C   UNL     1       0.076  -4.930   3.626  0.00  0.00    +0.071 C 
ATOM     18  C   UNL     1      -0.109  -6.267   3.605  0.00  0.00    -0.035 C 
ATOM     19  C   UNL     1      -0.105  -7.008   2.293  0.00  0.00    +0.044 C 
BRANCH  18  20
ATOM     20  C   UNL     1      -0.315  -7.000   4.862  0.00  0.00    +0.020 A 
ATOM     21  C   UNL     1      -1.544  -6.927   5.527  0.00  0.00    +0.012 A 
ATOM     22  C   UNL     1      -1.729  -7.617   6.704  0.00  0.00    +0.001 A 
ATOM     23  C   UNL     1      -0.704  -8.383   7.235  0.00  0.00    +0.004 A 
ATOM     24  C   UNL     1       0.515  -8.465   6.590  0.00  0.00    +0.046 A 
ATOM     25  C   UNL     1       0.719  -7.783   5.400  0.00  0.00    +0.127 A 
BRANCH  25  26
ATOM     26  O   UNL     1       1.914  -7.866   4.763  0.00  0.00    -0.495 OA
ATOM     27  C   UNL     1       2.918  -8.682   5.371  0.00  0.00    +0.277 C 
ENDBRANCH  25  26
ENDBRANCH  18  20
ENDBRANCH   2  17
TORSDOF 5
