REMARK  Name = ZINC09087060
REMARK  4 active torsions:
REMARK  status: ('A' for Active; 'I' for Inactive)
REMARK    1  A    between atoms: C_11  and  C_15
REMARK    2  A    between atoms: C_16  and  O_29
REMARK    3  A    between atoms: C_18  and  O_28
REMARK    4  A    between atoms: N_19  and  C_22
REMARK                            x       y       z     vdW  Elec       q    Type
REMARK                         _______ _______ _______ _____ _____    ______ ____
ROOT
ATOM      1  C   UNL     1       2.368   0.074  -0.021  0.00  0.00    +0.070 A 
ATOM      2  C   UNL     1       2.292   1.456  -0.012  0.00  0.00    +0.224 A 
ATOM      3  N   UNL     1       1.096   2.054   0.003  0.00  0.00    -0.161 NA
ATOM      4  C   UNL     1      -0.016   1.354   0.009  0.00  0.00    +0.302 A 
ATOM      5  N   UNL     1       0.002  -0.004   0.002  0.00  0.00    -0.260 N 
ATOM      6  C   UNL     1       1.179  -0.665  -0.013  0.00  0.00    +0.262 A 
ATOM      7  O   UNL     1       1.205  -1.886  -0.021  0.00  0.00    -0.267 OA
ENDROOT
BRANCH   1  18
ATOM      8  C   UNL     1       4.675  -4.322   4.645  0.00  0.00    +0.001 A 
ATOM      9  C   UNL     1       4.174  -3.260   5.378  0.00  0.00    +0.002 A 
ATOM     10  C   UNL     1       3.769  -2.078   4.784  0.00  0.00    +0.026 A 
ATOM     11  C   UNL     1       3.886  -1.996   3.398  0.00  0.00    +0.047 A 
ATOM     12  C   UNL     1       4.401  -3.087   2.650  0.00  0.00    +0.003 A 
ATOM     13  C   UNL     1       4.803  -4.270   3.279  0.00  0.00    +0.010 A 
ATOM     14  C   UNL     1       4.383  -2.665   1.268  0.00  0.00    -0.022 A 
ATOM     15  C   UNL     1       3.886  -1.404   1.242  0.00  0.00    +0.011 A 
ATOM     16  N   UNL     1       3.586  -1.000   2.512  0.00  0.00    -0.359 N 
ATOM     17  H   UNL     1       3.219  -0.134   2.748  0.00  0.00    +0.166 HD
ATOM     18  C   UNL     1       3.705  -0.621  -0.037  0.00  0.00    +0.018 C 
ATOM     19  C   UNL     1       4.963  -2.402  -1.111  0.00  0.00    -0.076 C 
ATOM     20  C   UNL     1       4.816  -3.415   0.033  0.00  0.00    +0.018 C 
ATOM     21  N   UNL     1       3.753  -1.557  -1.182  0.00  0.00    +0.388 N 
ATOM     22  H   UNL     1       3.768  -1.019  -2.057  0.00  0.00    -0.084 HD
ATOM     23  H   UNL     1       2.920  -2.157  -1.163  0.00  0.00    -0.084 HD
ENDBRANCH   1  18
BRANCH   5  24
ATOM     24  C   UNL     1      -1.257  -0.752   0.010  0.00  0.00    +0.095 C 
ATOM     25  C   UNL     1      -2.076  -0.386  -1.230  0.00  0.00    +0.025 C 
ATOM     26  C   UNL     1      -3.391  -1.168  -1.221  0.00  0.00    +0.002 C 
ATOM     27  C   UNL     1      -4.186  -0.815   0.038  0.00  0.00    +0.000 C 
ATOM     28  C   UNL     1      -3.368  -1.181   1.277  0.00  0.00    +0.002 C 
ATOM     29  C   UNL     1      -2.052  -0.400   1.269  0.00  0.00    +0.025 C 
ENDBRANCH   5  24
BRANCH   4  30
ATOM     30  O   UNL     1      -1.201   1.998   0.018  0.00  0.00    -0.479 OA
ATOM     31  H   UNL     1      -1.176   2.965   0.024  0.00  0.00    +0.295 HD
ENDBRANCH   4  30
BRANCH   2  32
ATOM     32  O   UNL     1       3.423   2.199  -0.018  0.00  0.00    -0.492 OA
ATOM     33  H   UNL     1       3.267   3.153  -0.011  0.00  0.00    +0.294 HD
ENDBRANCH   2  32
TORSDOF 4
