REMARK  Name = ZINC51562840
REMARK  5 active torsions:
REMARK  status: ('A' for Active; 'I' for Inactive)
REMARK    1  A    between atoms: C_3  and  C_25
REMARK    2  A    between atoms: N_5  and  C_7
REMARK    3  A    between atoms: C_7  and  C_8
REMARK    4  A    between atoms: C_16  and  C_18
REMARK    5  A    between atoms: C_18  and  N_19
REMARK                            x       y       z     vdW  Elec       q    Type
REMARK                         _______ _______ _______ _____ _____    ______ ____
ROOT
ATOM      1  C   UNL     1       0.932  -2.796   0.064  0.00  0.00    +0.199 C 
ATOM      2  O   UNL     1       0.338  -2.619  -0.978  0.00  0.00    -0.278 OA
ATOM      3  N   UNL     1       0.979  -4.027   0.613  0.00  0.00    -0.300 N 
ATOM      4  C   UNL     1       1.690  -4.255   1.878  0.00  0.00    +0.126 C 
ATOM      5  C   UNL     1       0.720  -4.902   2.875  0.00  0.00    +0.127 C 
ATOM      6  N   UNL     1       0.061  -6.039   2.218  0.00  0.00    -0.297 N 
ATOM      7  C   UNL     1      -0.650  -5.811   0.952  0.00  0.00    +0.127 C 
ATOM      8  C   UNL     1       0.315  -5.163  -0.042  0.00  0.00    +0.126 C 
ATOM      9  C   UNL     1       0.108  -7.270   2.766  0.00  0.00    +0.230 C 
ATOM     10  O   UNL     1       0.698  -7.446   3.811  0.00  0.00    -0.274 OA
ENDROOT
BRANCH   1  11
ATOM     11  C   UNL     1       1.618  -1.641   0.747  0.00  0.00    +0.020 C 
BRANCH  11  15
ATOM     12  C   UNL     1      -0.019   1.536   0.011  0.00  0.00    -0.020 C 
ATOM     13  C   UNL     1       1.468   1.960  -0.001  0.00  0.00    -0.008 C 
ATOM     14  C   UNL     1       2.191   0.705   0.550  0.00  0.00    +0.020 C 
ATOM     15  N   UNL     1       1.421  -0.418  -0.044  0.00  0.00    +0.393 N 
ATOM     16  C   UNL     1       0.002  -0.004   0.002  0.00  0.00    -0.077 C 
ATOM     17  H   UNL     1       1.708  -0.571  -0.999  0.00  0.00    -0.080 HD
BRANCH  14  18
ATOM     18  C   UNL     1       3.625   0.673   0.090  0.00  0.00    +0.197 C 
ATOM     19  O   UNL     1       4.022  -0.245  -0.597  0.00  0.00    -0.278 OA
ATOM     20  N   UNL     1       4.468   1.664   0.443  0.00  0.00    -0.331 N 
ATOM     21  H   UNL     1       4.151   2.397   0.992  0.00  0.00    +0.145 HD
ATOM     22  H   UNL     1       5.392   1.643   0.147  0.00  0.00    +0.145 HD
ENDBRANCH  14  18
ENDBRANCH  11  15
ENDBRANCH   1  11
BRANCH   9  23
ATOM     23  C   UNL     1      -0.573  -8.426   2.081  0.00  0.00    +0.180 C 
BRANCH  23  24
ATOM     24  N   UNL     1      -0.378  -9.648   2.872  0.00  0.00    -0.290 NA
ATOM     25  C   UNL     1       1.038 -10.044   2.889  0.00  0.00    +0.113 C 
ATOM     26  C   UNL     1       1.205 -11.284   3.771  0.00  0.00    +0.175 C 
ATOM     27  O   UNL     1       0.357 -12.328   3.284  0.00  0.00    -0.377 OA
ATOM     28  C   UNL     1      -1.029 -11.976   3.255  0.00  0.00    +0.175 C 
ATOM     29  C   UNL     1      -1.219 -10.743   2.368  0.00  0.00    +0.113 C 
ENDBRANCH  23  24
ENDBRANCH   9  23
TORSDOF 5
