REMARK  Name = ZINC52447444
REMARK  11 active torsions:
REMARK  status: ('A' for Active; 'I' for Inactive)
REMARK    1  A    between atoms: C_1  and  C_2
REMARK    2  A    between atoms: C_2  and  C_3
REMARK    3  A    between atoms: N_9  and  C_10
REMARK    4  A    between atoms: C_10  and  C_11
REMARK    5  A    between atoms: C_13  and  C_17
REMARK    6  A    between atoms: C_14  and  C_16
REMARK    7  A    between atoms: C_17  and  N_18
REMARK    8  A    between atoms: N_18  and  C_19
REMARK    9  A    between atoms: C_19  and  C_20
REMARK   10  A    between atoms: C_19  and  C_21
REMARK   11  A    between atoms: C_19  and  C_22
REMARK                            x       y       z     vdW  Elec       q    Type
REMARK                         _______ _______ _______ _____ _____    ______ ____
ROOT
ATOM      1  C   UNL     1      -2.726   1.387  -2.863  0.00  0.00    +0.089 A 
ATOM      2  C   UNL     1      -4.041   1.581  -3.068  0.00  0.00    +0.044 A 
ATOM      3  C   UNL     1      -4.210   1.823  -4.450  0.00  0.00    -0.024 A 
ATOM      4  C   UNL     1      -2.987   1.762  -5.008  0.00  0.00    +0.103 A 
ATOM      5  O   UNL     1      -2.092   1.503  -4.042  0.00  0.00    -0.467 OA
ATOM      6  C   UNL     1      -2.675   1.956  -6.470  0.00  0.00    +0.086 C 
ENDROOT
BRANCH   1   7
ATOM      7  C   UNL     1      -2.074   1.094  -1.537  0.00  0.00    -0.003 C 
BRANCH   7  13
ATOM      8  C   UNL     1      -1.292  -0.646  -0.086  0.00  0.00    -0.068 C 
ATOM      9  C   UNL     1      -1.166  -2.160   0.096  0.00  0.00    -0.015 C 
ATOM     10  C   UNL     1      -2.565  -2.778   0.172  0.00  0.00    -0.003 C 
ATOM     11  C   UNL     1      -3.345  -2.408  -1.093  0.00  0.00    -0.019 C 
ATOM     12  C   UNL     1      -3.390  -0.885  -1.231  0.00  0.00    -0.078 C 
ATOM     13  N   UNL     1      -2.023  -0.358  -1.326  0.00  0.00    +0.386 N 
ATOM     14  H   UNL     1      -1.550  -0.793  -2.103  0.00  0.00    -0.081 HD
BRANCH   8  16
ATOM     15  C   UNL     1       0.834  -0.245   1.164  0.00  0.00    +0.002 C 
ATOM     16  C   UNL     1       0.104  -0.024  -0.163  0.00  0.00    -0.019 C 
ENDBRANCH   8  16
ENDBRANCH   7  13
ENDBRANCH   1   7
BRANCH   3  17
ATOM     17  C   UNL     1      -5.509   2.097  -5.163  0.00  0.00    -0.043 C 
BRANCH  17  18
ATOM     18  N   UNL     1      -5.978   0.867  -5.816  0.00  0.00    +0.385 N 
ATOM     19  H   UNL     1      -5.287   0.557  -6.483  0.00  0.00    -0.085 HD
ATOM     20  H   UNL     1      -6.120   0.150  -5.121  0.00  0.00    -0.085 HD
BRANCH  18  21
ATOM     21  C   UNL     1      -7.245   1.134  -6.510  0.00  0.00    -0.077 C 
ATOM     22  C   UNL     1      -7.029   2.221  -7.565  0.00  0.00    -0.011 C 
ATOM     23  C   UNL     1      -7.733  -0.147  -7.191  0.00  0.00    -0.011 C 
ATOM     24  C   UNL     1      -8.291   1.605  -5.498  0.00  0.00    -0.011 C 
ENDBRANCH  18  21
ENDBRANCH  17  18
ENDBRANCH   3  17
TORSDOF 6
