REMARK  Name = ZINC38610405
REMARK  4 active torsions:
REMARK  status: ('A' for Active; 'I' for Inactive)
REMARK    1  A    between atoms: C_7  and  C_10
REMARK    2  A    between atoms: N_11  and  N_12
REMARK    3  A    between atoms: C_13  and  C_15
REMARK    4  A    between atoms: C_15  and  N_16
REMARK                            x       y       z     vdW  Elec       q    Type
REMARK                         _______ _______ _______ _____ _____    ______ ____
ROOT
ATOM      1  N   UNL     1       0.255  -5.437  -0.030  0.00  0.00    -0.205 N 
ATOM      2  C   UNL     1       0.733  -6.697  -0.041  0.00  0.00    +0.255 C 
ATOM      3  O   UNL     1       1.930  -6.892  -0.054  0.00  0.00    -0.272 OA
ATOM      4  H   UNL     1      -0.702  -5.281  -0.020  0.00  0.00    +0.177 HD
ENDROOT
BRANCH   1   6
ATOM      5  C   UNL     1       0.677  -3.128  -0.022  0.00  0.00    +0.136 C 
ATOM      6  N   UNL     1       1.141  -4.352  -0.033  0.00  0.00    -0.188 NA
BRANCH   5  13
ATOM      7  C   UNL     1      -0.016   1.353   0.009  0.00  0.00    +0.001 A 
ATOM      8  C   UNL     1       1.164   2.102   0.002  0.00  0.00    +0.002 A 
ATOM      9  C   UNL     1       2.384   1.514  -0.013  0.00  0.00    +0.026 A 
ATOM     10  C   UNL     1       2.485   0.097  -0.022  0.00  0.00    +0.043 A 
ATOM     11  N   UNL     1       3.531  -0.702  -0.037  0.00  0.00    -0.380 N 
ATOM     12  C   UNL     1       3.076  -2.096  -0.040  0.00  0.00    +0.150 C 
ATOM     13  C   UNL     1       1.565  -2.042  -0.024  0.00  0.00    +0.000 C 
ATOM     14  C   UNL     1       1.238  -0.688  -0.013  0.00  0.00    +0.004 A 
ATOM     15  C   UNL     1       0.002  -0.004   0.002  0.00  0.00    +0.010 A 
ATOM     16  H   UNL     1       4.458  -0.414  -0.045  0.00  0.00    +0.160 HD
ENDBRANCH   5  13
ENDBRANCH   1   6
BRANCH   2  17
ATOM     17  C   UNL     1      -0.220  -7.864  -0.038  0.00  0.00    +0.265 C 
BRANCH  17  18
ATOM     18  N   UNL     1       0.540  -9.116  -0.052  0.00  0.00    -0.153 N 
ATOM     19  N   UNL     1       0.968  -9.821  -1.190  0.00  0.00    -0.115 NA
ATOM     20  C   UNL     1       1.611 -10.878  -0.740  0.00  0.00    +0.253 A 
ATOM     21  N   UNL     1       1.582 -10.828   0.593  0.00  0.00    -0.092 NA
ATOM     22  N   UNL     1       0.949  -9.777   0.977  0.00  0.00    -0.044 NA
ATOM     23  N   UNL     1       2.214 -11.870  -1.516  0.00  0.00    -0.325 N 
ATOM     24  H   UNL     1       2.180 -11.816  -2.484  0.00  0.00    +0.145 HD
ATOM     25  H   UNL     1       2.666 -12.613  -1.087  0.00  0.00    +0.145 HD
ENDBRANCH  17  18
ENDBRANCH   2  17
TORSDOF 4
