REMARK  Name = ZINC15565853
REMARK  5 active torsions:
REMARK  status: ('A' for Active; 'I' for Inactive)
REMARK    1  A    between atoms: C_1  and  C_2
REMARK    2  A    between atoms: C_2  and  C_4
REMARK    3  A    between atoms: C_2  and  N_35
REMARK    4  A    between atoms: C_10  and  C_11
REMARK    5  A    between atoms: C_10  and  N_35
REMARK                            x       y       z     vdW  Elec       q    Type
REMARK                         _______ _______ _______ _____ _____    ______ ____
ROOT
ATOM      1  C   UNL     1       2.458   3.933   0.001  0.00  0.00    -0.045 C 
ENDROOT
BRANCH   1   2
ATOM      2  C   UNL     1       1.161   3.166   0.008  0.00  0.00    -0.047 A 
ATOM      3  C   UNL     1      -0.043   3.847   0.023  0.00  0.00    +0.052 A 
ATOM      4  C   UNL     1      -1.237   3.145   0.030  0.00  0.00    +0.166 A 
ATOM      5  C   UNL     1      -1.221   1.752   0.017  0.00  0.00    +0.167 A 
ATOM      6  C   UNL     1      -0.013   1.076   0.008  0.00  0.00    +0.065 A 
ATOM      7  C   UNL     1       1.176   1.784   0.000  0.00  0.00    +0.023 A 
ATOM      8 BR   UNL     1       2.825   0.858  -0.020  0.00  0.00    -0.050 Br
ATOM      9  O   UNL     1      -2.510   1.301   0.032  0.00  0.00    -0.453 OA
ATOM     10  C   UNL     1      -3.306   2.423   0.458  0.00  0.00    +0.466 C 
ATOM     11  O   UNL     1      -2.535   3.567   0.044  0.00  0.00    -0.453 OA
ENDBRANCH   1   2
BRANCH   1  12
ATOM     12  N   UNL     1       3.070   3.861   1.341  0.00  0.00    +0.386 N 
ATOM     13  H   UNL     1       2.428   4.270   2.029  0.00  0.00    -0.085 HD
ATOM     14  H   UNL     1       3.247   2.878   1.580  0.00  0.00    -0.085 HD
BRANCH  12  16
ATOM     15  C   UNL     1       5.473   3.698   0.867  0.00  0.00    -0.009 C 
ATOM     16  C   UNL     1       4.344   4.604   1.363  0.00  0.00    -0.044 C 
BRANCH  16  17
ATOM     17  C   UNL     1       4.636   5.043   2.774  0.00  0.00    -0.062 A 
ATOM     18  C   UNL     1       4.367   4.195   3.832  0.00  0.00    +0.002 A 
ATOM     19  C   UNL     1       4.639   4.597   5.126  0.00  0.00    +0.000 A 
ATOM     20  C   UNL     1       5.172   5.850   5.364  0.00  0.00    +0.000 A 
ATOM     21  C   UNL     1       5.437   6.700   4.306  0.00  0.00    +0.000 A 
ATOM     22  C   UNL     1       5.169   6.297   3.012  0.00  0.00    +0.002 A 
ENDBRANCH  16  17
ENDBRANCH  12  16
ENDBRANCH   1  12
TORSDOF 4
