REMARK  Name = ZINC39747188
REMARK  3 active torsions:
REMARK  status: ('A' for Active; 'I' for Inactive)
REMARK    1  A    between atoms: C_7  and  C_10
REMARK    2  A    between atoms: N_11  and  N_12
REMARK    3  A    between atoms: N_12  and  C_13
REMARK                            x       y       z     vdW  Elec       q    Type
REMARK                         _______ _______ _______ _____ _____    ______ ____
ROOT
ATOM      1  C   UNL     1       0.679  -3.127  -0.022  0.00  0.00    +0.136 C 
ATOM      2  N   UNL     1       1.143  -4.354  -0.034  0.00  0.00    -0.191 NA
ENDROOT
BRANCH   1   9
ATOM      3  C   UNL     1      -0.016   1.354   0.009  0.00  0.00    +0.001 A 
ATOM      4  C   UNL     1       1.163   2.101   0.002  0.00  0.00    +0.002 A 
ATOM      5  C   UNL     1       2.384   1.511  -0.013  0.00  0.00    +0.026 A 
ATOM      6  C   UNL     1       2.483   0.095  -0.022  0.00  0.00    +0.043 A 
ATOM      7  N   UNL     1       3.530  -0.705  -0.037  0.00  0.00    -0.380 N 
ATOM      8  C   UNL     1       3.075  -2.099  -0.040  0.00  0.00    +0.150 C 
ATOM      9  C   UNL     1       1.563  -2.045  -0.025  0.00  0.00    +0.000 C 
ATOM     10  C   UNL     1       1.236  -0.687  -0.013  0.00  0.00    +0.004 A 
ATOM     11  C   UNL     1       0.002  -0.004   0.002  0.00  0.00    +0.010 A 
ATOM     12  H   UNL     1       4.457  -0.418  -0.044  0.00  0.00    +0.160 HD
ENDBRANCH   1   9
BRANCH   2  13
ATOM     13  N   UNL     1       0.327  -5.353  -0.031  0.00  0.00    -0.215 N 
ATOM     14  H   UNL     1      -0.630  -5.197  -0.021  0.00  0.00    +0.173 HD
BRANCH  13  15
ATOM     15  C   UNL     1       0.846  -6.723  -0.044  0.00  0.00    +0.372 C 
ATOM     16  N   UNL     1      -0.097  -7.627   0.629  0.00  0.00    -0.290 N 
ATOM     17  C   UNL     1      -0.490  -8.569  -0.332  0.00  0.00    +0.073 A 
ATOM     18  C   UNL     1      -1.361  -9.648  -0.247  0.00  0.00    +0.027 A 
ATOM     19  C   UNL     1      -1.588 -10.442  -1.355  0.00  0.00    +0.002 A 
ATOM     20  C   UNL     1      -0.948 -10.164  -2.549  0.00  0.00    +0.004 A 
ATOM     21  C   UNL     1      -0.081  -9.092  -2.639  0.00  0.00    +0.048 A 
ATOM     22  C   UNL     1       0.154  -8.287  -1.532  0.00  0.00    +0.146 A 
ATOM     23  O   UNL     1       0.955  -7.195  -1.389  0.00  0.00    -0.452 OA
ATOM     24  H   UNL     1      -0.388  -7.581   1.553  0.00  0.00    +0.151 HD
ENDBRANCH  13  15
ENDBRANCH   2  13
TORSDOF 3
