REMARK  Name = ZINC08662199
REMARK  7 active torsions:
REMARK  status: ('A' for Active; 'I' for Inactive)
REMARK    1  A    between atoms: C_1  and  C_2
REMARK    2  A    between atoms: C_6  and  C_19
REMARK    3  A    between atoms: N_8  and  C_9
REMARK    4  A    between atoms: C_9  and  C_10
REMARK    5  A    between atoms: C_10  and  C_11
REMARK    6  A    between atoms: C_22  and  C_25
REMARK    7  A    between atoms: C_25  and  O_26
REMARK                            x       y       z     vdW  Elec       q    Type
REMARK                         _______ _______ _______ _____ _____    ______ ____
ROOT
ATOM      1  C   UNL     1       0.580   7.276   0.035  0.00  0.00    +0.069 C 
ATOM      2  C   UNL     1       0.803   5.786   0.025  0.00  0.00    +0.081 A 
ATOM      3  C   UNL     1       2.096   5.282   0.010  0.00  0.00    +0.159 A 
ATOM      4  C   UNL     1       2.279   3.886   0.007  0.00  0.00    +0.027 A 
ATOM      5  C   UNL     1       3.635   3.333  -0.010  0.00  0.00    +0.030 A 
ATOM      6  C   UNL     1       4.672   4.197   0.254  0.00  0.00    +0.097 A 
ATOM      7  C   UNL     1       4.324   5.610   0.529  0.00  0.00    +0.207 A 
ATOM      8  N   UNL     1       5.100   6.362   1.261  0.00  0.00    -0.355 N 
ATOM      9  O   UNL     1       3.173   6.101  -0.001  0.00  0.00    -0.437 OA
ATOM     10  C   UNL     1       1.147   3.062   0.008  0.00  0.00    +0.007 A 
ATOM     11  C   UNL     1      -0.099   3.655   0.023  0.00  0.00    +0.117 A 
ATOM     12  N   UNL     1      -0.231   4.969   0.031  0.00  0.00    -0.256 NA
ATOM     13  H   UNL     1       6.028   5.948   1.683  0.00  0.00    +0.163 HD
ENDROOT
BRANCH   6  14
ATOM     14  C   UNL     1       6.072   3.737   0.263  0.00  0.00    +0.247 C 
ATOM     15  O   UNL     1       6.329   2.571   0.033  0.00  0.00    -0.270 OA
ATOM     16  N   UNL     1       7.066   4.608   0.525  0.00  0.00    -0.325 N 
ATOM     17  H   UNL     1       8.111   4.264   0.532  0.00  0.00    +0.145 HD
ATOM     18  H   UNL     1       6.833   5.662   0.733  0.00  0.00    +0.145 HD
ENDBRANCH   6  14
BRANCH   8  19
ATOM     19  C   UNL     1       4.735   7.756   1.521  0.00  0.00    +0.120 C 
BRANCH  19  20
ATOM     20  C   UNL     1       4.584   7.972   3.028  0.00  0.00    +0.056 C 
BRANCH  20  21
ATOM     21  C   UNL     1       4.209   9.407   3.296  0.00  0.00    -0.046 A 
ATOM     22  C   UNL     1       5.197  10.353   3.498  0.00  0.00    +0.005 A 
ATOM     23  C   UNL     1       4.853  11.670   3.738  0.00  0.00    +0.020 A 
ATOM     24  C   UNL     1       3.521  12.040   3.786  0.00  0.00    +0.041 A 
ATOM     25  C   UNL     1       2.533  11.091   3.589  0.00  0.00    +0.020 A 
ATOM     26  C   UNL     1       2.878   9.775   3.344  0.00  0.00    +0.005 A 
ATOM     27 CL   UNL     1       3.089  13.693   4.094  0.00  0.00    -0.084 Cl
ENDBRANCH  20  21
ENDBRANCH  19  20
ENDBRANCH   8  19
BRANCH  10  28
ATOM     28  C   UNL     1       1.286   1.562  -0.002  0.00  0.00    +0.193 C 
BRANCH  28  29
ATOM     29  O   UNL     1      -0.011   0.963   0.007  0.00  0.00    -0.390 OA
ATOM     30  H   UNL     1      -0.111  -0.133   0.002  0.00  0.00    +0.210 HD
ENDBRANCH  28  29
ENDBRANCH  10  28
TORSDOF 6
