REMARK  Name = ZINC01175872
REMARK  6 active torsions:
REMARK  status: ('A' for Active; 'I' for Inactive)
REMARK    1  A    between atoms: C_1  and  C_2
REMARK    2  A    between atoms: N_4  and  C_5
REMARK    3  A    between atoms: C_8  and  N_11
REMARK    4  A    between atoms: N_11  and  C_12
REMARK    5  A    between atoms: C_12  and  N_14
REMARK    6  A    between atoms: C_15  and  C_17
REMARK                            x       y       z     vdW  Elec       q    Type
REMARK                         _______ _______ _______ _____ _____    ______ ____
ROOT
ATOM      1  C   UNL     1      -4.718   5.143  -0.087  0.00  0.00    +0.141 C 
ATOM      2  S   UNL     1      -3.211   5.951  -0.155  0.00  0.00    -0.018 S 
ENDROOT
BRANCH   1   3
ATOM      3  N   UNL     1      -5.865   5.847  -0.165  0.00  0.00    -0.264 N 
ATOM      4  C   UNL     1      -5.824   7.188  -0.296  0.00  0.00    +0.250 C 
ATOM      5  O   UNL     1      -4.754   7.762  -0.344  0.00  0.00    -0.270 OA
ATOM      6  H   UNL     1      -6.719   5.389  -0.126  0.00  0.00    +0.157 HD
BRANCH   4   7
ATOM      7  C   UNL     1      -7.078   7.958  -0.381  0.00  0.00    +0.045 A 
ATOM      8  C   UNL     1      -8.306   7.338  -0.185  0.00  0.00    +0.014 A 
ATOM      9  C   UNL     1      -9.485   8.066  -0.265  0.00  0.00    +0.001 A 
ATOM     10  C   UNL     1      -9.488   9.401  -0.536  0.00  0.00    +0.008 A 
ATOM     11  C   UNL     1      -8.283  10.092  -0.745  0.00  0.00    -0.017 A 
ATOM     12  C   UNL     1      -7.055   9.391  -0.667  0.00  0.00    -0.006 A 
ATOM     13  C   UNL     1      -5.853  10.076  -0.879  0.00  0.00    +0.009 A 
ATOM     14  C   UNL     1      -5.877  11.412  -1.149  0.00  0.00    +0.001 A 
ATOM     15  C   UNL     1      -7.082  12.105  -1.222  0.00  0.00    +0.001 A 
ATOM     16  C   UNL     1      -8.270  11.470  -1.025  0.00  0.00    +0.008 A 
ENDBRANCH   4   7
ENDBRANCH   1   3
BRANCH   1  17
ATOM     17  N   UNL     1      -4.759   3.802   0.044  0.00  0.00    -0.297 N 
ATOM     18  H   UNL     1      -5.612   3.349   0.138  0.00  0.00    +0.154 HD
BRANCH  17  22
ATOM     19  C   UNL     1      -1.218   1.599   0.048  0.00  0.00    +0.033 A 
ATOM     20  C   UNL     1      -2.308   1.161  -0.694  0.00  0.00    +0.025 A 
ATOM     21  C   UNL     1      -3.482   1.888  -0.691  0.00  0.00    +0.025 A 
ATOM     22  C   UNL     1      -3.570   3.062   0.045  0.00  0.00    +0.033 A 
ATOM     23  C   UNL     1      -2.478   3.503   0.783  0.00  0.00    +0.025 A 
ATOM     24  C   UNL     1      -1.306   2.774   0.784  0.00  0.00    +0.025 A 
BRANCH  19  28
ATOM     25  C   UNL     1       1.963  -0.063   1.189  0.00  0.00    +0.109 C 
ATOM     26  C   UNL     1       0.716   0.783   1.170  0.00  0.00    +0.214 C 
ATOM     27  O   UNL     1       0.383   1.395   2.163  0.00  0.00    -0.276 OA
ATOM     28  N   UNL     1      -0.029   0.860   0.049  0.00  0.00    -0.286 N 
ATOM     29  H   UNL     1       0.261   0.406  -0.758  0.00  0.00    +0.155 HD
ENDBRANCH  19  28
ENDBRANCH  17  22
ENDBRANCH   1  17
TORSDOF 5
