REMARK  Name = ZINC37611352
REMARK  6 active torsions:
REMARK  status: ('A' for Active; 'I' for Inactive)
REMARK    1  A    between atoms: C_1  and  N_2
REMARK    2  A    between atoms: N_2  and  C_3
REMARK    3  A    between atoms: C_3  and  C_4
REMARK    4  A    between atoms: C_4  and  C_5
REMARK    5  A    between atoms: C_5  and  C_6
REMARK    6  A    between atoms: N_8  and  C_9
REMARK                            x       y       z     vdW  Elec       q    Type
REMARK                         _______ _______ _______ _____ _____    ______ ____
ROOT
ATOM      1  C   UNL     1       2.704  -3.911  -2.614  0.00  0.00    +0.217 C 
ATOM      2  O   UNL     1       3.335  -4.438  -1.723  0.00  0.00    -0.275 OA
ATOM      3  N   UNL     1       2.030  -4.668  -3.502  0.00  0.00    -0.283 N 
ATOM      4  H   UNL     1       1.467  -4.247  -4.170  0.00  0.00    +0.155 HD
ENDROOT
BRANCH   3   5
ATOM      5  C   UNL     1       2.142  -6.061  -3.460  0.00  0.00    +0.080 A 
ATOM      6  C   UNL     1       3.060  -6.694  -4.240  0.00  0.00    +0.066 A 
ATOM      7  C   UNL     1       3.197  -8.082  -4.221  0.00  0.00    +0.044 A 
ATOM      8  C   UNL     1       2.423  -8.860  -3.426  0.00  0.00    +0.071 A 
ATOM      9  C   UNL     1       1.441  -8.269  -2.583  0.00  0.00    +0.120 A 
ATOM     10  C   UNL     1       1.298  -6.819  -2.595  0.00  0.00    +0.124 A 
ATOM     11  N   UNL     1       0.354  -6.378  -1.763  0.00  0.00    -0.189 NA
ATOM     12  S   UNL     1      -0.253  -7.691  -1.060  0.00  0.00    +0.117 S 
ATOM     13  N   UNL     1       0.599  -8.873  -1.743  0.00  0.00    -0.189 NA
ATOM     14 CL   UNL     1       2.630 -10.583  -3.438  0.00  0.00    -0.081 Cl
ATOM     15 CL   UNL     1       4.083  -5.754  -5.281  0.00  0.00    -0.082 Cl
ENDBRANCH   3   5
BRANCH   1  16
ATOM     16  C   UNL     1       2.674  -2.409  -2.729  0.00  0.00    +0.094 C 
BRANCH  16  17
ATOM     17  C   UNL     1       3.514  -1.794  -1.608  0.00  0.00    -0.010 C 
BRANCH  17  18
ATOM     18  C   UNL     1       3.484  -0.269  -1.725  0.00  0.00    -0.083 C 
BRANCH  18  20
ATOM     19  C   UNL     1       4.261   1.785  -0.760  0.00  0.00    -0.101 C 
ATOM     20  N   UNL     1       4.290   0.321  -0.648  0.00  0.00    +0.377 N 
ATOM     21  H   UNL     1       5.242  -0.004  -0.724  0.00  0.00    -0.086 HD
ATOM     22  H   UNL     1       3.912   0.044   0.246  0.00  0.00    -0.086 HD
ENDBRANCH  18  20
ENDBRANCH  17  18
ENDBRANCH  16  17
ENDBRANCH   1  16
TORSDOF 5
