REMARK  Name = ZINC39702942
REMARK  7 active torsions:
REMARK  status: ('A' for Active; 'I' for Inactive)
REMARK    1  A    between atoms: C_1  and  C_2
REMARK    2  A    between atoms: C_7  and  C_12
REMARK    3  A    between atoms: C_12  and  C_24
REMARK    4  A    between atoms: C_13  and  C_14
REMARK    5  A    between atoms: C_17  and  N_21
REMARK    6  A    between atoms: N_21  and  C_22
REMARK    7  A    between atoms: N_21  and  C_23
REMARK                            x       y       z     vdW  Elec       q    Type
REMARK                         _______ _______ _______ _____ _____    ______ ____
ROOT
ATOM      1  C   UNL     1       1.310  -5.096   1.915  0.00  0.00    +0.072 C 
ATOM      2  C   UNL     1       1.214  -6.265   2.585  0.00  0.00    +0.026 C 
ENDROOT
BRANCH   1   9
ATOM      3  C   UNL     1       0.337   1.597   0.154  0.00  0.00    +0.044 C 
ATOM      4  C   UNL     1       0.191   0.097   0.172  0.00  0.00    -0.048 A 
ATOM      5  C   UNL     1      -0.129  -0.565  -1.026  0.00  0.00    +0.005 A 
ATOM      6  C   UNL     1      -0.279  -1.903  -1.100  0.00  0.00    +0.027 A 
ATOM      7  C   UNL     1      -0.103  -2.720   0.109  0.00  0.00    +0.060 A 
ATOM      8  N   UNL     1      -0.184  -4.000   0.331  0.00  0.00    -0.359 N 
ATOM      9  C   UNL     1       0.096  -4.218   1.756  0.00  0.00    +0.216 C 
ATOM     10  N   UNL     1       0.352  -2.893   2.335  0.00  0.00    -0.359 N 
ATOM     11  C   UNL     1       0.236  -2.019   1.377  0.00  0.00    +0.061 A 
ATOM     12  C   UNL     1       0.379  -0.557   1.336  0.00  0.00    +0.030 A 
ATOM     13  H   UNL     1      -0.393  -4.684  -0.324  0.00  0.00    +0.162 HD
ATOM     14  H   UNL     1       0.568  -2.704   3.261  0.00  0.00    +0.162 HD
ENDBRANCH   1   9
BRANCH   2  15
ATOM     15  C   UNL     1       2.425  -7.044   2.881  0.00  0.00    -0.023 A 
ATOM     16  C   UNL     1       3.617  -6.389   3.213  0.00  0.00    +0.010 A 
ATOM     17  C   UNL     1       4.749  -7.121   3.490  0.00  0.00    +0.025 A 
ATOM     18  C   UNL     1       4.710  -8.511   3.440  0.00  0.00    +0.043 A 
ATOM     19  C   UNL     1       3.527  -9.168   3.110  0.00  0.00    +0.039 A 
ATOM     20  C   UNL     1       2.389  -8.442   2.837  0.00  0.00    +0.025 A 
ATOM     21 BR   UNL     1       3.482 -11.057   3.043  0.00  0.00    -0.048 Br
BRANCH  18  22
ATOM     22  N   UNL     1       5.858  -9.249   3.720  0.00  0.00    -0.335 N 
ATOM     23  C   UNL     1       6.140  -9.671   5.094  0.00  0.00    +0.129 C 
ATOM     24  C   UNL     1       6.784  -9.601   2.641  0.00  0.00    +0.129 C 
ENDBRANCH  18  22
ENDBRANCH   2  15
BRANCH   1  25
ATOM     25  C   UNL     1       2.565  -4.692   1.357  0.00  0.00    +0.099 C 
ATOM     26  N   UNL     1       3.561  -4.371   0.914  0.00  0.00    -0.191 NA
ENDBRANCH   1  25
TORSDOF 4
