REMARK  Name = ZINC11990665
REMARK  3 active torsions:
REMARK  status: ('A' for Active; 'I' for Inactive)
REMARK    1  A    between atoms: C_5  and  C_7
REMARK    2  A    between atoms: C_7  and  C_8
REMARK    3  A    between atoms: N_14  and  C_15
REMARK                            x       y       z     vdW  Elec       q    Type
REMARK                         _______ _______ _______ _____ _____    ______ ____
ROOT
ATOM      1  C   UNL     1      -0.014  -2.505   0.155  0.00  0.00    +0.144 C 
ATOM      2  C   UNL     1       0.365  -3.970   0.301  0.00  0.00    +0.232 C 
ATOM      3  O   UNL     1       1.122  -4.521  -0.469  0.00  0.00    -0.274 OA
ATOM      4  N   UNL     1      -0.184  -4.606   1.322  0.00  0.00    -0.264 N 
ATOM      5  C   UNL     1      -1.043  -3.993   2.201  0.00  0.00    +0.164 C 
ATOM      6  N   UNL     1      -1.650  -4.519   3.250  0.00  0.00    -0.193 NA
ATOM      7  S   UNL     1      -1.148  -2.315   1.593  0.00  0.00    -0.077 S 
ATOM      8  H   UNL     1       0.028  -5.543   1.456  0.00  0.00    +0.157 HD
ENDROOT
BRANCH   6   9
ATOM      9  C   UNL     1      -2.423  -3.751   4.035  0.00  0.00    +0.195 C 
ATOM     10  N   UNL     1      -2.007  -2.529   4.394  0.00  0.00    -0.370 N 
ATOM     11  N   UNL     1      -3.608  -4.205   4.459  0.00  0.00    -0.370 N 
ATOM     12  H   UNL     1      -1.119  -2.227   4.146  0.00  0.00    +0.159 HD
ATOM     13  H   UNL     1      -3.946  -5.054   4.135  0.00  0.00    +0.159 HD
ATOM     14  H   UNL     1      -4.129  -3.685   5.091  0.00  0.00    +0.159 HD
ATOM     15  H   UNL     1      -2.593  -1.947   4.901  0.00  0.00    +0.159 HD
ENDBRANCH   6   9
BRANCH   1  16
ATOM     16  C   UNL     1      -0.744  -2.249  -1.165  0.00  0.00    +0.060 C 
BRANCH  16  21
ATOM     17  C   UNL     1      -2.621   1.022  -0.993  0.00  0.00    +0.000 A 
ATOM     18  C   UNL     1      -1.684   1.906  -1.494  0.00  0.00    +0.001 A 
ATOM     19  C   UNL     1      -0.442   1.446  -1.889  0.00  0.00    +0.020 A 
ATOM     20  C   UNL     1      -0.137   0.100  -1.782  0.00  0.00    +0.044 A 
ATOM     21  C   UNL     1      -1.075  -0.784  -1.281  0.00  0.00    -0.028 A 
ATOM     22  C   UNL     1      -2.317  -0.322  -0.886  0.00  0.00    +0.005 A 
ATOM     23 CL   UNL     1       1.423  -0.479  -2.279  0.00  0.00    -0.083 Cl
ENDBRANCH  16  21
ENDBRANCH   1  16
TORSDOF 3
