REMARK  Name = ZINC04725220
REMARK  6 active torsions:
REMARK  status: ('A' for Active; 'I' for Inactive)
REMARK    1  A    between atoms: C_4  and  N_7
REMARK    2  A    between atoms: C_9  and  C_21
REMARK    3  A    between atoms: C_10  and  C_12
REMARK    4  A    between atoms: C_16  and  N_18
REMARK    5  A    between atoms: C_21  and  S_22
REMARK    6  A    between atoms: S_22  and  C_23
REMARK                            x       y       z     vdW  Elec       q    Type
REMARK                         _______ _______ _______ _____ _____    ______ ____
ROOT
ATOM      1  N   UNL     1       0.426   7.439   0.405  0.00  0.00    -0.239 N 
ATOM      2  C   UNL     1      -0.694   7.433  -0.364  0.00  0.00    +0.119 A 
ATOM      3  C   UNL     1      -1.022   6.146  -0.609  0.00  0.00    +0.009 A 
ATOM      4  C   UNL     1      -0.070   5.328   0.032  0.00  0.00    +0.097 A 
ATOM      5  N   UNL     1       0.794   6.109   0.644  0.00  0.00    -0.166 NA
ENDROOT
BRANCH   1   9
ATOM      6  C   UNL     1       2.410  10.822   1.817  0.00  0.00    +0.000 A 
ATOM      7  C   UNL     1       2.888   9.562   2.127  0.00  0.00    +0.002 A 
ATOM      8  C   UNL     1       2.233   8.439   1.660  0.00  0.00    +0.028 A 
ATOM      9  C   UNL     1       1.093   8.576   0.880  0.00  0.00    +0.065 A 
ATOM     10  C   UNL     1       0.618   9.843   0.567  0.00  0.00    +0.028 A 
ATOM     11  C   UNL     1       1.274  10.962   1.040  0.00  0.00    +0.002 A 
ENDBRANCH   1   9
BRANCH   4  12
ATOM     12  C   UNL     1      -0.050   3.844   0.023  0.00  0.00    +0.005 A 
ATOM     13  C   UNL     1      -1.246   3.128   0.031  0.00  0.00    +0.010 A 
ATOM     14  C   UNL     1      -1.221   1.749   0.017  0.00  0.00    +0.003 A 
ATOM     15  C   UNL     1      -0.013   1.076   0.008  0.00  0.00    +0.033 A 
ATOM     16  C   UNL     1       1.177   1.781   0.000  0.00  0.00    +0.127 A 
ATOM     17  C   UNL     1       1.164   3.161   0.008  0.00  0.00    +0.042 A 
BRANCH  16  18
ATOM     18  N   UNL     1       2.466   1.054  -0.015  0.00  0.00    +0.056 N 
ATOM     19  O   UNL     1       2.479  -0.164  -0.022  0.00  0.00    -0.126 OA
ATOM     20  O   UNL     1       3.515   1.674  -0.022  0.00  0.00    -0.126 OA
ENDBRANCH  16  18
ENDBRANCH   4  12
BRANCH   3  21
ATOM     21  C   UNL     1      -2.197   5.669  -1.422  0.00  0.00    +0.116 C 
BRANCH  21  22
ATOM     22  S   UNL     1      -3.633   5.458  -0.340  0.00  0.00    -0.088 S 
BRANCH  22  23
ATOM     23  C   UNL     1      -4.825   4.912  -1.517  0.00  0.00    +0.123 C 
ATOM     24  N   UNL     1      -4.491   4.782  -2.771  0.00  0.00    -0.382 N 
ATOM     25  N   UNL     1      -6.108   4.622  -1.114  0.00  0.00    -0.340 N 
ATOM     26  H   UNL     1      -5.236   4.441  -3.506  0.00  0.00    +0.158 HD
ATOM     27  H   UNL     1      -6.852   4.282  -1.848  0.00  0.00    +0.144 HD
ATOM     28  H   UNL     1      -6.390   4.732  -0.056  0.00  0.00    +0.144 HD
ATOM     29  H   UNL     1      -3.466   5.013  -3.094  0.00  0.00    +0.158 HD
ENDBRANCH  22  23
ENDBRANCH  21  22
ENDBRANCH   3  21
TORSDOF 6
