REMARK  Name = ZINC58210253
REMARK  8 active torsions:
REMARK  status: ('A' for Active; 'I' for Inactive)
REMARK    1  A    between atoms: C_1  and  C_2
REMARK    2  A    between atoms: C_2  and  C_4
REMARK    3  A    between atoms: C_2  and  N_16
REMARK    4  A    between atoms: C_7  and  O_10
REMARK    5  A    between atoms: O_10  and  C_11
REMARK    6  A    between atoms: C_11  and  C_12
REMARK    7  A    between atoms: N_19  and  C_20
REMARK    8  A    between atoms: C_23  and  O_26
REMARK                            x       y       z     vdW  Elec       q    Type
REMARK                         _______ _______ _______ _____ _____    ______ ____
ROOT
ATOM      1  C   UNL     1      -0.019   1.526   0.010  0.00  0.00    +0.033 C 
ATOM      2  C   UNL     1       0.002  -0.004   0.002  0.00  0.00    +0.102 C 
ENDROOT
BRANCH   2   3
ATOM      3  C   UNL     1       0.731  -0.503   1.223  0.00  0.00    -0.027 A 
ATOM      4  C   UNL     1       0.080  -0.558   2.441  0.00  0.00    +0.009 A 
ATOM      5  C   UNL     1       0.746  -1.015   3.562  0.00  0.00    +0.046 A 
ATOM      6  C   UNL     1       2.069  -1.419   3.464  0.00  0.00    +0.121 A 
ATOM      7  C   UNL     1       2.720  -1.364   2.240  0.00  0.00    +0.046 A 
ATOM      8  C   UNL     1       2.048  -0.911   1.122  0.00  0.00    +0.009 A 
BRANCH   6   9
ATOM      9  O   UNL     1       2.727  -1.869   4.565  0.00  0.00    -0.483 OA
BRANCH   9  10
ATOM     10  C   UNL     1       4.087  -2.268   4.390  0.00  0.00    +0.342 C 
BRANCH  10  11
ATOM     11  C   UNL     1       4.656  -2.741   5.730  0.00  0.00    +0.424 C 
ATOM     12  F   UNL     1       3.908  -3.826   6.198  0.00  0.00    -0.167 F 
ATOM     13  F   UNL     1       5.989  -3.132   5.558  0.00  0.00    -0.167 F 
ATOM     14  F   UNL     1       4.593  -1.696   6.658  0.00  0.00    -0.167 F 
ENDBRANCH  10  11
ENDBRANCH   9  10
ENDBRANCH   6   9
ENDBRANCH   2   3
BRANCH   2  15
ATOM     15  N   UNL     1      -1.372  -0.511   0.012  0.00  0.00    -0.293 N 
ATOM     16  C   UNL     1      -2.051  -0.643  -1.145  0.00  0.00    +0.300 C 
ATOM     17  O   UNL     1      -1.522  -0.341  -2.197  0.00  0.00    -0.253 OA
ATOM     18  N   UNL     1      -3.315  -1.109  -1.135  0.00  0.00    -0.297 N 
ATOM     19  H   UNL     1      -1.794  -0.752   0.852  0.00  0.00    +0.151 HD
ATOM     20  H   UNL     1      -3.737  -1.350  -0.295  0.00  0.00    +0.151 HD
BRANCH  18  21
ATOM     21  C   UNL     1      -4.053  -1.252  -2.393  0.00  0.00    +0.075 C 
ATOM     22  C   UNL     1      -3.716  -2.601  -3.031  0.00  0.00    +0.025 C 
ATOM     23  C   UNL     1      -4.486  -2.751  -4.345  0.00  0.00    +0.033 C 
ATOM     24  C   UNL     1      -5.989  -2.680  -4.066  0.00  0.00    +0.115 C 
ATOM     25  C   UNL     1      -6.326  -1.331  -3.427  0.00  0.00    +0.033 C 
ATOM     26  C   UNL     1      -5.556  -1.181  -2.114  0.00  0.00    +0.025 C 
BRANCH  24  27
ATOM     27  O   UNL     1      -6.708  -2.819  -5.292  0.00  0.00    -0.392 OA
ATOM     28  H   UNL     1      -7.669  -2.784  -5.191  0.00  0.00    +0.210 HD
ENDBRANCH  24  27
ENDBRANCH  18  21
ENDBRANCH   2  15
TORSDOF 7
