REMARK  Name = ZINC13462986
REMARK  9 active torsions:
REMARK  status: ('A' for Active; 'I' for Inactive)
REMARK    1  A    between atoms: C_1  and  C_2
REMARK    2  A    between atoms: N_4  and  C_5
REMARK    3  A    between atoms: C_7  and  S_13
REMARK    4  A    between atoms: C_10  and  O_11
REMARK    5  A    between atoms: O_11  and  C_12
REMARK    6  A    between atoms: S_13  and  O_16
REMARK    7  A    between atoms: O_16  and  C_17
REMARK    8  A    between atoms: C_19  and  C_28
REMARK    9  A    between atoms: C_20  and  O_27
REMARK                            x       y       z     vdW  Elec       q    Type
REMARK                         _______ _______ _______ _____ _____    ______ ____
ROOT
ATOM      1  S   UNL     1       1.666   6.279  -1.334  0.00  0.00    +0.151 S 
ATOM      2  O   UNL     1       2.976   6.807  -1.173  0.00  0.00    -0.131 OA
ATOM      3  O   UNL     1       1.399   5.133  -2.130  0.00  0.00    -0.131 OA
ENDROOT
BRANCH   1   6
ATOM      4  C   UNL     1       0.265   9.927  -2.284  0.00  0.00    +0.077 A 
ATOM      5  C   UNL     1       1.044   8.899  -1.775  0.00  0.00    +0.057 A 
ATOM      6  C   UNL     1       0.674   7.584  -1.982  0.00  0.00    +0.130 A 
ATOM      7  C   UNL     1      -0.470   7.289  -2.700  0.00  0.00    +0.034 A 
ATOM      8  C   UNL     1      -1.255   8.309  -3.206  0.00  0.00    +0.049 A 
ATOM      9  C   UNL     1      -0.891   9.630  -3.003  0.00  0.00    +0.141 A 
BRANCH   4  13
ATOM     10  C   UNL     1       2.314  12.988  -1.500  0.00  0.00    +0.109 C 
ATOM     11  C   UNL     1       1.930  11.573  -1.848  0.00  0.00    +0.214 C 
ATOM     12  O   UNL     1       2.783  10.714  -1.924  0.00  0.00    -0.276 OA
ATOM     13  N   UNL     1       0.638  11.262  -2.075  0.00  0.00    -0.283 N 
ATOM     14  H   UNL     1      -0.033  11.962  -2.093  0.00  0.00    +0.155 HD
ENDBRANCH   4  13
BRANCH   9  15
ATOM     15  O   UNL     1      -1.659  10.633  -3.504  0.00  0.00    -0.493 OA
ATOM     16  C   UNL     1      -2.830  10.254  -4.230  0.00  0.00    +0.277 C 
ENDBRANCH   9  15
ENDBRANCH   1   6
BRANCH   1  17
ATOM     17  O   UNL     1       1.147   5.970   0.063  0.00  0.00    -0.342 OA
BRANCH  17  18
ATOM     18  C   UNL     1      -0.025   5.281   0.077  0.00  0.00    +0.165 A 
ATOM     19  C   UNL     1      -1.208   5.952   0.087  0.00  0.00    +0.068 A 
ATOM     20  C   UNL     1      -2.432   5.257   0.102  0.00  0.00    +0.109 A 
ATOM     21  C   UNL     1      -2.453   3.864   0.107  0.00  0.00    +0.139 A 
ATOM     22  C   UNL     1      -1.235   3.155   0.097  0.00  0.00    +0.028 A 
ATOM     23  C   UNL     1      -0.011   3.869   0.082  0.00  0.00    +0.030 A 
ATOM     24  C   UNL     1       1.199   3.158   0.071  0.00  0.00    +0.012 A 
ATOM     25  C   UNL     1       1.182   1.796   0.075  0.00  0.00    +0.001 A 
ATOM     26  C   UNL     1      -0.021   1.093   0.090  0.00  0.00    +0.001 A 
ATOM     27  C   UNL     1      -1.214   1.750   0.095  0.00  0.00    +0.012 A 
BRANCH  20  28
ATOM     28  C   UNL     1      -3.699   6.007   0.112  0.00  0.00    +0.390 C 
ATOM     29  O   UNL     1      -4.758   5.411   0.125  0.00  0.00    -0.240 OA
ATOM     30  O   UNL     1      -3.684   7.355   0.107  0.00  0.00    -0.240 OA
ENDBRANCH  20  28
BRANCH  21  31
ATOM     31  O   UNL     1      -3.632   3.197   0.122  0.00  0.00    -0.505 OA
ATOM     32  H   UNL     1      -3.984   3.001  -0.757  0.00  0.00    +0.292 HD
ENDBRANCH  21  31
ENDBRANCH  17  18
ENDBRANCH   1  17
TORSDOF 7
