REMARK  Name = ZINC03177197
REMARK  8 active torsions:
REMARK  status: ('A' for Active; 'I' for Inactive)
REMARK    1  A    between atoms: C_1  and  C_2
REMARK    2  A    between atoms: C_5  and  N_21
REMARK    3  A    between atoms: C_7  and  N_8
REMARK    4  A    between atoms: N_8  and  N_9
REMARK    5  A    between atoms: C_15  and  C_17
REMARK    6  A    between atoms: C_15  and  C_19
REMARK    7  A    between atoms: C_17  and  O_18
REMARK    8  A    between atoms: C_19  and  O_20
REMARK                            x       y       z     vdW  Elec       q    Type
REMARK                         _______ _______ _______ _____ _____    ______ ____
ROOT
ATOM      1  N   UNL     1      -1.129   2.098   0.019  0.00  0.00    -0.246 N 
ATOM      2  C   UNL     1      -0.017   1.412   0.010  0.00  0.00    +0.196 C 
ATOM      3  C   UNL     1       1.317   2.060   0.001  0.00  0.00    +0.372 C 
ATOM      4  O   UNL     1       1.539   3.085   0.615  0.00  0.00    -0.242 OA
ATOM      5  O   UNL     1       2.277   1.439  -0.736  0.00  0.00    -0.457 OA
ATOM      6  C   UNL     1       2.383   0.023  -0.545  0.00  0.00    +0.265 C 
ATOM      7  C   UNL     1       1.032  -0.638  -0.841  0.00  0.00    +0.120 C 
ATOM      8  N   UNL     1       0.002  -0.004   0.002  0.00  0.00    -0.354 N 
ATOM      9  H   UNL     1      -2.097   1.576   0.021  0.00  0.00    +0.172 HD
ATOM     10  H   UNL     1      -0.726  -0.567   0.604  0.00  0.00    +0.162 HD
ENDROOT
BRANCH   1  11
ATOM     11  N   UNL     1      -1.088   3.498   0.026  0.00  0.00    -0.265 N 
ATOM     12  H   UNL     1      -0.120   4.020   0.025  0.00  0.00    +0.170 HD
BRANCH  11  19
ATOM     13  C   UNL     1      -0.912   6.338   0.053  0.00  0.00    +0.046 C 
ATOM     14  C   UNL     1      -2.237   5.620   0.049  0.00  0.00    -0.028 A 
ATOM     15  C   UNL     1      -3.415   6.341   0.054  0.00  0.00    +0.007 A 
ATOM     16  C   UNL     1      -4.631   5.683   0.056  0.00  0.00    +0.033 A 
ATOM     17  C   UNL     1      -4.673   4.300   0.049  0.00  0.00    +0.128 A 
ATOM     18  C   UNL     1      -3.500   3.572   0.038  0.00  0.00    +0.057 A 
ATOM     19  C   UNL     1      -2.276   4.230   0.036  0.00  0.00    +0.049 A 
BRANCH  17  20
ATOM     20  N   UNL     1      -5.978   3.600   0.051  0.00  0.00    +0.056 N 
ATOM     21  O   UNL     1      -6.015   2.383   0.043  0.00  0.00    -0.126 OA
ATOM     22  O   UNL     1      -7.013   4.242   0.059  0.00  0.00    -0.126 OA
ENDBRANCH  17  20
ENDBRANCH  11  19
ENDBRANCH   1  11
BRANCH   7  23
ATOM     23  C   UNL     1       1.111  -2.132  -0.520  0.00  0.00    +0.189 C 
BRANCH  23  24
ATOM     24  O   UNL     1      -0.156  -2.741  -0.778  0.00  0.00    -0.393 OA
ATOM     25  H   UNL     1      -0.293  -3.819  -0.605  0.00  0.00    +0.210 HD
ENDBRANCH  23  24
ENDBRANCH   7  23
BRANCH   7  26
ATOM     26  C   UNL     1       0.676  -0.448  -2.317  0.00  0.00    +0.189 C 
BRANCH  26  27
ATOM     27  O   UNL     1      -0.641  -0.948  -2.557  0.00  0.00    -0.393 OA
ATOM     28  H   UNL     1      -1.073  -0.897  -3.567  0.00  0.00    +0.210 HD
ENDBRANCH  26  27
ENDBRANCH   7  26
TORSDOF 7
