REMARK  Name = ZINC39686635
REMARK  9 active torsions:
REMARK  status: ('A' for Active; 'I' for Inactive)
REMARK    1  A    between atoms: C_1  and  C_2
REMARK    2  A    between atoms: C_7  and  C_8
REMARK    3  A    between atoms: C_12  and  C_21
REMARK    4  A    between atoms: N_23  and  C_24
REMARK    5  A    between atoms: C_24  and  C_26
REMARK    6  A    between atoms: C_24  and  C_27
REMARK    7  A    between atoms: C_27  and  C_28
REMARK    8  A    between atoms: C_33  and  O_34
REMARK    9  A    between atoms: O_34  and  C_35
REMARK                            x       y       z     vdW  Elec       q    Type
REMARK                         _______ _______ _______ _____ _____    ______ ____
ROOT
ATOM      1  C   UNL     1       0.546   0.132   1.735  0.00  0.00    +0.247 C 
ATOM      2  O   UNL     1       0.771  -0.440   0.687  0.00  0.00    -0.270 OA
ATOM      3  N   UNL     1       0.192  -0.575   2.827  0.00  0.00    -0.296 N 
ATOM      4  C   UNL     1       0.141  -2.048   2.977  0.00  0.00    +0.121 C 
ATOM      5  C   UNL     1       0.675  -2.314   4.402  0.00  0.00    +0.100 C 
ATOM      6  C   UNL     1       0.425  -1.002   5.166  0.00  0.00    -0.004 C 
ATOM      7  C   UNL     1      -0.228  -0.054   4.150  0.00  0.00    +0.115 C 
ATOM      8  C   UNL     1       1.746  -0.415   5.654  0.00  0.00    -0.010 C 
ATOM      9  C   UNL     1       1.466   0.858   6.459  0.00  0.00    -0.082 C 
ATOM     10  N   UNL     1       0.599   0.537   7.599  0.00  0.00    +0.379 N 
ATOM     11  C   UNL     1      -0.704   0.060   7.119  0.00  0.00    -0.082 C 
ATOM     12  C   UNL     1      -0.516  -1.246   6.342  0.00  0.00    -0.010 C 
ATOM     13  H   UNL     1       1.033  -0.181   8.159  0.00  0.00    -0.086 HD
ATOM     14  H   UNL     1       0.466   1.364   8.162  0.00  0.00    -0.086 HD
ENDROOT
BRANCH   1  21
ATOM     15  C   UNL     1       2.644   1.482   0.272  0.00  0.00    +0.044 C 
ATOM     16  C   UNL     1       1.669   2.267   1.111  0.00  0.00    -0.038 A 
ATOM     17  C   UNL     1       1.768   3.641   1.183  0.00  0.00    +0.007 A 
ATOM     18  C   UNL     1       0.874   4.363   1.952  0.00  0.00    +0.038 A 
ATOM     19  C   UNL     1      -0.126   3.713   2.656  0.00  0.00    +0.124 A 
ATOM     20  C   UNL     1      -0.236   2.337   2.593  0.00  0.00    +0.051 A 
ATOM     21  C   UNL     1       0.661   1.604   1.813  0.00  0.00    +0.043 A 
ATOM     22  F   UNL     1      -0.996   4.425   3.406  0.00  0.00    -0.205 F 
ENDBRANCH   1  21
BRANCH   5  23
ATOM     23  C   UNL     1       2.149  -2.626   4.361  0.00  0.00    +0.218 C 
ATOM     24  O   UNL     1       2.834  -2.200   3.455  0.00  0.00    -0.275 OA
ATOM     25  N   UNL     1       2.706  -3.380   5.330  0.00  0.00    -0.312 N 
ATOM     26  H   UNL     1       2.147  -3.777   6.016  0.00  0.00    +0.149 HD
BRANCH  25  27
ATOM     27  C   UNL     1       4.154  -3.597   5.346  0.00  0.00    +0.074 C 
ATOM     28  C   UNL     1       4.830  -2.470   6.130  0.00  0.00    +0.028 C 
BRANCH  27  29
ATOM     29  C   UNL     1       4.461  -4.939   6.016  0.00  0.00    +0.060 C 
BRANCH  29  30
ATOM     30  C   UNL     1       3.918  -6.059   5.167  0.00  0.00    -0.004 A 
ATOM     31  C   UNL     1       2.675  -6.596   5.443  0.00  0.00    +0.007 A 
ATOM     32  C   UNL     1       2.176  -7.624   4.665  0.00  0.00    +0.000 A 
ATOM     33  C   UNL     1       2.920  -8.118   3.609  0.00  0.00    +0.004 A 
ATOM     34  C   UNL     1       4.163  -7.585   3.329  0.00  0.00    +0.046 A 
ATOM     35  C   UNL     1       4.663  -6.549   4.105  0.00  0.00    +0.123 A 
BRANCH  35  36
ATOM     36  O   UNL     1       5.883  -6.019   3.828  0.00  0.00    -0.495 OA
ATOM     37  C   UNL     1       6.594  -6.572   2.719  0.00  0.00    +0.277 C 
ENDBRANCH  35  36
ENDBRANCH  29  30
ENDBRANCH  27  29
ENDBRANCH  25  27
ENDBRANCH   5  23
TORSDOF 6
