REMARK  Name = ZINC16010255
REMARK  5 active torsions:
REMARK  status: ('A' for Active; 'I' for Inactive)
REMARK    1  A    between atoms: C_1  and  C_2
REMARK    2  A    between atoms: C_17  and  C_20
REMARK    3  A    between atoms: C_20  and  C_21
REMARK    4  A    between atoms: C_21  and  C_22
REMARK    5  A    between atoms: N_27  and  C_30
REMARK                            x       y       z     vdW  Elec       q    Type
REMARK                         _______ _______ _______ _____ _____    ______ ____
ROOT
ATOM      1  C   UNL     1      -0.018   1.503   0.010  0.00  0.00    +0.044 C 
ATOM      2  C   UNL     1       0.002  -0.004   0.002  0.00  0.00    -0.049 A 
ATOM      3  C   UNL     1       0.006  -0.691  -1.199  0.00  0.00    +0.011 A 
ATOM      4  C   UNL     1       0.025  -2.068  -1.207  0.00  0.00    +0.005 A 
ATOM      5  C   UNL     1       0.042  -2.783  -0.013  0.00  0.00    +0.057 A 
ATOM      6  C   UNL     1       0.037  -2.084   1.193  0.00  0.00    +0.063 A 
ATOM      7  C   UNL     1       0.023  -0.703   1.195  0.00  0.00    +0.025 A 
ATOM      8 CL   UNL     1       0.057  -2.951   2.696  0.00  0.00    -0.082 Cl
ATOM      9  N   UNL     1       0.060  -4.155  -0.272  0.00  0.00    -0.282 N 
ATOM     10  C   UNL     1       0.056  -4.423  -1.592  0.00  0.00    +0.243 C 
ATOM     11  O   UNL     1       0.068  -5.520  -2.109  0.00  0.00    -0.273 OA
ATOM     12  C   UNL     1       0.033  -3.096  -2.301  0.00  0.00    +0.136 C 
ATOM     13  C   UNL     1       1.250  -2.933  -3.221  0.00  0.00    +0.122 C 
ATOM     14  C   UNL     1       0.725  -3.312  -4.634  0.00  0.00    +0.107 C 
ATOM     15  C   UNL     1      -0.755  -3.692  -4.418  0.00  0.00    +0.068 C 
ATOM     16  N   UNL     1      -1.151  -2.971  -3.171  0.00  0.00    -0.295 NA
ATOM     17  C   UNL     1       0.815  -2.013  -5.401  0.00  0.00    +0.227 C 
ATOM     18  O   UNL     1       0.492  -1.859  -6.559  0.00  0.00    -0.275 OA
ATOM     19  N   UNL     1       1.307  -1.058  -4.602  0.00  0.00    -0.238 N 
ATOM     20  C   UNL     1       1.598  -1.466  -3.345  0.00  0.00    +0.228 C 
ATOM     21  O   UNL     1       2.059  -0.778  -2.460  0.00  0.00    -0.275 OA
ATOM     22  H   UNL     1       0.074  -4.837   0.418  0.00  0.00    +0.155 HD
ATOM     23  H   UNL     1      -1.958  -3.406  -2.749  0.00  0.00    +0.123 HD
ENDROOT
BRANCH  19  24
ATOM     24  C   UNL     1       1.520   0.320  -5.052  0.00  0.00    +0.084 C 
ATOM     25  C   UNL     1       0.188   0.921  -5.504  0.00  0.00    +0.023 C 
ATOM     26  C   UNL     1       0.411   2.359  -5.974  0.00  0.00    +0.002 C 
ATOM     27  C   UNL     1       1.396   2.367  -7.144  0.00  0.00    +0.000 C 
ATOM     28  C   UNL     1       2.729   1.765  -6.692  0.00  0.00    +0.002 C 
ATOM     29  C   UNL     1       2.506   0.327  -6.222  0.00  0.00    +0.023 C 
ENDBRANCH  19  24
BRANCH  15  30
ATOM     30  C   UNL     1      -1.607  -3.204  -5.592  0.00  0.00    +0.031 C 
BRANCH  30  31
ATOM     31  C   UNL     1      -3.044  -3.698  -5.420  0.00  0.00    +0.126 C 
BRANCH  31  32
ATOM     32  C   UNL     1      -3.883  -3.217  -6.576  0.00  0.00    +0.356 C 
ATOM     33  O   UNL     1      -3.377  -2.542  -7.456  0.00  0.00    -0.246 OA
ATOM     34  O   UNL     1      -5.067  -3.504  -6.631  0.00  0.00    -0.246 OA
ENDBRANCH  31  32
ENDBRANCH  30  31
ENDBRANCH  15  30
TORSDOF 4
