REMARK  Name = ZINC51676003
REMARK  9 active torsions:
REMARK  status: ('A' for Active; 'I' for Inactive)
REMARK    1  A    between atoms: C_1  and  N_2
REMARK    2  A    between atoms: N_2  and  C_3
REMARK    3  A    between atoms: N_2  and  C_4
REMARK    4  A    between atoms: C_4  and  C_6
REMARK    5  A    between atoms: C_4  and  C_20
REMARK    6  A    between atoms: C_6  and  N_7
REMARK    7  A    between atoms: C_14  and  C_17
REMARK    8  A    between atoms: C_23  and  O_26
REMARK    9  A    between atoms: O_26  and  C_27
REMARK                            x       y       z     vdW  Elec       q    Type
REMARK                         _______ _______ _______ _____ _____    ______ ____
ROOT
ATOM      1  N   UNL     1      -3.598  -0.409  -0.869  0.00  0.00    -0.300 N 
ATOM      2  C   UNL     1      -4.521  -0.044  -1.782  0.00  0.00    +0.302 C 
ATOM      3  O   UNL     1      -4.170   0.448  -2.837  0.00  0.00    -0.253 OA
ATOM      4  N   UNL     1      -5.831  -0.223  -1.524  0.00  0.00    -0.281 N 
ATOM      5  C   UNL     1      -6.850   0.057  -2.548  0.00  0.00    +0.137 C 
ATOM      6  C   UNL     1      -7.923   0.959  -1.929  0.00  0.00    +0.180 C 
ATOM      7  O   UNL     1      -8.390   0.368  -0.714  0.00  0.00    -0.364 OA
ATOM      8  C   UNL     1      -7.387   0.233   0.295  0.00  0.00    +0.221 C 
ATOM      9  C   UNL     1      -6.286  -0.712  -0.212  0.00  0.00    +0.150 C 
ATOM     10  H   UNL     1      -3.872  -0.868  -0.060  0.00  0.00    +0.150 HD
ENDROOT
BRANCH   8  11
ATOM     11  C   UNL     1      -8.004  -0.340   1.545  0.00  0.00    +0.241 C 
ATOM     12  O   UNL     1      -9.165  -0.691   1.543  0.00  0.00    -0.273 OA
ATOM     13  N   UNL     1      -7.265  -0.462   2.666  0.00  0.00    -0.327 N 
ATOM     14  H   UNL     1      -6.337  -0.182   2.668  0.00  0.00    +0.145 HD
ATOM     15  H   UNL     1      -7.662  -0.831   3.471  0.00  0.00    +0.145 HD
ENDBRANCH   8  11
BRANCH   1  16
ATOM     16  C   UNL     1      -2.182  -0.113  -1.100  0.00  0.00    +0.095 C 
BRANCH  16  17
ATOM     17  C   UNL     1      -1.369  -0.519   0.131  0.00  0.00    -0.021 C 
BRANCH  17  18
ATOM     18  C   UNL     1      -1.434  -2.014   0.306  0.00  0.00    -0.059 A 
ATOM     19  C   UNL     1      -0.620  -2.833  -0.453  0.00  0.00    +0.005 A 
ATOM     20  C   UNL     1      -0.677  -4.205  -0.295  0.00  0.00    +0.046 A 
ATOM     21  C   UNL     1      -1.554  -4.759   0.627  0.00  0.00    +0.120 A 
ATOM     22  C   UNL     1      -2.370  -3.935   1.387  0.00  0.00    +0.046 A 
ATOM     23  C   UNL     1      -2.304  -2.564   1.229  0.00  0.00    +0.005 A 
BRANCH  21  24
ATOM     24  O   UNL     1      -1.613  -6.108   0.784  0.00  0.00    -0.495 OA
ATOM     25  C   UNL     1      -2.538  -6.608   1.751  0.00  0.00    +0.277 C 
ENDBRANCH  21  24
ENDBRANCH  17  18
BRANCH  17  27
ATOM     26  C   UNL     1       0.103   1.359  -0.118  0.00  0.00    -0.096 C 
ATOM     27  N   UNL     1       0.029  -0.107  -0.048  0.00  0.00    +0.382 N 
ATOM     28  C   UNL     1       0.830  -0.583   1.088  0.00  0.00    -0.096 C 
ATOM     29  H   UNL     1       0.390  -0.503  -0.903  0.00  0.00    -0.082 HD
ENDBRANCH  17  27
ENDBRANCH  16  17
ENDBRANCH   1  16
TORSDOF 6
