REMARK  Name = ZINC18083628
REMARK  7 active torsions:
REMARK  status: ('A' for Active; 'I' for Inactive)
REMARK    1  A    between atoms: C_1  and  O_2
REMARK    2  A    between atoms: O_2  and  C_3
REMARK    3  A    between atoms: C_8  and  N_9
REMARK    4  A    between atoms: C_15  and  C_20
REMARK    5  A    between atoms: C_20  and  C_21
REMARK    6  A    between atoms: C_21  and  O_23
REMARK    7  A    between atoms: O_23  and  C_24
REMARK                            x       y       z     vdW  Elec       q    Type
REMARK                         _______ _______ _______ _____ _____    ______ ____
ROOT
ATOM      1  N   UNL     1       0.743  -4.758  -1.286  0.00  0.00    -0.325 N 
ATOM      2  C   UNL     1       0.233  -4.151  -0.162  0.00  0.00    +0.180 C 
ATOM      3  N   UNL     1       0.173  -2.851  -0.095  0.00  0.00    -0.371 N 
ATOM      4  N   UNL     1      -0.216  -4.918   0.894  0.00  0.00    -0.298 N 
ATOM      5  C   UNL     1      -0.254  -6.286   0.781  0.00  0.00    +0.211 A 
ATOM      6  N   UNL     1       0.253  -6.862  -0.290  0.00  0.00    -0.218 NA
ATOM      7  C   UNL     1       0.236  -8.184  -0.439  0.00  0.00    +0.061 A 
ATOM      8  C   UNL     1      -0.313  -8.975   0.527  0.00  0.00    +0.094 A 
ATOM      9  C   UNL     1      -0.857  -8.369   1.674  0.00  0.00    +0.253 A 
ATOM     10  O   UNL     1      -1.356  -9.045   2.558  0.00  0.00    -0.268 OA
ATOM     11  N   UNL     1      -0.810  -7.023   1.780  0.00  0.00    -0.293 N 
ATOM     12  H   UNL     1      -0.117  -2.421   0.724  0.00  0.00    +0.159 HD
ATOM     13  H   UNL     1       0.419  -2.314  -0.864  0.00  0.00    +0.159 HD
ATOM     14  H   UNL     1       0.708  -5.724  -1.373  0.00  0.00    +0.169 HD
ATOM     15  H   UNL     1      -0.504  -4.490   1.716  0.00  0.00    +0.172 HD
ATOM     16  H   UNL     1      -1.175  -6.584   2.563  0.00  0.00    +0.172 HD
ENDROOT
BRANCH   1  22
ATOM     17  C   UNL     1       2.473  -3.254  -2.063  0.00  0.00    +0.143 A 
ATOM     18  C   UNL     1       3.034  -2.493  -3.075  0.00  0.00    +0.048 A 
ATOM     19  C   UNL     1       2.437  -2.454  -4.322  0.00  0.00    +0.004 A 
ATOM     20  C   UNL     1       1.281  -3.173  -4.562  0.00  0.00    +0.002 A 
ATOM     21  C   UNL     1       0.715  -3.934  -3.557  0.00  0.00    +0.029 A 
ATOM     22  C   UNL     1       1.311  -3.983  -2.305  0.00  0.00    +0.084 A 
BRANCH  17  24
ATOM     23  C   UNL     1       4.249  -2.522  -0.660  0.00  0.00    +0.277 C 
ATOM     24  O   UNL     1       3.059  -3.294  -0.836  0.00  0.00    -0.493 OA
ENDBRANCH  17  24
ENDBRANCH   1  22
BRANCH   7  25
ATOM     25  C   UNL     1       0.825  -8.809  -1.678  0.00  0.00    +0.176 C 
BRANCH  25  26
ATOM     26  C   UNL     1      -0.207  -8.817  -2.776  0.00  0.00    +0.313 C 
ATOM     27  O   UNL     1      -1.308  -8.361  -2.573  0.00  0.00    -0.250 OA
BRANCH  26  28
ATOM     28  O   UNL     1       0.096  -9.329  -3.979  0.00  0.00    -0.468 OA
ATOM     29  C   UNL     1      -0.930  -9.303  -4.973  0.00  0.00    +0.280 C 
ENDBRANCH  26  28
ENDBRANCH  25  26
ENDBRANCH   7  25
TORSDOF 5
