REMARK  Name = ZINC16473685
REMARK  9 active torsions:
REMARK  status: ('A' for Active; 'I' for Inactive)
REMARK    1  A    between atoms: C_1  and  C_2
REMARK    2  A    between atoms: C_9  and  N_13
REMARK    3  A    between atoms: C_10  and  C_11
REMARK    4  A    between atoms: C_14  and  C_16
REMARK    5  A    between atoms: C_16  and  N_43
REMARK    6  A    between atoms: C_17  and  C_18
REMARK    7  A    between atoms: C_17  and  C_19
REMARK    8  A    between atoms: C_17  and  C_20
REMARK    9  A    between atoms: C_17  and  N_43
REMARK                            x       y       z     vdW  Elec       q    Type
REMARK                         _______ _______ _______ _____ _____    ______ ____
ROOT
ATOM      1  C   UNL     1      -0.019   1.526   0.010  0.00  0.00    +0.008 C 
ATOM      2  C   UNL     1       0.002  -0.004   0.002  0.00  0.00    -0.009 C 
ATOM      3  C   UNL     1       0.742  -0.514   1.242  0.00  0.00    +0.008 C 
ATOM      4  C   UNL     1       0.556  -2.027   1.373  0.00  0.00    +0.037 C 
ATOM      5  C   UNL     1       0.941  -2.684   0.054  0.00  0.00    -0.018 A 
ATOM      6  C   UNL     1       1.008  -1.965  -1.089  0.00  0.00    -0.004 A 
ATOM      7  S   UNL     1       1.485  -3.134  -2.331  0.00  0.00    -0.077 S 
ATOM      8  C   UNL     1       1.593  -4.557  -1.349  0.00  0.00    +0.090 A 
ATOM      9  C   UNL     1       1.258  -4.095  -0.084  0.00  0.00    +0.084 A 
ATOM     10  C   UNL     1       0.736  -0.502  -1.252  0.00  0.00    +0.046 C 
ENDROOT
BRANCH   8  11
ATOM     11  N   UNL     1       1.932  -5.847  -1.734  0.00  0.00    -0.281 N 
ATOM     12  C   UNL     1       2.229  -6.109  -3.022  0.00  0.00    +0.201 C 
ATOM     13  O   UNL     1       2.201  -5.218  -3.844  0.00  0.00    -0.278 OA
ATOM     14  H   UNL     1       1.955  -6.559  -1.076  0.00  0.00    +0.155 HD
BRANCH  12  15
ATOM     15  C   UNL     1       2.598  -7.509  -3.440  0.00  0.00    +0.016 C 
BRANCH  15  16
ATOM     16  N   UNL     1       2.875  -7.524  -4.888  0.00  0.00    +0.388 N 
ATOM     17  H   UNL     1       3.651  -6.884  -5.091  0.00  0.00    -0.084 HD
ATOM     18  H   UNL     1       2.037  -7.218  -5.397  0.00  0.00    -0.084 HD
BRANCH  16  19
ATOM     19  C   UNL     1       3.239  -8.885  -5.327  0.00  0.00    -0.076 C 
ATOM     20  C   UNL     1       2.084  -9.845  -5.033  0.00  0.00    -0.011 C 
ATOM     21  C   UNL     1       3.520  -8.869  -6.830  0.00  0.00    -0.011 C 
ATOM     22  C   UNL     1       4.490  -9.348  -4.579  0.00  0.00    -0.011 C 
ENDBRANCH  16  19
ENDBRANCH  15  16
ENDBRANCH  12  15
ENDBRANCH   8  11
BRANCH   9  23
ATOM     23  C   UNL     1       1.226  -4.977   1.044  0.00  0.00    +0.102 C 
ATOM     24  N   UNL     1       1.200  -5.676   1.938  0.00  0.00    -0.191 NA
ENDBRANCH   9  23
TORSDOF 5
