REMARK  Name = ZINC59000558
REMARK  7 active torsions:
REMARK  status: ('A' for Active; 'I' for Inactive)
REMARK    1  A    between atoms: C_1  and  C_2
REMARK    2  A    between atoms: C_4  and  C_19
REMARK    3  A    between atoms: C_7  and  N_8
REMARK    4  A    between atoms: N_8  and  C_9
REMARK    5  A    between atoms: N_8  and  C_10
REMARK    6  A    between atoms: C_16  and  C_18
REMARK    7  A    between atoms: N_20  and  O_21
REMARK                            x       y       z     vdW  Elec       q    Type
REMARK                         _______ _______ _______ _____ _____    ______ ____
ROOT
ATOM      1  C   UNL     1       0.523   0.718   0.010  0.00  0.00    +0.045 C 
ATOM      2  C   UNL     1       0.455  -0.766   0.263  0.00  0.00    -0.030 A 
ATOM      3  C   UNL     1       0.523  -1.649  -0.796  0.00  0.00    +0.016 A 
ATOM      4  C   UNL     1       0.461  -3.022  -0.561  0.00  0.00    +0.018 A 
ATOM      5  C   UNL     1       0.330  -3.495   0.745  0.00  0.00    +0.013 A 
ATOM      6  C   UNL     1       0.264  -2.603   1.795  0.00  0.00    +0.022 A 
ATOM      7  C   UNL     1       0.331  -1.242   1.556  0.00  0.00    +0.016 A 
ENDROOT
BRANCH   4   8
ATOM      8  C   UNL     1       0.532  -3.974  -1.692  0.00  0.00    +0.162 C 
ATOM      9  N   UNL     1       0.653  -3.530  -2.909  0.00  0.00    -0.072 NA
ATOM     10  N   UNL     1       0.470  -5.337  -1.456  0.00  0.00    -0.340 N 
ATOM     11  H   UNL     1       0.380  -5.668  -0.548  0.00  0.00    +0.144 HD
ATOM     12  H   UNL     1       0.517  -5.960  -2.197  0.00  0.00    +0.144 HD
BRANCH   9  13
ATOM     13  O   UNL     1       0.722  -4.441  -3.991  0.00  0.00    -0.408 OA
ATOM     14  H   UNL     1       0.811  -4.018  -4.856  0.00  0.00    +0.328 HD
ENDBRANCH   9  13
ENDBRANCH   4   8
BRANCH   7  15
ATOM     15  N   UNL     1       0.269  -0.343   2.625  0.00  0.00    -0.393 NA
ATOM     16  C   UNL     1       1.483  -0.470   3.443  0.00  0.00    +0.107 C 
ATOM     17  H   UNL     1       0.201   0.599   2.269  0.00  0.00    +0.126 HD
BRANCH  15  18
ATOM     18  C   UNL     1      -0.910  -0.642   3.448  0.00  0.00    +0.058 C 
ATOM     19  C   UNL     1      -0.872   0.207   4.721  0.00  0.00    +0.021 C 
ATOM     20  C   UNL     1      -2.100  -0.105   5.578  0.00  0.00    +0.002 C 
ATOM     21  C   UNL     1      -3.370   0.217   4.787  0.00  0.00    +0.000 C 
ATOM     22  C   UNL     1      -3.408  -0.632   3.515  0.00  0.00    +0.005 C 
ATOM     23  C   UNL     1      -2.179  -0.320   2.658  0.00  0.00    +0.005 C 
ATOM     24  C   UNL     1      -2.217  -1.169   1.385  0.00  0.00    +0.009 C 
ENDBRANCH  15  18
ENDBRANCH   7  15
TORSDOF 4
