REMARK  Name = ZINC57846301
REMARK  8 active torsions:
REMARK  status: ('A' for Active; 'I' for Inactive)
REMARK    1  A    between atoms: C_1  and  C_2
REMARK    2  A    between atoms: C_2  and  C_3
REMARK    3  A    between atoms: C_3  and  C_5
REMARK    4  A    between atoms: C_3  and  N_23
REMARK    5  A    between atoms: C_5  and  N_6
REMARK    6  A    between atoms: C_9  and  C_13
REMARK    7  A    between atoms: C_9  and  C_14
REMARK    8  A    between atoms: C_18  and  N_20
REMARK                            x       y       z     vdW  Elec       q    Type
REMARK                         _______ _______ _______ _____ _____    ______ ____
ROOT
ATOM      1  N   UNL     1      -2.780  -2.575   0.021  0.00  0.00    -0.226 N 
ATOM      2  C   UNL     1      -3.608  -2.753   1.069  0.00  0.00    +0.251 C 
ATOM      3  O   UNL     1      -3.372  -2.526   2.236  0.00  0.00    -0.272 OA
ATOM      4  C   UNL     1      -4.897  -3.297   0.485  0.00  0.00    +0.135 C 
ATOM      5  N   UNL     1      -4.619  -3.369  -0.960  0.00  0.00    -0.281 N 
ATOM      6  C   UNL     1      -3.362  -2.922  -1.133  0.00  0.00    +0.310 C 
ATOM      7  O   UNL     1      -2.815  -2.846  -2.215  0.00  0.00    -0.252 OA
ATOM      8  C   UNL     1      -5.197  -4.689   1.045  0.00  0.00    +0.047 C 
ATOM      9  H   UNL     1      -5.226  -3.676  -1.652  0.00  0.00    +0.152 HD
ENDROOT
BRANCH   4  10
ATOM     10  C   UNL     1      -6.042  -2.356   0.759  0.00  0.00    -0.013 A 
ATOM     11  C   UNL     1      -6.030  -1.566   1.893  0.00  0.00    +0.006 A 
ATOM     12  C   UNL     1      -7.080  -0.703   2.144  0.00  0.00    +0.003 A 
ATOM     13  C   UNL     1      -8.142  -0.629   1.261  0.00  0.00    +0.033 A 
ATOM     14  C   UNL     1      -8.152  -1.419   0.127  0.00  0.00    +0.127 A 
ATOM     15  C   UNL     1      -7.100  -2.279  -0.127  0.00  0.00    +0.039 A 
BRANCH  14  16
ATOM     16  N   UNL     1      -9.289  -1.341  -0.819  0.00  0.00    +0.056 N 
ATOM     17  O   UNL     1     -10.207  -0.587  -0.598  0.00  0.00    -0.126 OA
ATOM     18  O   UNL     1      -9.298  -2.032  -1.811  0.00  0.00    -0.126 OA
ENDBRANCH  14  16
ENDBRANCH   4  10
BRANCH   1  19
ATOM     19  C   UNL     1      -1.413  -2.059   0.130  0.00  0.00    +0.102 C 
BRANCH  19  20
ATOM     20  C   UNL     1      -1.433  -0.534   0.013  0.00  0.00    -0.057 C 
BRANCH  20  21
ATOM     21  N   UNL     1      -2.107  -0.147  -1.234  0.00  0.00    +0.381 N 
ATOM     22  H   UNL     1      -3.054  -0.496  -1.227  0.00  0.00    -0.090 HD
ATOM     23  H   UNL     1      -2.120   0.859  -1.311  0.00  0.00    -0.090 HD
ATOM     24  H   UNL     1      -1.610  -0.539  -2.020  0.00  0.00    -0.090 HD
ENDBRANCH  20  21
BRANCH  20  26
ATOM     25  C   UNL     1      -0.019   1.526   0.010  0.00  0.00    +0.002 C 
ATOM     26  C   UNL     1       0.002  -0.004   0.002  0.00  0.00    -0.018 C 
ENDBRANCH  20  26
ENDBRANCH  19  20
ENDBRANCH   1  19
TORSDOF 6
