REMARK  Name = ZINC04245242
REMARK  4 active torsions:
REMARK  status: ('A' for Active; 'I' for Inactive)
REMARK    1  A    between atoms: C_1  and  C_2
REMARK    2  A    between atoms: C_5  and  C_7
REMARK    3  A    between atoms: C_7  and  C_9
REMARK    4  A    between atoms: C_14  and  N_15
REMARK                            x       y       z     vdW  Elec       q    Type
REMARK                         _______ _______ _______ _____ _____    ______ ____
ROOT
ATOM      1  C   UNL     1       0.055   1.459  -0.005  0.00  0.00    +0.050 A 
ATOM      2  C   UNL     1       1.220   2.234   0.010  0.00  0.00    +0.063 A 
ATOM      3  C   UNL     1       1.134   3.611   0.027  0.00  0.00    +0.163 A 
ATOM      4  C   UNL     1      -0.114   4.235   0.028  0.00  0.00    +0.164 A 
ATOM      5  C   UNL     1      -1.274   3.474   0.014  0.00  0.00    +0.072 A 
ATOM      6  C   UNL     1      -1.200   2.090  -0.008  0.00  0.00    +0.039 A 
ATOM      7  O   UNL     1      -0.212   5.592   0.040  0.00  0.00    -0.485 OA
ATOM      8  C   UNL     1       0.957   6.318   0.434  0.00  0.00    +0.270 C 
ATOM      9  C   UNL     1       2.163   5.730  -0.311  0.00  0.00    +0.270 C 
ATOM     10  O   UNL     1       2.280   4.348   0.046  0.00  0.00    -0.485 OA
ENDROOT
BRANCH   6  11
ATOM     11  N   UNL     1      -2.364   1.329  -0.027  0.00  0.00    -0.357 N 
ATOM     12  H   UNL     1      -2.313   0.363   0.040  0.00  0.00    +0.142 HD
ATOM     13  H   UNL     1      -3.227   1.765  -0.107  0.00  0.00    +0.142 HD
ENDBRANCH   6  11
BRANCH   1  14
ATOM     14  C   UNL     1       0.144  -0.011  -0.024  0.00  0.00    +0.230 C 
ATOM     15  O   UNL     1      -0.867  -0.683   0.074  0.00  0.00    -0.283 OA
BRANCH  14  20
ATOM     16  C   UNL     1       5.095  -0.668  -0.380  0.00  0.00    +0.086 C 
ATOM     17  C   UNL     1       3.618  -0.959  -0.317  0.00  0.00    +0.103 A 
ATOM     18  C   UNL     1       3.053  -2.185  -0.388  0.00  0.00    +0.045 A 
ATOM     19  C   UNL     1       1.665  -2.008  -0.284  0.00  0.00    +0.053 A 
ATOM     20  C   UNL     1       1.449  -0.664  -0.160  0.00  0.00    +0.175 A 
ATOM     21  O   UNL     1       2.647  -0.045  -0.179  0.00  0.00    -0.457 OA
ENDBRANCH  14  20
ENDBRANCH   1  14
TORSDOF 3
