REMARK  Name = ZINC65370860
REMARK  7 active torsions:
REMARK  status: ('A' for Active; 'I' for Inactive)
REMARK    1  A    between atoms: C_1  and  O_2
REMARK    2  A    between atoms: O_2  and  C_3
REMARK    3  A    between atoms: C_3  and  C_5
REMARK    4  A    between atoms: C_14  and  C_16
REMARK    5  A    between atoms: C_16  and  C_18
REMARK    6  A    between atoms: C_16  and  N_24
REMARK    7  A    between atoms: C_18  and  C_19
REMARK                            x       y       z     vdW  Elec       q    Type
REMARK                         _______ _______ _______ _____ _____    ______ ____
ROOT
ATOM      1  C   UNL     1       0.680  -2.087   1.091  0.00  0.00    +0.169 A 
ATOM      2  C   UNL     1       1.286  -2.866   2.107  0.00  0.00    +0.061 A 
ATOM      3  C   UNL     1       1.093  -4.145   1.736  0.00  0.00    +0.057 A 
ATOM      4  N   UNL     1       0.405  -4.140   0.568  0.00  0.00    -0.264 N 
ATOM      5  N   UNL     1       0.173  -2.928   0.210  0.00  0.00    -0.164 NA
ATOM      6  C   UNL     1      -0.014  -5.351  -0.151  0.00  0.00    +0.163 C 
ATOM      7  C   UNL     1       0.825  -6.540   0.327  0.00  0.00    +0.131 C 
ATOM      8  N   UNL     1       0.882  -6.535   1.796  0.00  0.00    -0.295 N 
ATOM      9  C   UNL     1       1.544  -5.393   2.456  0.00  0.00    +0.162 C 
ATOM     10  C   UNL     1       0.347  -7.540   2.518  0.00  0.00    +0.202 C 
ATOM     11  O   UNL     1      -0.192  -8.469   1.955  0.00  0.00    -0.277 OA
ENDROOT
BRANCH   1  12
ATOM     12  C   UNL     1       0.620  -0.613   1.032  0.00  0.00    +0.359 C 
ATOM     13  O   UNL     1       1.129   0.051   1.914  0.00  0.00    -0.243 OA
BRANCH  12  15
ATOM     14  C   UNL     1      -0.017   1.425   0.010  0.00  0.00    +0.280 C 
ATOM     15  O   UNL     1       0.002  -0.004   0.002  0.00  0.00    -0.463 OA
ENDBRANCH  12  15
ENDBRANCH   1  12
BRANCH  10  16
ATOM     16  C   UNL     1       0.420  -7.510   4.022  0.00  0.00    +0.019 C 
BRANCH  16  17
ATOM     17  N   UNL     1      -0.603  -8.405   4.580  0.00  0.00    +0.386 N 
ATOM     18  H   UNL     1      -0.554  -8.384   5.588  0.00  0.00    -0.089 HD
ATOM     19  H   UNL     1      -1.517  -8.100   4.281  0.00  0.00    -0.089 HD
ATOM     20  H   UNL     1      -0.439  -9.346   4.255  0.00  0.00    -0.089 HD
ENDBRANCH  16  17
BRANCH  16  21
ATOM     21  C   UNL     1       1.806  -7.973   4.476  0.00  0.00    +0.049 C 
BRANCH  21  22
ATOM     22  C   UNL     1       1.920  -7.826   5.971  0.00  0.00    +0.047 A 
ATOM     23  C   UNL     1       2.268  -8.873   6.763  0.00  0.00    +0.070 A 
ATOM     24  S   UNL     1       2.233  -8.095   8.370  0.00  0.00    -0.084 S 
ATOM     25  C   UNL     1       1.788  -6.551   7.870  0.00  0.00    +0.156 A 
ATOM     26  N   UNL     1       1.692  -6.674   6.570  0.00  0.00    -0.252 NA
ENDBRANCH  21  22
ENDBRANCH  16  21
ENDBRANCH  10  16
TORSDOF 6
