REMARK  Name = ZINC20996278
REMARK  3 active torsions:
REMARK  status: ('A' for Active; 'I' for Inactive)
REMARK    1  A    between atoms: N_9  and  C_11
REMARK    2  A    between atoms: C_17  and  C_19
REMARK    3  A    between atoms: C_19  and  C_20
REMARK                            x       y       z     vdW  Elec       q    Type
REMARK                         _______ _______ _______ _____ _____    ______ ____
ROOT
ATOM      1  C   UNL     1       0.927  -6.682  -2.187  0.00  0.00    -0.065 C 
ATOM      2  C   UNL     1       0.659  -5.612  -3.247  0.00  0.00    +0.004 C 
ATOM      3  C   UNL     1       1.669  -4.472  -3.084  0.00  0.00    +0.106 C 
ATOM      4  N   UNL     1       1.607  -3.980  -1.701  0.00  0.00    -0.301 N 
ATOM      5  C   UNL     1       1.767  -4.941  -0.601  0.00  0.00    +0.106 C 
ATOM      6  C   UNL     1       0.750  -6.076  -0.792  0.00  0.00    +0.004 C 
ATOM      7  C   UNL     1       1.412  -2.671  -1.446  0.00  0.00    +0.222 C 
ATOM      8  O   UNL     1       1.286  -1.887  -2.363  0.00  0.00    -0.275 OA
ENDROOT
BRANCH   1  17
ATOM      9  C   UNL     1      -2.487 -11.741  -4.202  0.00  0.00    +0.000 A 
ATOM     10  C   UNL     1      -2.005 -11.062  -5.305  0.00  0.00    +0.000 A 
ATOM     11  C   UNL     1      -1.185  -9.965  -5.132  0.00  0.00    +0.002 A 
ATOM     12  C   UNL     1      -0.843  -9.539  -3.857  0.00  0.00    -0.061 A 
ATOM     13  C   UNL     1      -1.326 -10.215  -2.758  0.00  0.00    -0.048 A 
ATOM     14  C   UNL     1      -2.148 -11.318  -2.932  0.00  0.00    +0.004 A 
ATOM     15  C   UNL     1      -0.987  -9.787  -1.353  0.00  0.00    +0.017 C 
ATOM     16  C   UNL     1       0.224  -8.853  -1.371  0.00  0.00    -0.073 C 
ATOM     17  N   UNL     1      -0.019  -7.792  -2.361  0.00  0.00    +0.385 N 
ATOM     18  C   UNL     1       0.058  -8.339  -3.720  0.00  0.00    -0.042 C 
ATOM     19  H   UNL     1      -1.033  -7.394  -2.207  0.00  0.00    -0.081 HD
ENDBRANCH   1  17
BRANCH   7  20
ATOM     20  C   UNL     1       1.350  -2.181  -0.022  0.00  0.00    +0.160 C 
BRANCH  20  21
ATOM     21  C   UNL     1       1.126  -0.691  -0.012  0.00  0.00    +0.112 A 
ATOM     22  N   UNL     1       0.002  -0.004   0.002  0.00  0.00    -0.144 NA
ATOM     23  N   UNL     1      -0.015   1.257   0.009  0.00  0.00    -0.126 NA
ATOM     24  C   UNL     1       1.103   1.971   0.002  0.00  0.00    +0.179 A 
ATOM     25  S   UNL     1       2.312   0.651  -0.017  0.00  0.00    -0.035 S 
ATOM     26  N   UNL     1       1.283   3.347   0.007  0.00  0.00    -0.336 N 
ATOM     27  H   UNL     1       2.299   3.768  -0.000  0.00  0.00    +0.144 HD
ATOM     28  H   UNL     1       0.410   4.016   0.018  0.00  0.00    +0.144 HD
ENDBRANCH  20  21
ENDBRANCH   7  20
TORSDOF 3
