REMARK  Name = ZINC48996065
REMARK  3 active torsions:
REMARK  status: ('A' for Active; 'I' for Inactive)
REMARK    1  A    between atoms: C_6  and  S_7
REMARK    2  A    between atoms: S_7  and  N_10
REMARK    3  A    between atoms: N_13  and  C_16
REMARK                            x       y       z     vdW  Elec       q    Type
REMARK                         _______ _______ _______ _____ _____    ______ ____
ROOT
ATOM      1  S   UNL     1      -1.510  -0.908   0.012  0.00  0.00    +0.061 S 
ATOM      2  O   UNL     1      -1.215  -2.188   0.553  0.00  0.00    -0.153 OA
ATOM      3  O   UNL     1      -2.493  -0.050   0.576  0.00  0.00    -0.153 OA
ENDROOT
BRANCH   1   9
ATOM      4  C   UNL     1      -0.017   1.378   0.010  0.00  0.00    +0.030 A 
ATOM      5  C   UNL     1       1.165   2.089   0.002  0.00  0.00    +0.025 A 
ATOM      6  C   UNL     1       2.390   1.418  -0.013  0.00  0.00    +0.031 A 
ATOM      7  C   UNL     1       2.397   0.032  -0.021  0.00  0.00    -0.023 A 
ATOM      8  C   UNL     1       1.211  -0.675  -0.014  0.00  0.00    +0.034 A 
ATOM      9  C   UNL     1       0.002  -0.004   0.002  0.00  0.00    +0.106 A 
ATOM     10  C   UNL     1       3.834  -0.441  -0.036  0.00  0.00    +0.055 C 
ATOM     11  C   UNL     1       4.665   0.852  -0.037  0.00  0.00    +0.106 C 
ATOM     12  N   UNL     1       3.684   1.940  -0.022  0.00  0.00    -0.343 N 
ATOM     13  H   UNL     1       3.902   2.885  -0.019  0.00  0.00    +0.146 HD
ENDBRANCH   1   9
BRANCH   1  14
ATOM     14  N   UNL     1      -1.946  -1.151  -1.568  0.00  0.00    -0.180 NA
ATOM     15  C   UNL     1      -2.787  -0.175  -2.279  0.00  0.00    +0.091 C 
ATOM     16  C   UNL     1      -2.112   0.167  -3.612  0.00  0.00    -0.061 C 
ATOM     17  N   UNL     1      -1.854  -1.070  -4.360  0.00  0.00    +0.383 N 
ATOM     18  C   UNL     1      -0.889  -1.903  -3.631  0.00  0.00    -0.061 C 
ATOM     19  C   UNL     1      -1.497  -2.345  -2.301  0.00  0.00    +0.091 C 
ATOM     20  H   UNL     1      -2.717  -1.580  -4.474  0.00  0.00    -0.081 HD
BRANCH  17  21
ATOM     21  C   UNL     1      -1.309  -0.735  -5.682  0.00  0.00    -0.069 C 
ATOM     22  C   UNL     1      -2.190  -1.015  -6.901  0.00  0.00    -0.017 C 
ATOM     23  C   UNL     1      -0.971  -1.895  -6.621  0.00  0.00    -0.017 C 
ENDBRANCH  17  21
ENDBRANCH   1  14
TORSDOF 3
