REMARK  Name = ZINC00588474
REMARK  8 active torsions:
REMARK  status: ('A' for Active; 'I' for Inactive)
REMARK    1  A    between atoms: C_3  and  N_17
REMARK    2  A    between atoms: C_6  and  N_7
REMARK    3  A    between atoms: C_8  and  C_9
REMARK    4  A    between atoms: C_12  and  O_16
REMARK    5  A    between atoms: C_14  and  O_15
REMARK    6  A    between atoms: C_18  and  C_19
REMARK    7  A    between atoms: C_22  and  O_26
REMARK    8  A    between atoms: C_24  and  O_25
REMARK                            x       y       z     vdW  Elec       q    Type
REMARK                         _______ _______ _______ _____ _____    ______ ____
ROOT
ATOM      1  C   UNL     1       1.853  -0.868  -1.885  0.00  0.00    +0.030 A 
ATOM      2  C   UNL     1       2.344   0.326  -1.439  0.00  0.00    +0.030 A 
ATOM      3  C   UNL     1       3.651   0.404  -0.947  0.00  0.00    +0.064 A 
ATOM      4  C   UNL     1       4.455  -0.740  -0.912  0.00  0.00    +0.030 A 
ATOM      5  C   UNL     1       3.963  -1.934  -1.357  0.00  0.00    +0.030 A 
ATOM      6  C   UNL     1       2.656  -2.012  -1.850  0.00  0.00    +0.064 A 
ENDROOT
BRANCH   6   7
ATOM      7  N   UNL     1       2.165  -3.206  -2.296  0.00  0.00    -0.255 NA
ATOM      8  C   UNL     1       2.893  -3.964  -3.071  0.00  0.00    +0.123 C 
BRANCH   8   9
ATOM      9  C   UNL     1       2.364  -5.247  -3.550  0.00  0.00    +0.035 A 
ATOM     10  C   UNL     1       3.145  -6.065  -4.376  0.00  0.00    +0.016 A 
ATOM     11  C   UNL     1       2.645  -7.266  -4.822  0.00  0.00    +0.046 A 
ATOM     12  C   UNL     1       1.366  -7.673  -4.455  0.00  0.00    +0.120 A 
ATOM     13  C   UNL     1       0.583  -6.871  -3.638  0.00  0.00    +0.091 A 
ATOM     14  C   UNL     1       1.075  -5.663  -3.176  0.00  0.00    +0.129 A 
BRANCH  14  15
ATOM     15  O   UNL     1       0.314  -4.880  -2.371  0.00  0.00    -0.506 OA
ATOM     16  H   UNL     1      -0.243  -4.249  -2.849  0.00  0.00    +0.292 HD
ENDBRANCH  14  15
BRANCH  12  17
ATOM     17  O   UNL     1       0.881  -8.861  -4.901  0.00  0.00    -0.507 OA
ATOM     18  H   UNL     1       1.073  -9.607  -4.317  0.00  0.00    +0.292 HD
ENDBRANCH  12  17
ENDBRANCH   8   9
ENDBRANCH   6   7
BRANCH   3  19
ATOM     19  N   UNL     1       4.143   1.599  -0.502  0.00  0.00    -0.255 NA
ATOM     20  C   UNL     1       4.587   1.707   0.721  0.00  0.00    +0.123 C 
BRANCH  20  21
ATOM     21  C   UNL     1       4.381   0.611   1.676  0.00  0.00    +0.035 A 
ATOM     22  C   UNL     1       3.273  -0.235   1.548  0.00  0.00    +0.016 A 
ATOM     23  C   UNL     1       3.084  -1.260   2.445  0.00  0.00    +0.046 A 
ATOM     24  C   UNL     1       3.991  -1.461   3.481  0.00  0.00    +0.120 A 
ATOM     25  C   UNL     1       5.093  -0.629   3.619  0.00  0.00    +0.091 A 
ATOM     26  C   UNL     1       5.298   0.403   2.719  0.00  0.00    +0.129 A 
BRANCH  26  27
ATOM     27  O   UNL     1       6.379   1.214   2.849  0.00  0.00    -0.506 OA
ATOM     28  H   UNL     1       6.221   1.995   3.396  0.00  0.00    +0.292 HD
ENDBRANCH  26  27
BRANCH  24  29
ATOM     29  O   UNL     1       3.797  -2.475   4.362  0.00  0.00    -0.507 OA
ATOM     30  H   UNL     1       4.212  -3.308   4.101  0.00  0.00    +0.292 HD
ENDBRANCH  24  29
ENDBRANCH  20  21
ENDBRANCH   3  19
TORSDOF 8
