REMARK  Name = ZINC11851051
REMARK  4 active torsions:
REMARK  status: ('A' for Active; 'I' for Inactive)
REMARK    1  A    between atoms: C_4  and  C_7
REMARK    2  A    between atoms: C_8  and  C_13
REMARK    3  A    between atoms: C_11  and  N_12
REMARK    4  A    between atoms: C_13  and  N_42
REMARK                            x       y       z     vdW  Elec       q    Type
REMARK                         _______ _______ _______ _____ _____    ______ ____
ROOT
ATOM      1  C   UNL     1      -0.018   1.478   0.010  0.00  0.00    +0.064 A 
ATOM      2  C   UNL     1      -1.144   2.342   0.019  0.00  0.00    +0.077 A 
ATOM      3  N   UNL     1      -0.676   3.557   0.027  0.00  0.00    -0.082 NA
ATOM      4  O   UNL     1       0.531   3.587   0.016  0.00  0.00    -0.339 OA
ATOM      5  C   UNL     1       1.061   2.354   0.005  0.00  0.00    +0.223 A 
ENDROOT
BRANCH   1   9
ATOM      6  C   UNL     1       0.039  -2.772  -0.013  0.00  0.00    +0.000 A 
ATOM      7  C   UNL     1       0.547  -2.083   1.073  0.00  0.00    +0.001 A 
ATOM      8  C   UNL     1       0.531  -0.703   1.086  0.00  0.00    +0.009 A 
ATOM      9  C   UNL     1       0.002  -0.004   0.002  0.00  0.00    -0.011 A 
ATOM     10  C   UNL     1      -0.513  -0.705  -1.087  0.00  0.00    +0.009 A 
ATOM     11  C   UNL     1      -0.487  -2.085  -1.092  0.00  0.00    +0.001 A 
ENDBRANCH   1   9
BRANCH   5  12
ATOM     12  N   UNL     1       2.400   2.024  -0.009  0.00  0.00    -0.327 N 
ATOM     13  H   UNL     1       2.669   1.092  -0.016  0.00  0.00    +0.145 HD
ATOM     14  H   UNL     1       3.071   2.723  -0.012  0.00  0.00    +0.145 HD
ENDBRANCH   5  12
BRANCH   2  15
ATOM     15  C   UNL     1      -2.595   1.934   0.023  0.00  0.00    -0.018 C 
BRANCH  15  25
ATOM     16  C   UNL     1      -4.402   1.191   1.456  0.00  0.00    -0.073 C 
ATOM     17  C   UNL     1      -4.679   0.734   2.888  0.00  0.00    +0.017 C 
ATOM     18  C   UNL     1      -4.390   1.857   3.851  0.00  0.00    -0.048 A 
ATOM     19  C   UNL     1      -4.902   1.774   5.137  0.00  0.00    +0.004 A 
ATOM     20  C   UNL     1      -4.657   2.779   6.051  0.00  0.00    +0.000 A 
ATOM     21  C   UNL     1      -3.897   3.874   5.683  0.00  0.00    +0.000 A 
ATOM     22  C   UNL     1      -3.388   3.958   4.403  0.00  0.00    +0.002 A 
ATOM     23  C   UNL     1      -3.634   2.950   3.482  0.00  0.00    -0.061 A 
ATOM     24  C   UNL     1      -3.061   3.089   2.096  0.00  0.00    -0.042 C 
ATOM     25  N   UNL     1      -3.048   1.779   1.423  0.00  0.00    +0.386 N 
ATOM     26  H   UNL     1      -2.399   1.155   1.917  0.00  0.00    -0.081 HD
ENDBRANCH  15  25
ENDBRANCH   2  15
TORSDOF 4
