REMARK  Name = ZINC62854729
REMARK  7 active torsions:
REMARK  status: ('A' for Active; 'I' for Inactive)
REMARK    1  A    between atoms: C_1  and  C_2
REMARK    2  A    between atoms: C_2  and  C_8
REMARK    3  A    between atoms: N_10  and  C_11
REMARK    4  A    between atoms: C_17  and  C_19
REMARK    5  A    between atoms: C_19  and  C_20
REMARK    6  A    between atoms: C_19  and  C_21
REMARK    7  A    between atoms: C_19  and  C_22
REMARK                            x       y       z     vdW  Elec       q    Type
REMARK                         _______ _______ _______ _____ _____    ______ ____
ROOT
ATOM      1  C   UNL     1      -1.431  -0.776  -0.837  0.00  0.00    +0.217 C 
ATOM      2  O   UNL     1      -1.759  -1.689  -0.108  0.00  0.00    -0.275 OA
ATOM      3  N   UNL     1      -2.343  -0.191  -1.637  0.00  0.00    -0.312 N 
ATOM      4  H   UNL     1      -2.080   0.539  -2.220  0.00  0.00    +0.149 HD
ENDROOT
BRANCH   1   6
ATOM      5  C   UNL     1       0.045   1.178  -0.442  0.00  0.00    +0.019 C 
ATOM      6  C   UNL     1      -0.002  -0.297  -0.846  0.00  0.00    +0.029 C 
ATOM      7  C   UNL     1       0.584  -0.461  -2.252  0.00  0.00    +0.012 C 
ATOM      8  C   UNL     1       0.605  -1.949  -2.615  0.00  0.00    -0.018 C 
ATOM      9  C   UNL     1       1.405  -2.715  -1.560  0.00  0.00    -0.083 C 
ATOM     10  N   UNL     1       0.780  -2.540  -0.243  0.00  0.00    +0.380 N 
ATOM     11  C   UNL     1       0.821  -1.124   0.143  0.00  0.00    -0.067 C 
ATOM     12  H   UNL     1      -0.180  -2.848  -0.284  0.00  0.00    -0.086 HD
ATOM     13  H   UNL     1       1.279  -3.089   0.441  0.00  0.00    -0.086 HD
ENDBRANCH   1   6
BRANCH   3  14
ATOM     14  C   UNL     1      -3.732  -0.657  -1.628  0.00  0.00    +0.077 C 
ATOM     15  C   UNL     1      -3.900  -1.781  -2.651  0.00  0.00    +0.022 C 
ATOM     16  C   UNL     1      -3.547  -1.259  -4.045  0.00  0.00    +0.002 C 
ATOM     17  C   UNL     1      -4.476  -0.098  -4.406  0.00  0.00    +0.000 C 
ATOM     18  C   UNL     1      -4.309   1.026  -3.382  0.00  0.00    +0.006 C 
ATOM     19  C   UNL     1      -4.662   0.504  -1.988  0.00  0.00    +0.015 C 
BRANCH  19  20
ATOM     20  C   UNL     1      -4.494   1.628  -0.964  0.00  0.00    -0.033 C 
ATOM     21  C   UNL     1      -3.087   2.218  -1.080  0.00  0.00    +0.011 C 
ATOM     22  C   UNL     1      -5.529   2.722  -1.234  0.00  0.00    +0.011 C 
ATOM     23  C   UNL     1      -4.698   1.069   0.446  0.00  0.00    +0.011 C 
ENDBRANCH  19  20
ENDBRANCH   3  14
TORSDOF 3
