REMARK  Name = ZINC46906989
REMARK  5 active torsions:
REMARK  status: ('A' for Active; 'I' for Inactive)
REMARK    1  A    between atoms: C_1  and  C_2
REMARK    2  A    between atoms: N_10  and  C_11
REMARK    3  A    between atoms: C_18  and  C_22
REMARK    4  A    between atoms: C_19  and  C_20
REMARK    5  A    between atoms: C_19  and  C_21
REMARK                            x       y       z     vdW  Elec       q    Type
REMARK                         _______ _______ _______ _____ _____    ______ ____
ROOT
ATOM      1  C   UNL     1      -0.386  -2.798   5.786  0.00  0.00    +0.089 C 
ATOM      2  C   UNL     1      -0.275  -3.243   4.350  0.00  0.00    +0.136 A 
ATOM      3  C   UNL     1      -1.298  -3.407   3.494  0.00  0.00    +0.091 A 
ATOM      4  C   UNL     1      -0.769  -3.831   2.254  0.00  0.00    +0.169 A 
ATOM      5  N   UNL     1       0.531  -3.912   2.379  0.00  0.00    -0.063 NA
ATOM      6  O   UNL     1       0.864  -3.537   3.703  0.00  0.00    -0.358 OA
ATOM      7  N   UNL     1      -1.503  -4.112   1.101  0.00  0.00    -0.252 N 
ATOM      8  C   UNL     1      -2.845  -3.987   1.109  0.00  0.00    +0.305 C 
ATOM      9  O   UNL     1      -3.416  -3.629   2.121  0.00  0.00    -0.252 OA
ATOM     10  N   UNL     1      -3.553  -4.259  -0.004  0.00  0.00    -0.296 N 
ATOM     11  H   UNL     1      -1.047  -4.398   0.294  0.00  0.00    +0.158 HD
ATOM     12  H   UNL     1      -3.098  -4.545  -0.812  0.00  0.00    +0.151 HD
ENDROOT
BRANCH  10  13
ATOM     13  C   UNL     1      -5.012  -4.123   0.004  0.00  0.00    +0.081 C 
ATOM     14  C   UNL     1      -5.540  -3.889  -1.430  0.00  0.00    +0.027 C 
ATOM     15  C   UNL     1      -6.477  -5.104  -1.708  0.00  0.00    -0.003 C 
ATOM     16  C   UNL     1      -5.509  -6.317  -1.858  0.00  0.00    +0.005 C 
ATOM     17  C   UNL     1      -4.965  -6.562  -0.432  0.00  0.00    +0.009 C 
ATOM     18  C   UNL     1      -5.680  -5.456   0.461  0.00  0.00    -0.008 C 
ATOM     19  C   UNL     1      -7.064  -5.351  -0.274  0.00  0.00    -0.025 C 
ATOM     20  C   UNL     1      -7.886  -4.160   0.223  0.00  0.00    +0.012 C 
ATOM     21  C   UNL     1      -7.856  -6.658  -0.195  0.00  0.00    +0.012 C 
ATOM     22  C   UNL     1      -5.712  -5.705   1.970  0.00  0.00    +0.013 C 
ENDBRANCH  10  13
TORSDOF 1
