REMARK  Name = ZINC37711504
REMARK  8 active torsions:
REMARK  status: ('A' for Active; 'I' for Inactive)
REMARK    1  A    between atoms: C_1  and  C_2
REMARK    2  A    between atoms: C_2  and  C_3
REMARK    3  A    between atoms: C_2  and  N_4
REMARK    4  A    between atoms: N_4  and  C_5
REMARK    5  A    between atoms: C_5  and  C_6
REMARK    6  A    between atoms: C_11  and  O_12
REMARK    7  A    between atoms: O_12  and  C_13
REMARK    8  A    between atoms: C_18  and  O_20
REMARK                            x       y       z     vdW  Elec       q    Type
REMARK                         _______ _______ _______ _____ _____    ______ ____
ROOT
ATOM      1  C   UNL     1      -3.359  -0.416  -1.136  0.00  0.00    -0.020 A 
ATOM      2  C   UNL     1      -3.674  -1.581  -1.809  0.00  0.00    +0.025 A 
ATOM      3  C   UNL     1      -4.888  -2.204  -1.586  0.00  0.00    +0.043 A 
ATOM      4  C   UNL     1      -5.791  -1.662  -0.688  0.00  0.00    +0.043 A 
ATOM      5  C   UNL     1      -5.480  -0.496  -0.013  0.00  0.00    +0.084 A 
ATOM      6  C   UNL     1      -4.259   0.126  -0.232  0.00  0.00    +0.141 A 
ATOM      7 CL   UNL     1      -6.613   0.184   1.113  0.00  0.00    -0.080 Cl
ATOM      8 CL   UNL     1      -5.281  -3.667  -2.433  0.00  0.00    -0.083 Cl
ENDROOT
BRANCH   1   9
ATOM      9  C   UNL     1      -2.035   0.262  -1.381  0.00  0.00    -0.043 C 
BRANCH   9  10
ATOM     10  N   UNL     1      -1.089  -0.114  -0.322  0.00  0.00    +0.383 N 
ATOM     11  H   UNL     1      -1.032  -1.119  -0.263  0.00  0.00    -0.085 HD
ATOM     12  H   UNL     1      -1.408   0.257   0.561  0.00  0.00    -0.085 HD
BRANCH  10  14
ATOM     13  C   UNL     1       0.175   1.964  -0.610  0.00  0.00    -0.014 C 
ATOM     14  C   UNL     1       0.237   0.435  -0.633  0.00  0.00    -0.078 C 
ATOM     15  C   UNL     1       1.247  -0.050   0.410  0.00  0.00    -0.014 C 
ENDBRANCH  10  14
ENDBRANCH   9  10
ENDBRANCH   1   9
BRANCH   6  16
ATOM     16  O   UNL     1      -3.948   1.270   0.435  0.00  0.00    -0.485 OA
BRANCH  16  17
ATOM     17  C   UNL     1      -3.310   1.126   1.706  0.00  0.00    +0.202 C 
ATOM     18  C   UNL     1      -4.361   1.174   2.834  0.00  0.00    +0.047 C 
ATOM     19  C   UNL     1      -3.655   1.944   3.978  0.00  0.00    +0.006 C 
ATOM     20  C   UNL     1      -2.852   3.027   3.216  0.00  0.00    +0.035 C 
ATOM     21  C   UNL     1      -2.349   2.304   1.948  0.00  0.00    +0.155 C 
BRANCH  21  22
ATOM     22  O   UNL     1      -2.377   3.196   0.832  0.00  0.00    -0.388 OA
ATOM     23  H   UNL     1      -1.791   3.960   0.925  0.00  0.00    +0.210 HD
ENDBRANCH  21  22
ENDBRANCH  16  17
ENDBRANCH   6  16
TORSDOF 6
