REMARK  Name = ZINC42297298
REMARK  6 active torsions:
REMARK  status: ('A' for Active; 'I' for Inactive)
REMARK    1  A    between atoms: C_1  and  C_2
REMARK    2  A    between atoms: C_2  and  C_4
REMARK    3  A    between atoms: C_2  and  N_11
REMARK    4  A    between atoms: N_11  and  C_12
REMARK    5  A    between atoms: C_13  and  N_22
REMARK    6  A    between atoms: N_14  and  C_21
REMARK                            x       y       z     vdW  Elec       q    Type
REMARK                         _______ _______ _______ _____ _____    ______ ____
ROOT
ATOM      1  C   UNL     1      -0.048  -0.716  -2.387  0.00  0.00    +0.131 A 
ATOM      2  C   UNL     1       0.563  -1.253  -3.488  0.00  0.00    +0.127 A 
ATOM      3  N   UNL     1      -0.175  -1.476  -4.628  0.00  0.00    -0.284 N 
ATOM      4  C   UNL     1      -1.484  -1.169  -4.662  0.00  0.00    +0.331 A 
ATOM      5  O   UNL     1      -2.121  -1.373  -5.677  0.00  0.00    -0.246 OA
ATOM      6  N   UNL     1      -2.101  -0.640  -3.589  0.00  0.00    -0.273 N 
ATOM      7  H   UNL     1      -3.046  -0.426  -3.635  0.00  0.00    +0.173 HD
ATOM      8  C   UNL     1      -1.419  -0.410  -2.450  0.00  0.00    +0.277 A 
ATOM      9  O   UNL     1      -1.987   0.065  -1.480  0.00  0.00    -0.266 OA
ATOM     10  C   UNL     1       0.469  -2.051  -5.812  0.00  0.00    +0.155 C 
ENDROOT
BRANCH   2  11
ATOM     11  N   UNL     1       1.903  -1.567  -3.455  0.00  0.00    -0.343 N 
ATOM     12  H   UNL     1       2.418  -1.408  -2.649  0.00  0.00    +0.144 HD
ATOM     13  H   UNL     1       2.331  -1.948  -4.237  0.00  0.00    +0.144 HD
ENDBRANCH   2  11
BRANCH   1  14
ATOM     14  N   UNL     1       0.688  -0.476  -1.203  0.00  0.00    -0.330 N 
ATOM     15  H   UNL     1       1.648  -0.616  -1.192  0.00  0.00    +0.147 HD
BRANCH  14  17
ATOM     16  C   UNL     1      -0.169   1.501  -0.047  0.00  0.00    +0.033 C 
ATOM     17  C   UNL     1      -0.000  -0.019   0.006  0.00  0.00    +0.098 C 
BRANCH  17  18
ATOM     18  C   UNL     1       0.814  -0.392   1.219  0.00  0.00    -0.027 A 
ATOM     19  C   UNL     1       2.191  -0.269   1.191  0.00  0.00    +0.007 A 
ATOM     20  C   UNL     1       2.938  -0.610   2.303  0.00  0.00    +0.020 A 
ATOM     21  C   UNL     1       2.307  -1.075   3.443  0.00  0.00    +0.041 A 
ATOM     22  C   UNL     1       0.930  -1.198   3.470  0.00  0.00    +0.020 A 
ATOM     23  C   UNL     1       0.183  -0.851   2.360  0.00  0.00    +0.007 A 
ATOM     24 CL   UNL     1       3.245  -1.505   4.839  0.00  0.00    -0.084 Cl
ENDBRANCH  17  18
ENDBRANCH  14  17
ENDBRANCH   1  14
TORSDOF 4
