REMARK  Name = ZINC07425775
REMARK  10 active torsions:
REMARK  status: ('A' for Active; 'I' for Inactive)
REMARK    1  A    between atoms: C_1  and  C_2
REMARK    2  A    between atoms: C_2  and  C_4
REMARK    3  A    between atoms: C_2  and  O_23
REMARK    4  A    between atoms: C_4  and  N_5
REMARK    5  A    between atoms: N_13  and  C_22
REMARK    6  A    between atoms: N_17  and  C_18
REMARK    7  A    between atoms: C_18  and  C_19
REMARK    8  A    between atoms: C_19  and  N_44
REMARK    9  A    between atoms: C_20  and  N_44
REMARK   10  A    between atoms: C_21  and  N_44
REMARK                            x       y       z     vdW  Elec       q    Type
REMARK                         _______ _______ _______ _____ _____    ______ ____
ROOT
ATOM      1  N   UNL     1      -2.812   1.421   2.538  0.00  0.00    -0.304 N 
ATOM      2  C   UNL     1      -2.830   0.679   3.711  0.00  0.00    +0.153 A 
ATOM      3  C   UNL     1      -2.288  -0.558   4.101  0.00  0.00    +0.280 A 
ATOM      4  O   UNL     1      -1.645  -1.225   3.310  0.00  0.00    -0.265 OA
ATOM      5  N   UNL     1      -2.491  -1.001   5.359  0.00  0.00    -0.273 N 
ATOM      6  H   UNL     1      -2.109  -1.882   5.638  0.00  0.00    +0.173 HD
ATOM      7  C   UNL     1      -3.198  -0.276   6.242  0.00  0.00    +0.331 A 
ATOM      8  O   UNL     1      -3.362  -0.707   7.368  0.00  0.00    -0.246 OA
ATOM      9  N   UNL     1      -3.731   0.916   5.912  0.00  0.00    -0.280 N 
ATOM     10  C   UNL     1      -3.556   1.424   4.635  0.00  0.00    +0.170 A 
ATOM     11  N   UNL     1      -3.951   2.544   4.027  0.00  0.00    -0.196 NA
ATOM     12  C   UNL     1      -3.518   2.557   2.783  0.00  0.00    +0.198 A 
ATOM     13  N   UNL     1      -3.745   3.564   1.872  0.00  0.00    -0.317 N 
ATOM     14  C   UNL     1      -4.496   1.676   6.903  0.00  0.00    +0.155 C 
ATOM     15  H   UNL     1      -3.389   3.494   0.973  0.00  0.00    +0.149 HD
ENDROOT
BRANCH   1  16
ATOM     16  C   UNL     1      -2.164   1.050   1.278  0.00  0.00    +0.156 C 
BRANCH  16  18
ATOM     17  C   UNL     1      -0.013   1.086   0.008  0.00  0.00    +0.039 C 
ATOM     18  C   UNL     1      -0.729   1.579   1.267  0.00  0.00    +0.131 C 
BRANCH  18  19
ATOM     19  O   UNL     1      -0.748   3.008   1.275  0.00  0.00    -0.390 OA
ATOM     20  H   UNL     1       0.130   3.413   1.268  0.00  0.00    +0.210 HD
ENDBRANCH  18  19
ENDBRANCH  16  18
ENDBRANCH   1  16
BRANCH  13  21
ATOM     21  C   UNL     1      -4.525   4.741   2.262  0.00  0.00    +0.086 C 
BRANCH  21  22
ATOM     22  C   UNL     1      -4.628   5.700   1.075  0.00  0.00    -0.061 C 
BRANCH  22  25
ATOM     23  C   UNL     1      -4.705   7.665   2.487  0.00  0.00    -0.097 C 
ATOM     24  C   UNL     1      -5.733   7.710   0.296  0.00  0.00    -0.097 C 
ATOM     25  N   UNL     1      -5.435   6.872   1.477  0.00  0.00    +0.377 N 
ATOM     26  H   UNL     1      -6.319   6.544   1.885  0.00  0.00    -0.083 HD
ENDBRANCH  22  25
ENDBRANCH  21  22
ENDBRANCH  13  21
TORSDOF 6
