REMARK  Name = ZINC49970941
REMARK  7 active torsions:
REMARK  status: ('A' for Active; 'I' for Inactive)
REMARK    1  A    between atoms: C_1  and  N_2
REMARK    2  A    between atoms: N_2  and  C_3
REMARK    3  A    between atoms: N_2  and  C_11
REMARK    4  A    between atoms: C_6  and  O_9
REMARK    5  A    between atoms: O_9  and  C_10
REMARK    6  A    between atoms: C_12  and  C_19
REMARK    7  A    between atoms: C_19  and  N_20
REMARK                            x       y       z     vdW  Elec       q    Type
REMARK                         _______ _______ _______ _____ _____    ______ ____
ROOT
ATOM      1  C   UNL     1      -0.102  -0.649  -1.242  0.00  0.00    +0.146 A 
ATOM      2  C   UNL     1       0.925  -1.076  -2.004  0.00  0.00    +0.048 A 
ATOM      3  N   UNL     1       0.384  -1.659  -3.153  0.00  0.00    -0.297 N 
ATOM      4  C   UNL     1       0.833  -2.271  -4.303  0.00  0.00    +0.100 A 
ATOM      5  C   UNL     1      -0.027  -2.721  -5.216  0.00  0.00    +0.067 A 
ATOM      6  S   UNL     1      -1.599  -2.293  -4.484  0.00  0.00    -0.058 S 
ATOM      7  C   UNL     1      -0.971  -1.540  -3.001  0.00  0.00    +0.179 A 
ATOM      8  N   UNL     1      -1.250  -0.950  -1.873  0.00  0.00    -0.206 NA
ENDROOT
BRANCH   1  10
ATOM      9  C   UNL     1      -0.008   1.457   0.072  0.00  0.00    +0.137 C 
ATOM     10  N   UNL     1       0.007  -0.006   0.001  0.00  0.00    -0.287 N 
BRANCH  10  11
ATOM     11  C   UNL     1       0.132  -0.762   1.171  0.00  0.00    +0.035 A 
ATOM     12  C   UNL     1       0.252  -2.144   1.097  0.00  0.00    +0.027 A 
ATOM     13  C   UNL     1       0.375  -2.889   2.252  0.00  0.00    +0.047 A 
ATOM     14  C   UNL     1       0.377  -2.259   3.488  0.00  0.00    +0.120 A 
ATOM     15  C   UNL     1       0.256  -0.879   3.564  0.00  0.00    +0.047 A 
ATOM     16  C   UNL     1       0.140  -0.131   2.409  0.00  0.00    +0.027 A 
BRANCH  14  17
ATOM     17  O   UNL     1       0.497  -2.994   4.626  0.00  0.00    -0.495 OA
ATOM     18  C   UNL     1       0.492  -2.280   5.864  0.00  0.00    +0.277 C 
ENDBRANCH  14  17
ENDBRANCH  10  11
ENDBRANCH   1  10
BRANCH   2  19
ATOM     19  C   UNL     1       2.390  -0.948  -1.676  0.00  0.00    -0.028 C 
BRANCH  19  20
ATOM     20  N   UNL     1       2.931   0.262  -2.311  0.00  0.00    +0.382 N 
ATOM     21  H   UNL     1       3.912   0.347  -2.091  0.00  0.00    -0.090 HD
ATOM     22  H   UNL     1       2.814   0.197  -3.311  0.00  0.00    -0.090 HD
ATOM     23  H   UNL     1       2.437   1.071  -1.966  0.00  0.00    -0.090 HD
ENDBRANCH  19  20
ENDBRANCH   2  19
TORSDOF 5
