REMARK  Name = ZINC05884056
REMARK  14 active torsions:
REMARK  status: ('A' for Active; 'I' for Inactive)
REMARK    1  A    between atoms: C_1  and  C_2
REMARK    2  A    between atoms: C_2  and  N_54
REMARK    3  A    between atoms: C_3  and  C_4
REMARK    4  A    between atoms: C_3  and  N_54
REMARK    5  A    between atoms: C_5  and  C_6
REMARK    6  A    between atoms: C_5  and  N_54
REMARK    7  A    between atoms: C_6  and  C_7
REMARK    8  A    between atoms: C_7  and  N_8
REMARK    9  A    between atoms: C_9  and  C_11
REMARK   10  A    between atoms: C_16  and  O_26
REMARK   11  A    between atoms: C_17  and  O_24
REMARK   12  A    between atoms: C_22  and  O_23
REMARK   13  A    between atoms: O_24  and  C_25
REMARK   14  A    between atoms: O_26  and  C_27
REMARK                            x       y       z     vdW  Elec       q    Type
REMARK                         _______ _______ _______ _____ _____    ______ ____
ROOT
ATOM      1  C   UNL     1       3.114  -0.685   0.575  0.00  0.00    +0.143 A 
ATOM      2  C   UNL     1       4.406  -0.188   0.901  0.00  0.00    +0.205 A 
ATOM      3  O   UNL     1       5.343  -0.946   1.087  0.00  0.00    -0.286 OA
ATOM      4  C   UNL     1       4.576   1.271   1.009  0.00  0.00    +0.050 A 
ATOM      5  C   UNL     1       5.818   1.829   1.326  0.00  0.00    +0.063 A 
ATOM      6  C   UNL     1       5.947   3.198   1.419  0.00  0.00    +0.162 A 
ATOM      7  C   UNL     1       4.842   4.025   1.198  0.00  0.00    +0.163 A 
ATOM      8  C   UNL     1       3.611   3.481   0.883  0.00  0.00    +0.075 A 
ATOM      9  C   UNL     1       3.465   2.102   0.786  0.00  0.00    +0.056 A 
ATOM     10  N   UNL     1       2.239   1.546   0.472  0.00  0.00    -0.325 N 
ATOM     11  H   UNL     1       1.457   2.149   0.316  0.00  0.00    +0.169 HD
ATOM     12  C   UNL     1       2.066   0.208   0.370  0.00  0.00    +0.207 A 
ENDROOT
BRANCH   1  14
ATOM     13  N   UNL     1       2.515  -2.845   1.535  0.00  0.00    -0.311 N 
ATOM     14  C   UNL     1       2.886  -2.130   0.455  0.00  0.00    +0.253 C 
ATOM     15  O   UNL     1       3.033  -2.682  -0.620  0.00  0.00    -0.270 OA
ATOM     16  H   UNL     1       2.399  -2.405   2.392  0.00  0.00    +0.149 HD
BRANCH  13  17
ATOM     17  C   UNL     1       2.288  -4.287   1.415  0.00  0.00    +0.102 C 
BRANCH  17  18
ATOM     18  C   UNL     1       1.880  -4.854   2.777  0.00  0.00    +0.000 C 
BRANCH  18  19
ATOM     19  C   UNL     1       1.643  -6.360   2.652  0.00  0.00    -0.077 C 
BRANCH  19  20
ATOM     20  N   UNL     1       1.270  -6.896   3.978  0.00  0.00    +0.379 N 
ATOM     21  H   UNL     1       1.968  -6.593   4.668  0.00  0.00    -0.082 HD
BRANCH  20  23
ATOM     22  C   UNL     1      -1.120  -6.788   3.358  0.00  0.00    -0.017 C 
ATOM     23  C   UNL     1      -0.055  -6.379   4.378  0.00  0.00    -0.082 C 
ENDBRANCH  20  23
BRANCH  20  24
ATOM     24  C   UNL     1       1.245  -8.373   3.938  0.00  0.00    -0.082 C 
ATOM     25  C   UNL     1       1.222  -8.904   5.372  0.00  0.00    -0.017 C 
ENDBRANCH  20  24
ENDBRANCH  19  20
ENDBRANCH  18  19
ENDBRANCH  17  18
ENDBRANCH  13  17
ENDBRANCH   1  14
BRANCH  12  26
ATOM     26  O   UNL     1       0.846  -0.273   0.061  0.00  0.00    -0.493 OA
ATOM     27  H   UNL     1       0.646  -0.391  -0.878  0.00  0.00    +0.294 HD
ENDBRANCH  12  26
BRANCH   7  28
ATOM     28  O   UNL     1       4.979   5.373   1.292  0.00  0.00    -0.491 OA
ATOM     29  C   UNL     1       3.812   6.162   1.054  0.00  0.00    +0.277 C 
ENDBRANCH   7  28
BRANCH   6  30
ATOM     30  O   UNL     1       7.154   3.746   1.728  0.00  0.00    -0.491 OA
ATOM     31  C   UNL     1       8.240   2.843   1.942  0.00  0.00    +0.277 C 
ENDBRANCH   6  30
TORSDOF 10
