REMARK  Name = ZINC52542078
REMARK  3 active torsions:
REMARK  status: ('A' for Active; 'I' for Inactive)
REMARK    1  A    between atoms: C_1  and  N_2
REMARK    2  A    between atoms: C_5  and  C_8
REMARK    3  A    between atoms: C_11  and  C_17
REMARK                            x       y       z     vdW  Elec       q    Type
REMARK                         _______ _______ _______ _____ _____    ______ ____
ROOT
ATOM      1  C   UNL     1      -0.384  -4.080   0.804  0.00  0.00    -0.017 C 
ATOM      2  C   UNL     1       0.509  -4.872   1.516  0.00  0.00    +0.004 A 
ATOM      3  C   UNL     1       1.669  -4.566   2.259  0.00  0.00    +0.018 A 
ATOM      4  C   UNL     1       2.371  -5.580   2.872  0.00  0.00    -0.017 A 
ATOM      5  C   UNL     1       1.952  -6.922   2.771  0.00  0.00    +0.010 A 
ATOM      6  C   UNL     1       0.850  -7.273   2.073  0.00  0.00    +0.026 A 
ATOM      7  C   UNL     1       0.075  -6.278   1.415  0.00  0.00    +0.043 A 
ATOM      8  N   UNL     1      -1.017  -6.371   0.689  0.00  0.00    -0.380 N 
ATOM      9  C   UNL     1      -1.416  -5.033   0.243  0.00  0.00    +0.149 C 
ATOM     10  H   UNL     1      -1.486  -7.194   0.483  0.00  0.00    +0.160 HD
ENDROOT
BRANCH   1  15
ATOM     11  C   UNL     1      -0.371   1.515   0.351  0.00  0.00    -0.096 C 
ATOM     12  N   UNL     1      -0.449   0.090   0.701  0.00  0.00    +0.380 N 
ATOM     13  C   UNL     1       0.881  -0.524   0.559  0.00  0.00    -0.074 C 
ATOM     14  C   UNL     1       0.843  -1.923   1.180  0.00  0.00    +0.016 C 
ATOM     15  C   UNL     1      -0.341  -2.680   0.643  0.00  0.00    -0.049 C 
ATOM     16  C   UNL     1      -1.349  -2.071   0.021  0.00  0.00    -0.042 C 
ATOM     17  C   UNL     1      -1.388  -0.586  -0.202  0.00  0.00    -0.051 C 
ATOM     18  H   UNL     1      -0.767  -0.007   1.653  0.00  0.00    -0.082 HD
ENDBRANCH   1  15
BRANCH   4  19
ATOM     19  C   UNL     1       3.589  -5.254   3.651  0.00  0.00    -0.018 A 
ATOM     20  C   UNL     1       4.013  -3.931   3.765  0.00  0.00    +0.011 A 
ATOM     21  C   UNL     1       5.148  -3.633   4.491  0.00  0.00    +0.039 A 
ATOM     22  C   UNL     1       5.864  -4.646   5.107  0.00  0.00    +0.123 A 
ATOM     23  C   UNL     1       5.447  -5.963   4.997  0.00  0.00    +0.039 A 
ATOM     24  C   UNL     1       4.311  -6.270   4.277  0.00  0.00    +0.011 A 
ATOM     25  F   UNL     1       6.975  -4.349   5.818  0.00  0.00    -0.205 F 
ENDBRANCH   4  19
TORSDOF 2
