REMARK  Name = ZINC42554455
REMARK  11 active torsions:
REMARK  status: ('A' for Active; 'I' for Inactive)
REMARK    1  A    between atoms: C_1  and  C_2
REMARK    2  A    between atoms: C_2  and  C_3
REMARK    3  A    between atoms: C_3  and  C_4
REMARK    4  A    between atoms: C_4  and  C_5
REMARK    5  A    between atoms: C_5  and  N_6
REMARK    6  A    between atoms: N_6  and  C_7
REMARK    7  A    between atoms: N_6  and  C_18
REMARK    8  A    between atoms: C_14  and  C_16
REMARK    9  A    between atoms: C_16  and  N_17
REMARK   10  A    between atoms: C_18  and  C_19
REMARK   11  A    between atoms: C_18  and  C_20
REMARK                            x       y       z     vdW  Elec       q    Type
REMARK                         _______ _______ _______ _____ _____    ______ ____
ROOT
ATOM      1  C   UNL     1      -4.575  -4.480  -1.530  0.00  0.00    -0.067 C 
ATOM      2  C   UNL     1      -5.343  -3.386  -0.763  0.00  0.00    -0.015 C 
ATOM      3  C   UNL     1      -6.665  -2.991  -1.450  0.00  0.00    -0.002 C 
ATOM      4  C   UNL     1      -7.418  -4.183  -1.978  0.00  0.00    -0.000 C 
ATOM      5  C   UNL     1      -7.040  -4.382  -3.460  0.00  0.00    +0.000 C 
ATOM      6  C   UNL     1      -5.763  -5.060  -3.621  0.00  0.00    -0.000 C 
ATOM      7  C   UNL     1      -4.591  -4.256  -3.018  0.00  0.00    -0.042 C 
ENDROOT
BRANCH   1   8
ATOM      8  N   UNL     1      -3.182  -4.495  -1.067  0.00  0.00    +0.383 N 
ATOM      9  H   UNL     1      -2.654  -5.162  -1.610  0.00  0.00    -0.081 HD
BRANCH   8  10
ATOM     10  C   UNL     1      -3.141  -4.877   0.351  0.00  0.00    -0.075 C 
ATOM     11  C   UNL     1      -3.846  -6.222   0.538  0.00  0.00    -0.014 C 
ATOM     12  C   UNL     1      -1.685  -4.997   0.806  0.00  0.00    -0.014 C 
ENDBRANCH   8  10
BRANCH   8  13
ATOM     13  C   UNL     1      -2.596  -3.158  -1.231  0.00  0.00    -0.078 C 
BRANCH  13  14
ATOM     14  C   UNL     1      -1.077  -3.280  -1.372  0.00  0.00    -0.019 C 
BRANCH  14  15
ATOM     15  C   UNL     1      -0.480  -1.903  -1.668  0.00  0.00    -0.002 C 
BRANCH  15  17
ATOM     16  C   UNL     1       1.635  -0.648  -2.106  0.00  0.00    +0.004 C 
ATOM     17  C   UNL     1       1.038  -2.025  -1.810  0.00  0.00    -0.003 C 
ENDBRANCH  15  17
ENDBRANCH  14  15
ENDBRANCH  13  14
ENDBRANCH   8  13
ENDBRANCH   1   8
BRANCH   7  18
ATOM     18  C   UNL     1      -3.272  -4.737  -3.624  0.00  0.00    -0.085 C 
BRANCH  18  19
ATOM     19  N   UNL     1      -3.249  -4.424  -5.059  0.00  0.00    +0.378 N 
ATOM     20  H   UNL     1      -4.019  -4.888  -5.518  0.00  0.00    -0.090 HD
ATOM     21  H   UNL     1      -3.333  -3.426  -5.187  0.00  0.00    -0.090 HD
ATOM     22  H   UNL     1      -2.378  -4.741  -5.459  0.00  0.00    -0.090 HD
ENDBRANCH  18  19
ENDBRANCH   7  18
TORSDOF 8
