REMARK  Name = ZINC54601696
REMARK  4 active torsions:
REMARK  status: ('A' for Active; 'I' for Inactive)
REMARK    1  A    between atoms: C_1  and  C_2
REMARK    2  A    between atoms: C_2  and  N_3
REMARK    3  A    between atoms: N_3  and  C_4
REMARK    4  A    between atoms: N_14  and  C_15
REMARK                            x       y       z     vdW  Elec       q    Type
REMARK                         _______ _______ _______ _____ _____    ______ ____
ROOT
ATOM      1  C   UNL     1       0.728  -1.973   1.261  0.00  0.00    -0.075 C 
ATOM      2  C   UNL     1       1.502  -2.403   0.024  0.00  0.00    -0.031 C 
ATOM      3  C   UNL     1       1.943  -3.855   0.060  0.00  0.00    -0.069 C 
ATOM      4  C   UNL     1       3.477  -3.918   0.094  0.00  0.00    -0.015 C 
ATOM      5  C   UNL     1       3.982  -3.300   1.399  0.00  0.00    -0.003 C 
ATOM      6  C   UNL     1       3.337  -4.008   2.592  0.00  0.00    -0.015 C 
ATOM      7  C   UNL     1       1.808  -3.940   2.456  0.00  0.00    -0.069 C 
ATOM      8  C   UNL     1       1.364  -2.489   2.543  0.00  0.00    -0.031 C 
ATOM      9  N   UNL     1       1.426  -4.590   1.208  0.00  0.00    +0.385 N 
ATOM     10  H   UNL     1       1.894  -5.508   1.202  0.00  0.00    -0.081 HD
ENDROOT
BRANCH   9  11
ATOM     11  C   UNL     1      -0.017  -4.850   1.117  0.00  0.00    -0.068 C 
ATOM     12  C   UNL     1      -0.460  -5.693   2.315  0.00  0.00    -0.015 C 
ATOM     13  C   UNL     1      -1.983  -5.634   2.445  0.00  0.00    -0.002 C 
ATOM     14  C   UNL     1      -2.456  -4.192   2.254  0.00  0.00    -0.000 C 
ATOM     15  C   UNL     1      -3.266  -4.088   0.960  0.00  0.00    -0.000 C 
ATOM     16  C   UNL     1      -2.314  -4.105  -0.239  0.00  0.00    -0.000 C 
ATOM     17  C   UNL     1      -1.817  -5.533  -0.475  0.00  0.00    -0.002 C 
ATOM     18  C   UNL     1      -0.318  -5.607  -0.178  0.00  0.00    -0.015 C 
ENDBRANCH   9  11
BRANCH   1  19
ATOM     19  N   UNL     1       0.706  -0.493   1.310  0.00  0.00    +0.381 N 
ATOM     20  H   UNL     1       1.651  -0.142   1.308  0.00  0.00    -0.086 HD
ATOM     21  H   UNL     1       0.237  -0.192   2.152  0.00  0.00    -0.086 HD
BRANCH  19  23
ATOM     22  C   UNL     1      -0.035   1.554   0.190  0.00  0.00    -0.017 C 
ATOM     23  C   UNL     1      -0.012   0.025   0.138  0.00  0.00    -0.086 C 
ENDBRANCH  19  23
ENDBRANCH   1  19
TORSDOF 3
