REMARK  Name = ZINC39154607
REMARK  13 active torsions:
REMARK  status: ('A' for Active; 'I' for Inactive)
REMARK    1  A    between atoms: C_1  and  C_2
REMARK    2  A    between atoms: C_2  and  O_3
REMARK    3  A    between atoms: O_3  and  C_4
REMARK    4  A    between atoms: C_4  and  C_6
REMARK    5  A    between atoms: C_8  and  C_39
REMARK    6  A    between atoms: C_10  and  C_34
REMARK    7  A    between atoms: C_13  and  N_15
REMARK    8  A    between atoms: C_16  and  C_18
REMARK    9  A    between atoms: C_18  and  S_19
REMARK   10  A    between atoms: S_19  and  C_20
REMARK   11  A    between atoms: C_34  and  O_36
REMARK   12  A    between atoms: O_36  and  C_37
REMARK   13  A    between atoms: C_37  and  C_38
REMARK                            x       y       z     vdW  Elec       q    Type
REMARK                         _______ _______ _______ _____ _____    ______ ____
ROOT
ATOM      1  N   UNL     1       1.702  -0.837  -1.206  0.00  0.00    -0.302 N 
ATOM      2  C   UNL     1       2.687  -0.645  -0.306  0.00  0.00    +0.224 C 
ATOM      3  O   UNL     1       3.804  -1.062  -0.532  0.00  0.00    -0.275 OA
ATOM      4  H   UNL     1       0.809  -0.503  -1.025  0.00  0.00    +0.150 HD
ENDROOT
BRANCH   1   9
ATOM      5  C   UNL     1       0.871  -2.578  -2.753  0.00  0.00    +0.132 C 
ATOM      6  C   UNL     1       1.355  -4.026  -2.687  0.00  0.00    +0.026 C 
ATOM      7  C   UNL     1       2.849  -4.114  -3.105  0.00  0.00    +0.160 C 
ATOM      8  S   UNL     1       3.488  -2.585  -2.289  0.00  0.00    -0.123 S 
ATOM      9  C   UNL     1       1.979  -1.549  -2.455  0.00  0.00    +0.146 C 
ATOM     10  C   UNL     1       1.200  -4.547  -1.256  0.00  0.00    +0.010 C 
BRANCH   5  11
ATOM     11  C   UNL     1      -0.240  -2.394  -1.751  0.00  0.00    +0.313 C 
ATOM     12  O   UNL     1       0.010  -2.367  -0.569  0.00  0.00    -0.250 OA
BRANCH  11  13
ATOM     13  O   UNL     1      -1.508  -2.261  -2.172  0.00  0.00    -0.465 OA
BRANCH  13  15
ATOM     14  C   UNL     1      -3.881  -1.956  -1.833  0.00  0.00    +0.048 C 
ATOM     15  C   UNL     1      -2.510  -2.090  -1.168  0.00  0.00    +0.229 C 
ENDBRANCH  13  15
ENDBRANCH  11  13
ENDBRANCH   5  11
BRANCH   7  16
ATOM     16  C   UNL     1       3.504  -5.351  -2.546  0.00  0.00    +0.321 C 
ATOM     17  O   UNL     1       3.217  -5.738  -1.438  0.00  0.00    -0.250 OA
BRANCH  16  18
ATOM     18  O   UNL     1       4.406  -6.022  -3.279  0.00  0.00    -0.464 OA
BRANCH  18  19
ATOM     19  C   UNL     1       4.987  -7.186  -2.686  0.00  0.00    +0.229 C 
ATOM     20  C   UNL     1       5.984  -7.812  -3.663  0.00  0.00    +0.048 C 
ENDBRANCH  18  19
ENDBRANCH  16  18
ENDBRANCH   7  16
ENDBRANCH   1   9
BRANCH   2  21
ATOM     21  C   UNL     1       2.402   0.088   0.979  0.00  0.00    +0.173 C 
BRANCH  21  22
ATOM     22  S   UNL     1       3.918   0.183   1.970  0.00  0.00    -0.075 S 
BRANCH  22  23
ATOM     23  C   UNL     1       3.426   1.055   3.420  0.00  0.00    +0.208 C 
ATOM     24  N   UNL     1       2.175   1.436   3.517  0.00  0.00    -0.227 NA
ATOM     25  C   UNL     1       1.794   2.227   4.685  0.00  0.00    +0.252 C 
ATOM     26  C   UNL     1       2.739   1.818   5.805  0.00  0.00    +0.117 C 
ATOM     27  C   UNL     1       1.943   1.563   6.880  0.00  0.00    +0.025 A 
ATOM     28  C   UNL     1       2.239   1.251   8.231  0.00  0.00    +0.012 A 
ATOM     29  C   UNL     1       1.189   1.034   9.067  0.00  0.00    +0.001 A 
ATOM     30  C   UNL     1      -0.153   1.100   8.678  0.00  0.00    +0.002 A 
ATOM     31  C   UNL     1      -0.553   1.398   7.413  0.00  0.00    +0.026 A 
ATOM     32  C   UNL     1       0.518   1.656   6.436  0.00  0.00    +0.046 A 
ATOM     33  N   UNL     1       0.448   1.978   5.181  0.00  0.00    -0.358 N 
ATOM     34  N   UNL     1       4.045   1.643   5.581  0.00  0.00    -0.147 NA
ATOM     35  N   UNL     1       4.361   1.288   4.373  0.00  0.00    -0.122 NA
ATOM     36  H   UNL     1      -0.367   2.043   4.659  0.00  0.00    +0.162 HD
ENDBRANCH  22  23
ENDBRANCH  21  22
ENDBRANCH   2  21
TORSDOF 10
