REMARK  Name = ZINC19499338
REMARK  8 active torsions:
REMARK  status: ('A' for Active; 'I' for Inactive)
REMARK    1  A    between atoms: C_1  and  C_2
REMARK    2  A    between atoms: C_2  and  C_3
REMARK    3  A    between atoms: N_5  and  C_6
REMARK    4  A    between atoms: C_9  and  C_12
REMARK    5  A    between atoms: C_12  and  C_14
REMARK    6  A    between atoms: C_12  and  O_32
REMARK    7  A    between atoms: C_14  and  N_15
REMARK    8  A    between atoms: C_22  and  O_31
REMARK                            x       y       z     vdW  Elec       q    Type
REMARK                         _______ _______ _______ _____ _____    ______ ____
ROOT
ATOM      1  N   UNL     1      -6.490   5.369   1.387  0.00  0.00    +0.382 N 
ATOM      2  C   UNL     1      -7.535   4.469   0.881  0.00  0.00    -0.075 C 
ATOM      3  C   UNL     1      -8.888   5.182   0.921  0.00  0.00    +0.029 C 
ATOM      4  C   UNL     1      -9.197   5.601   2.359  0.00  0.00    +0.110 C 
ATOM      5  C   UNL     1      -8.070   6.495   2.881  0.00  0.00    +0.029 C 
ATOM      6  C   UNL     1      -6.741   5.742   2.785  0.00  0.00    -0.075 C 
ATOM      7  C   UNL     1     -10.520   6.373   2.396  0.00  0.00    +0.084 C 
ATOM      8  C   UNL     1     -11.608   5.495   1.773  0.00  0.00    +0.152 C 
ATOM      9  C   UNL     1     -11.545   4.111   2.366  0.00  0.00    +0.023 A 
ATOM     10  C   UNL     1     -12.644   3.279   2.236  0.00  0.00    +0.010 A 
ATOM     11  C   UNL     1     -12.619   2.002   2.763  0.00  0.00    +0.001 A 
ATOM     12  C   UNL     1     -11.492   1.550   3.425  0.00  0.00    +0.004 A 
ATOM     13  C   UNL     1     -10.395   2.375   3.559  0.00  0.00    +0.046 A 
ATOM     14  C   UNL     1     -10.417   3.662   3.030  0.00  0.00    +0.127 A 
ATOM     15  O   UNL     1      -9.318   4.446   3.186  0.00  0.00    -0.485 OA
ATOM     16  H   UNL     1      -6.520   6.289   0.784  0.00  0.00    -0.082 HD
ENDROOT
BRANCH   8  17
ATOM     17  O   UNL     1     -12.891   6.067   2.038  0.00  0.00    -0.387 OA
ATOM     18  H   UNL     1     -13.801   5.574   1.666  0.00  0.00    +0.210 HD
ENDBRANCH   8  17
BRANCH   1  19
ATOM     19  C   UNL     1      -5.158   4.769   1.233  0.00  0.00    -0.042 C 
BRANCH  19  20
ATOM     20  C   UNL     1      -4.971   4.307  -0.213  0.00  0.00    +0.128 C 
BRANCH  20  24
ATOM     21  C   UNL     1      -1.107   2.534  -0.653  0.00  0.00    +0.033 A 
ATOM     22  C   UNL     1      -1.242   3.917  -0.653  0.00  0.00    +0.023 A 
ATOM     23  C   UNL     1      -2.493   4.486  -0.516  0.00  0.00    +0.008 A 
ATOM     24  C   UNL     1      -3.608   3.682  -0.369  0.00  0.00    -0.021 A 
ATOM     25  C   UNL     1      -3.476   2.305  -0.363  0.00  0.00    +0.008 A 
ATOM     26  C   UNL     1      -2.228   1.730  -0.504  0.00  0.00    +0.023 A 
BRANCH  21  29
ATOM     27  C   UNL     1       1.094   2.557  -1.557  0.00  0.00    +0.217 C 
ATOM     28  O   UNL     1       0.814   3.557  -2.185  0.00  0.00    -0.275 OA
ATOM     29  N   UNL     1       0.159   1.954  -0.797  0.00  0.00    -0.286 N 
ATOM     30  H   UNL     1       0.390   1.006  -0.290  0.00  0.00    +0.155 HD
BRANCH  27  32
ATOM     31  C   UNL     1       3.346   2.857  -2.551  0.00  0.00    +0.013 C 
ATOM     32  C   UNL     1       2.489   1.990  -1.626  0.00  0.00    +0.093 C 
ENDBRANCH  27  32
ENDBRANCH  21  29
ENDBRANCH  20  24
BRANCH  20  33
ATOM     33  O   UNL     1      -5.082   5.430  -1.090  0.00  0.00    -0.389 OA
ATOM     34  H   UNL     1      -6.013   6.016  -1.117  0.00  0.00    +0.210 HD
ENDBRANCH  20  33
ENDBRANCH  19  20
ENDBRANCH   1  19
TORSDOF 7
