REMARK  Name = ZINC39464461
REMARK  5 active torsions:
REMARK  status: ('A' for Active; 'I' for Inactive)
REMARK    1  A    between atoms: C_1  and  C_2
REMARK    2  A    between atoms: C_2  and  O_3
REMARK    3  A    between atoms: O_3  and  C_4
REMARK    4  A    between atoms: P_18  and  C_21
REMARK    5  A    between atoms: C_26  and  O_27
REMARK                            x       y       z     vdW  Elec       q    Type
REMARK                         _______ _______ _______ _____ _____    ______ ____
ROOT
ATOM      1  C   UNL     1      -1.498  -1.848   0.006  0.00  0.00    +0.135 A 
ATOM      2  C   UNL     1      -0.390  -2.679  -0.003  0.00  0.00    +0.052 A 
ATOM      3  C   UNL     1      -0.547  -4.057  -0.008  0.00  0.00    -0.020 A 
ATOM      4  C   UNL     1      -1.814  -4.600  -0.004  0.00  0.00    -0.040 A 
ATOM      5  C   UNL     1      -2.925  -3.771   0.005  0.00  0.00    +0.023 A 
ATOM      6  C   UNL     1      -2.772  -2.399   0.016  0.00  0.00    +0.060 A 
ATOM      7 BR   UNL     1      -4.293  -1.274   0.035  0.00  0.00    -0.047 Br
ATOM      8  C   UNL     1      -2.030  -6.092  -0.013  0.00  0.00    +0.052 C 
ATOM      9  C   UNL     1      -0.752  -6.799   0.438  0.00  0.00    +0.108 C 
ATOM     10  N   UNL     1       0.374  -6.299  -0.366  0.00  0.00    -0.225 NA
ATOM     11  C   UNL     1       0.691  -4.915  -0.016  0.00  0.00    +0.130 C 
ATOM     12  C   UNL     1       1.705  -4.319  -0.998  0.00  0.00    +0.194 C 
ATOM     13  O   UNL     1       2.929  -5.075  -0.913  0.00  0.00    -0.311 OA
ATOM     14  P   UNL     1       2.842  -6.696  -1.012  0.00  0.00    +0.318 P 
ATOM     15  O   UNL     1       4.026  -7.312  -0.373  0.00  0.00    -0.266 OA
ATOM     16  N   UNL     1       1.468  -7.119  -0.196  0.00  0.00    -0.175 NA
ATOM     17  H   UNL     1       1.433  -7.904   0.373  0.00  0.00    +0.151 HD
ENDROOT
BRANCH  14  18
ATOM     18  C   UNL     1       2.728  -7.212  -2.748  0.00  0.00    +0.094 A 
ATOM     19  C   UNL     1       1.492  -7.343  -3.350  0.00  0.00    +0.018 A 
ATOM     20  C   UNL     1       1.404  -7.737  -4.673  0.00  0.00    +0.001 A 
ATOM     21  C   UNL     1       2.554  -8.000  -5.396  0.00  0.00    +0.004 A 
ATOM     22  C   UNL     1       3.792  -7.871  -4.798  0.00  0.00    +0.046 A 
ATOM     23  C   UNL     1       3.882  -7.471  -3.472  0.00  0.00    +0.131 A 
BRANCH  23  24
ATOM     24  O   UNL     1       5.100  -7.337  -2.883  0.00  0.00    -0.506 OA
ATOM     25  H   UNL     1       5.422  -8.144  -2.459  0.00  0.00    +0.292 HD
ENDBRANCH  23  24
ENDBRANCH  14  18
BRANCH   1  26
ATOM     26  O   UNL     1      -1.339  -0.499   0.012  0.00  0.00    -0.491 OA
BRANCH  26  28
ATOM     27  C   UNL     1      -0.019   1.526   0.010  0.00  0.00    +0.048 C 
ATOM     28  C   UNL     1       0.002  -0.004   0.002  0.00  0.00    +0.226 C 
ENDBRANCH  26  28
ENDBRANCH   1  26
TORSDOF 4
