REMARK  Name = ZINC29219264
REMARK  6 active torsions:
REMARK  status: ('A' for Active; 'I' for Inactive)
REMARK    1  A    between atoms: C_1  and  C_2
REMARK    2  A    between atoms: C_5  and  N_9
REMARK    3  A    between atoms: C_6  and  C_8
REMARK    4  A    between atoms: C_13  and  C_15
REMARK    5  A    between atoms: C_15  and  C_17
REMARK    6  A    between atoms: C_15  and  N_18
REMARK                            x       y       z     vdW  Elec       q    Type
REMARK                         _______ _______ _______ _____ _____    ______ ____
ROOT
ATOM      1  N   UNL     1      -1.769   5.310   1.999  0.00  0.00    -0.269 N 
ATOM      2  C   UNL     1      -1.607   3.972   1.983  0.00  0.00    +0.310 C 
ATOM      3  O   UNL     1      -2.028   3.297   2.902  0.00  0.00    -0.252 OA
ATOM      4  N   UNL     1      -0.977   3.382   0.948  0.00  0.00    -0.241 N 
ATOM      5  C   UNL     1      -0.814   2.044   0.932  0.00  0.00    +0.207 C 
ATOM      6  O   UNL     1      -1.234   1.371   1.849  0.00  0.00    -0.277 OA
ATOM      7  H   UNL     1      -1.315   5.928   1.212  0.00  0.00    +0.156 HD
ATOM      8  H   UNL     1      -0.596   3.993   0.116  0.00  0.00    +0.159 HD
ENDROOT
BRANCH   1  13
ATOM      9  C   UNL     1      -4.797   7.749   6.131  0.00  0.00    +0.044 C 
ATOM     10  C   UNL     1      -3.993   7.101   5.033  0.00  0.00    -0.050 A 
ATOM     11  C   UNL     1      -4.165   5.758   4.752  0.00  0.00    +0.005 A 
ATOM     12  C   UNL     1      -3.430   5.161   3.748  0.00  0.00    +0.024 A 
ATOM     13  C   UNL     1      -2.516   5.912   3.018  0.00  0.00    +0.038 A 
ATOM     14  C   UNL     1      -2.342   7.259   3.306  0.00  0.00    -0.029 A 
ATOM     15  C   UNL     1      -3.084   7.851   4.309  0.00  0.00    +0.008 A 
ATOM     16  C   UNL     1      -1.347   8.075   2.521  0.00  0.00    +0.045 C 
ENDBRANCH   1  13
BRANCH   5  17
ATOM     17  C   UNL     1      -0.110   1.385  -0.226  0.00  0.00    +0.017 C 
ATOM     18  C   UNL     1       1.403   1.458  -0.012  0.00  0.00    -0.004 C 
BRANCH  17  19
ATOM     19  N   UNL     1      -0.525  -0.022  -0.314  0.00  0.00    +0.387 N 
ATOM     20  C   UNL     1       0.275  -0.748  -1.326  0.00  0.00    -0.078 C 
ATOM     21  C   UNL     1      -0.285  -2.107  -1.647  0.00  0.00    -0.019 C 
ATOM     22  C   UNL     1      -1.209  -1.978  -2.876  0.00  0.00    -0.002 C 
ATOM     23  C   UNL     1      -2.517  -1.433  -2.527  0.00  0.00    -0.002 C 
ATOM     24  C   UNL     1      -2.416  -0.015  -1.928  0.00  0.00    -0.019 C 
ATOM     25  C   UNL     1      -1.990  -0.133  -0.490  0.00  0.00    -0.078 C 
ATOM     26  H   UNL     1      -0.306  -0.517   0.643  0.00  0.00    -0.081 HD
ENDBRANCH  17  19
ENDBRANCH   5  17
TORSDOF 3
