REMARK  Name = ZINC23590847
REMARK  8 active torsions:
REMARK  status: ('A' for Active; 'I' for Inactive)
REMARK    1  A    between atoms: C_1  and  C_2
REMARK    2  A    between atoms: C_2  and  C_3
REMARK    3  A    between atoms: C_3  and  C_5
REMARK    4  A    between atoms: C_3  and  N_6
REMARK    5  A    between atoms: C_7  and  C_9
REMARK    6  A    between atoms: C_9  and  S_10
REMARK    7  A    between atoms: S_10  and  C_11
REMARK    8  A    between atoms: C_21  and  C_25
REMARK                            x       y       z     vdW  Elec       q    Type
REMARK                         _______ _______ _______ _____ _____    ______ ____
ROOT
ATOM      1  C   UNL     1      -7.075   1.587  -3.089  0.00  0.00    +0.191 A 
ATOM      2  N   UNL     1      -6.523   2.740  -3.449  0.00  0.00    -0.207 NA
ATOM      3  C   UNL     1      -6.742   3.285  -4.633  0.00  0.00    +0.129 A 
ATOM      4  C   UNL     1      -7.606   2.626  -5.553  0.00  0.00    +0.051 A 
ATOM      5  C   UNL     1      -7.994   3.043  -6.902  0.00  0.00    -0.025 A 
ATOM      6  C   UNL     1      -8.834   2.231  -7.575  0.00  0.00    -0.004 A 
ATOM      7  S   UNL     1      -9.158   0.883  -6.470  0.00  0.00    -0.073 S 
ATOM      8  C   UNL     1      -8.160   1.412  -5.103  0.00  0.00    +0.115 A 
ATOM      9  N   UNL     1      -7.888   0.929  -3.906  0.00  0.00    -0.214 NA
ATOM     10  C   UNL     1      -9.376   2.431  -8.958  0.00  0.00    +0.046 C 
ATOM     11  C   UNL     1      -8.543   3.517  -9.653  0.00  0.00    -0.009 C 
ATOM     12  C   UNL     1      -8.397   4.708  -8.702  0.00  0.00    +0.008 C 
ATOM     13  C   UNL     1      -7.481   4.333  -7.536  0.00  0.00    +0.037 C 
ATOM     14  C   UNL     1      -9.250   3.966 -10.933  0.00  0.00    +0.008 C 
ATOM     15  N   UNL     1      -6.144   4.485  -4.972  0.00  0.00    -0.343 N 
ATOM     16  H   UNL     1      -6.331   4.934  -5.959  0.00  0.00    +0.144 HD
ATOM     17  H   UNL     1      -5.482   4.992  -4.255  0.00  0.00    +0.144 HD
ENDROOT
BRANCH   1  18
ATOM     18  S   UNL     1      -6.726   0.921  -1.496  0.00  0.00    -0.077 S 
BRANCH  18  19
ATOM     19  C   UNL     1      -5.609   2.196  -0.860  0.00  0.00    +0.173 C 
BRANCH  19  21
ATOM     20  N   UNL     1      -4.328   2.636   1.210  0.00  0.00    -0.312 N 
ATOM     21  C   UNL     1      -5.169   1.828   0.533  0.00  0.00    +0.224 C 
ATOM     22  O   UNL     1      -5.571   0.805   1.046  0.00  0.00    -0.275 OA
ATOM     23  H   UNL     1      -3.964   3.564   0.745  0.00  0.00    +0.149 HD
BRANCH  20  24
ATOM     24  C   UNL     1      -3.900   2.279   2.564  0.00  0.00    +0.070 C 
ATOM     25  C   UNL     1      -4.943   2.763   3.574  0.00  0.00    +0.028 C 
BRANCH  24  27
ATOM     26  C   UNL     1      -1.483   2.364   1.937  0.00  0.00    +0.005 C 
ATOM     27  C   UNL     1      -2.554   2.941   2.865  0.00  0.00    +0.018 C 
ENDBRANCH  24  27
ENDBRANCH  20  24
ENDBRANCH  19  21
ENDBRANCH  18  19
ENDBRANCH   1  18
TORSDOF 5
