REMARK  Name = ZINC41722087
REMARK  7 active torsions:
REMARK  status: ('A' for Active; 'I' for Inactive)
REMARK    1  A    between atoms: C_3  and  O_23
REMARK    2  A    between atoms: C_6  and  C_7
REMARK    3  A    between atoms: C_8  and  C_9
REMARK    4  A    between atoms: C_8  and  C_11
REMARK    5  A    between atoms: N_13  and  C_14
REMARK    6  A    between atoms: C_14  and  C_15
REMARK    7  A    between atoms: C_15  and  N_16
REMARK                            x       y       z     vdW  Elec       q    Type
REMARK                         _______ _______ _______ _____ _____    ______ ____
ROOT
ATOM      1  C   UNL     1      -2.537  -2.934   0.240  0.00  0.00    +0.254 C 
ATOM      2  O   UNL     1      -3.603  -2.352   0.300  0.00  0.00    -0.269 OA
ATOM      3  N   UNL     1      -2.505  -4.255  -0.027  0.00  0.00    -0.313 N 
ATOM      4  H   UNL     1      -1.655  -4.720  -0.076  0.00  0.00    +0.149 HD
ENDROOT
BRANCH   1   6
ATOM      5  C   UNL     1      -1.315  -0.848   0.731  0.00  0.00    +0.032 C 
ATOM      6  C   UNL     1      -1.282  -2.198   0.458  0.00  0.00    +0.114 C 
BRANCH   5  12
ATOM      7  C   UNL     1       0.920  -0.828   1.817  0.00  0.00    +0.011 A 
ATOM      8  C   UNL     1       2.063  -0.171   2.173  0.00  0.00    +0.046 A 
ATOM      9  C   UNL     1       2.230   1.170   1.842  0.00  0.00    +0.117 A 
ATOM     10  C   UNL     1       1.234   1.850   1.147  0.00  0.00    +0.046 A 
ATOM     11  C   UNL     1       0.087   1.203   0.785  0.00  0.00    +0.011 A 
ATOM     12  C   UNL     1      -0.087  -0.149   1.116  0.00  0.00    -0.023 A 
BRANCH   9  13
ATOM     13  O   UNL     1       3.367   1.818   2.200  0.00  0.00    -0.507 OA
ATOM     14  H   UNL     1       4.071   1.770   1.538  0.00  0.00    +0.292 HD
ENDBRANCH   9  13
ENDBRANCH   5  12
BRANCH   6  15
ATOM     15  C   UNL     1      -0.027  -2.884   0.387  0.00  0.00    +0.104 C 
ATOM     16  N   UNL     1       0.968  -3.428   0.330  0.00  0.00    -0.191 NA
ENDBRANCH   6  15
ENDBRANCH   1   6
BRANCH   3  17
ATOM     17  C   UNL     1      -3.754  -4.989  -0.245  0.00  0.00    +0.086 C 
BRANCH  17  18
ATOM     18  C   UNL     1      -3.440  -6.459  -0.527  0.00  0.00    -0.060 C 
BRANCH  18  19
ATOM     19  N   UNL     1      -4.692  -7.194  -0.749  0.00  0.00    +0.381 N 
ATOM     20  C   UNL     1      -4.396  -8.640  -0.762  0.00  0.00    -0.079 C 
ATOM     21  C   UNL     1      -5.653  -9.384  -0.384  0.00  0.00    -0.019 C 
ATOM     22  C   UNL     1      -6.426  -9.855  -1.630  0.00  0.00    -0.002 C 
ATOM     23  C   UNL     1      -6.434  -8.782  -2.738  0.00  0.00    -0.002 C 
ATOM     24  C   UNL     1      -6.648  -7.394  -2.191  0.00  0.00    -0.019 C 
ATOM     25  C   UNL     1      -5.275  -6.737  -1.932  0.00  0.00    -0.079 C 
ATOM     26  H   UNL     1      -5.320  -7.001   0.017  0.00  0.00    -0.082 HD
ENDBRANCH  18  19
ENDBRANCH  17  18
ENDBRANCH   3  17
TORSDOF 7
