REMARK  Name = ZINC36243720
REMARK  7 active torsions:
REMARK  status: ('A' for Active; 'I' for Inactive)
REMARK    1  A    between atoms: C_1  and  C_2
REMARK    2  A    between atoms: C_5  and  N_22
REMARK    3  A    between atoms: C_9  and  C_11
REMARK    4  A    between atoms: C_14  and  O_17
REMARK    5  A    between atoms: O_17  and  C_18
REMARK    6  A    between atoms: C_18  and  C_19
REMARK    7  A    between atoms: C_19  and  C_21
REMARK                            x       y       z     vdW  Elec       q    Type
REMARK                         _______ _______ _______ _____ _____    ______ ____
ROOT
ATOM      1  C   UNL     1      -0.018   1.503   0.010  0.00  0.00    +0.064 C 
ATOM      2  C   UNL     1       0.002  -0.004   0.002  0.00  0.00    +0.022 A 
ATOM      3  C   UNL     1       0.005  -0.664  -1.174  0.00  0.00    +0.023 A 
ATOM      4  C   UNL     1       0.024  -2.068  -1.201  0.00  0.00    +0.028 A 
ATOM      5  C   UNL     1       0.039  -2.766  -0.026  0.00  0.00    +0.066 A 
ATOM      6  C   UNL     1       0.036  -2.056   1.200  0.00  0.00    +0.137 A 
ATOM      7  N   UNL     1       0.023  -0.686   1.187  0.00  0.00    -0.303 N 
ATOM      8  C   UNL     1       0.030  -0.270   2.489  0.00  0.00    +0.119 A 
ATOM      9  C   UNL     1       0.053  -1.389   3.267  0.00  0.00    +0.065 A 
ATOM     10  N   UNL     1       0.047  -2.461   2.460  0.00  0.00    -0.338 N 
ATOM     11  H   UNL     1       0.060  -3.386   2.754  0.00  0.00    +0.167 HD
ENDROOT
BRANCH   9  12
ATOM     12  C   UNL     1       0.068  -1.416   4.750  0.00  0.00    -0.000 A 
ATOM     13  C   UNL     1       0.053  -0.223   5.471  0.00  0.00    +0.013 A 
ATOM     14  C   UNL     1       0.067  -0.252   6.850  0.00  0.00    +0.046 A 
ATOM     15  C   UNL     1       0.096  -1.467   7.520  0.00  0.00    +0.121 A 
ATOM     16  C   UNL     1       0.110  -2.657   6.805  0.00  0.00    +0.046 A 
ATOM     17  C   UNL     1       0.091  -2.635   5.426  0.00  0.00    +0.013 A 
BRANCH  15  18
ATOM     18  O   UNL     1       0.110  -1.492   8.879  0.00  0.00    -0.488 OA
BRANCH  18  19
ATOM     19  C   UNL     1       0.139  -2.777   9.503  0.00  0.00    +0.259 C 
BRANCH  19  20
ATOM     20  C   UNL     1       0.151  -2.607  11.001  0.00  0.00    -0.043 C 
ATOM     21  C   UNL     1       0.135  -1.407  11.524  0.00  0.00    +0.011 C 
ATOM     22  C   UNL     1       0.182  -3.819  11.896  0.00  0.00    +0.042 C 
ENDBRANCH  19  20
ENDBRANCH  18  19
ENDBRANCH  15  18
ENDBRANCH   9  12
BRANCH   5  23
ATOM     23  N   UNL     1       0.057  -4.162  -0.034  0.00  0.00    -0.355 N 
ATOM     24  H   UNL     1       0.059  -4.643  -0.876  0.00  0.00    +0.142 HD
ATOM     25  H   UNL     1       0.068  -4.652   0.804  0.00  0.00    +0.142 HD
ENDBRANCH   5  23
TORSDOF 5
