REMARK  Name = ZINC36266767
REMARK  5 active torsions:
REMARK  status: ('A' for Active; 'I' for Inactive)
REMARK    1  A    between atoms: C_2  and  S_8
REMARK    2  A    between atoms: S_8  and  N_11
REMARK    3  A    between atoms: N_11  and  C_12
REMARK    4  A    between atoms: C_12  and  C_13
REMARK    5  A    between atoms: C_13  and  N_20
REMARK                            x       y       z     vdW  Elec       q    Type
REMARK                         _______ _______ _______ _____ _____    ______ ____
ROOT
ATOM      1  N   UNL     1       3.981   4.497   0.398  0.00  0.00    -0.191 NA
ATOM      2  H   UNL     1       4.346   5.385   0.260  0.00  0.00    +0.148 HD
ENDROOT
BRANCH   1   3
ATOM      3  S   UNL     1       4.005   3.391  -0.834  0.00  0.00    +0.060 S 
ATOM      4  O   UNL     1       4.490   2.176  -0.279  0.00  0.00    -0.153 OA
ATOM      5  O   UNL     1       4.632   4.027  -1.939  0.00  0.00    -0.153 OA
BRANCH   3   7
ATOM      6  C   UNL     1       1.859   3.541  -2.525  0.00  0.00    +0.052 A 
ATOM      7  C   UNL     1       2.333   3.098  -1.304  0.00  0.00    +0.127 A 
ATOM      8  C   UNL     1       1.491   2.433  -0.475  0.00  0.00    +0.082 A 
ATOM      9  S   UNL     1      -0.024   2.418  -1.419  0.00  0.00    -0.073 S 
ATOM     10  C   UNL     1       0.566   3.299  -2.856  0.00  0.00    +0.058 A 
ATOM     11 BR   UNL     1      -0.369   3.771  -4.430  0.00  0.00    -0.042 Br
ATOM     12 BR   UNL     1       1.833   1.709   1.238  0.00  0.00    -0.041 Br
ENDBRANCH   3   7
ENDBRANCH   1   3
BRANCH   1  13
ATOM     13  C   UNL     1       3.407   4.135   1.696  0.00  0.00    +0.093 C 
BRANCH  13  14
ATOM     14  C   UNL     1       3.827   5.168   2.745  0.00  0.00    -0.057 C 
ATOM     15  C   UNL     1       2.988   4.953   4.019  0.00  0.00    -0.012 C 
ATOM     16  C   UNL     1       3.497   3.781   4.880  0.00  0.00    -0.001 C 
ATOM     17  C   UNL     1       3.891   2.588   4.052  0.00  0.00    -0.000 C 
ATOM     18  C   UNL     1       5.406   2.665   3.771  0.00  0.00    -0.000 C 
ATOM     19  C   UNL     1       5.723   3.581   2.685  0.00  0.00    -0.001 C 
ATOM     20  C   UNL     1       5.304   5.032   2.998  0.00  0.00    -0.012 C 
BRANCH  14  21
ATOM     21  N   UNL     1       3.556   6.513   2.221  0.00  0.00    +0.383 N 
ATOM     22  H   UNL     1       2.571   6.606   2.025  0.00  0.00    -0.089 HD
ATOM     23  H   UNL     1       3.830   7.202   2.906  0.00  0.00    -0.089 HD
ATOM     24  H   UNL     1       4.082   6.655   1.372  0.00  0.00    -0.089 HD
ENDBRANCH  14  21
ENDBRANCH  13  14
ENDBRANCH   1  13
TORSDOF 5
