REMARK  Name = ZINC61862554
REMARK  9 active torsions:
REMARK  status: ('A' for Active; 'I' for Inactive)
REMARK    1  A    between atoms: C_1  and  O_2
REMARK    2  A    between atoms: O_2  and  C_3
REMARK    3  A    between atoms: C_6  and  C_13
REMARK    4  A    between atoms: C_7  and  O_11
REMARK    5  A    between atoms: C_8  and  O_9
REMARK    6  A    between atoms: O_9  and  C_10
REMARK    7  A    between atoms: O_11  and  C_12
REMARK    8  A    between atoms: C_13  and  C_15
REMARK    9  A    between atoms: C_13  and  N_22
REMARK                            x       y       z     vdW  Elec       q    Type
REMARK                         _______ _______ _______ _____ _____    ______ ____
ROOT
ATOM      1  C   UNL     1      -1.201  -0.638   0.010  0.00  0.00    +0.165 A 
ATOM      2  C   UNL     1      -2.375   0.101   0.019  0.00  0.00    +0.050 A 
ATOM      3  C   UNL     1      -3.598  -0.543   0.028  0.00  0.00    +0.010 A 
ATOM      4  C   UNL     1      -3.657  -1.924   0.028  0.00  0.00    -0.011 A 
ATOM      5  C   UNL     1      -2.488  -2.670   0.018  0.00  0.00    +0.167 A 
ATOM      6  C   UNL     1      -1.256  -2.026   0.003  0.00  0.00    +0.204 A 
ENDROOT
BRANCH   1   8
ATOM      7  C   UNL     1      -0.017   1.425   0.010  0.00  0.00    +0.277 C 
ATOM      8  O   UNL     1       0.002  -0.004   0.002  0.00  0.00    -0.491 OA
ENDBRANCH   1   8
BRANCH   6   9
ATOM      9  O   UNL     1      -0.106  -2.755  -0.012  0.00  0.00    -0.488 OA
ATOM     10  C   UNL     1       0.454  -3.109   1.254  0.00  0.00    +0.277 C 
ENDBRANCH   6   9
BRANCH   5  11
ATOM     11  O   UNL     1      -2.547  -4.028   0.018  0.00  0.00    -0.491 OA
ATOM     12  C   UNL     1      -2.586  -4.676  -1.255  0.00  0.00    +0.277 C 
ENDBRANCH   5  11
BRANCH   4  13
ATOM     13  C   UNL     1      -4.994  -2.620   0.038  0.00  0.00    +0.009 C 
BRANCH  13  14
ATOM     14  C   UNL     1      -5.336  -3.070  -1.359  0.00  0.00    +0.031 A 
ATOM     15  C   UNL     1      -5.641  -4.397  -1.594  0.00  0.00    +0.023 A 
ATOM     16  C   UNL     1      -5.955  -4.801  -2.882  0.00  0.00    +0.018 A 
ATOM     17  C   UNL     1      -5.951  -3.849  -3.892  0.00  0.00    +0.036 A 
ATOM     18  C   UNL     1      -5.636  -2.539  -3.581  0.00  0.00    +0.126 A 
ATOM     19  N   UNL     1      -5.347  -2.191  -2.342  0.00  0.00    -0.260 NA
ATOM     20 BR   UNL     1      -6.370  -4.338  -5.670  0.00  0.00    -0.049 Br
ENDBRANCH  13  14
BRANCH  13  21
ATOM     21  N   UNL     1      -6.025  -1.692   0.520  0.00  0.00    +0.386 N 
ATOM     22  H   UNL     1      -6.920  -2.158   0.527  0.00  0.00    -0.089 HD
ATOM     23  H   UNL     1      -5.796  -1.391   1.456  0.00  0.00    -0.089 HD
ATOM     24  H   UNL     1      -6.069  -0.890  -0.090  0.00  0.00    -0.089 HD
ENDBRANCH  13  21
ENDBRANCH   4  13
TORSDOF 6
