REMARK  Name = ZINC49278515
REMARK  3 active torsions:
REMARK  status: ('A' for Active; 'I' for Inactive)
REMARK    1  A    between atoms: C_2  and  C_11
REMARK    2  A    between atoms: N_13  and  C_14
REMARK    3  A    between atoms: C_14  and  C_15
REMARK                            x       y       z     vdW  Elec       q    Type
REMARK                         _______ _______ _______ _____ _____    ______ ____
ROOT
ATOM      1  C   UNL     1       1.225   3.474  -0.003  0.00  0.00    +0.251 C 
ATOM      2  O   UNL     1       0.186   4.101  -0.092  0.00  0.00    -0.270 OA
ATOM      3  N   UNL     1       2.401   4.127   0.091  0.00  0.00    -0.311 N 
ATOM      4  H   UNL     1       3.233   3.630   0.089  0.00  0.00    +0.149 HD
ENDROOT
BRANCH   1   6
ATOM      5  C   UNL     1      -0.016   1.319   0.030  0.00  0.00    +0.132 A 
ATOM      6  C   UNL     1       1.199   2.006   0.003  0.00  0.00    +0.119 A 
ATOM      7  C   UNL     1       2.404   1.266  -0.021  0.00  0.00    +0.267 A 
ATOM      8  O   UNL     1       3.475   1.845  -0.062  0.00  0.00    -0.267 OA
ATOM      9  N   UNL     1       2.363  -0.101   0.003  0.00  0.00    -0.286 N 
ATOM     10  C   UNL     1       1.129  -0.687  -0.004  0.00  0.00    +0.172 A 
ATOM     11  N   UNL     1       0.002  -0.004   0.023  0.00  0.00    -0.231 NA
ATOM     12  S   UNL     1       1.413  -2.446  -0.073  0.00  0.00    -0.086 S 
ATOM     13  C   UNL     1       3.211  -2.404  -0.471  0.00  0.00    +0.099 C 
ATOM     14  C   UNL     1       3.536  -0.983   0.043  0.00  0.00    +0.138 C 
ENDBRANCH   1   6
BRANCH   3  15
ATOM     15  C   UNL     1       2.420   5.588   0.198  0.00  0.00    +0.108 C 
BRANCH  15  16
ATOM     16  C   UNL     1       3.868   6.074   0.291  0.00  0.00    +0.010 C 
ATOM     17  C   UNL     1       3.899   7.607   0.287  0.00  0.00    +0.009 C 
ATOM     18  C   UNL     1       5.358   8.062   0.201  0.00  0.00    +0.027 C 
ATOM     19  C   UNL     1       6.185   7.341   1.225  0.00  0.00    -0.031 C 
ATOM     20  C   UNL     1       5.811   6.260   1.829  0.00  0.00    -0.031 C 
ATOM     21  C   UNL     1       4.495   5.575   1.595  0.00  0.00    +0.032 C 
ENDBRANCH  15  16
ENDBRANCH   3  15
TORSDOF 3
