REMARK  Name = ZINC05376193
REMARK  3 active torsions:
REMARK  status: ('A' for Active; 'I' for Inactive)
REMARK    1  A    between atoms: C_3  and  N_8
REMARK    2  A    between atoms: C_5  and  O_7
REMARK    3  A    between atoms: C_12  and  C_13
REMARK                            x       y       z     vdW  Elec       q    Type
REMARK                         _______ _______ _______ _____ _____    ______ ____
ROOT
ATOM      1  N   UNL     1       2.403   1.105  -0.015  0.00  0.00    -0.196 N 
ATOM      2  C   UNL     1       3.529   1.790  -0.123  0.00  0.00    +0.265 C 
ATOM      3  O   UNL     1       3.518   3.005  -0.208  0.00  0.00    -0.269 OA
ATOM      4  C   UNL     1       4.757   1.062  -0.135  0.00  0.00    +0.081 C 
ATOM      5  C   UNL     1       6.036   1.523  -0.234  0.00  0.00    +0.046 C 
ATOM      6  S   UNL     1       4.161  -0.616   0.015  0.00  0.00    -0.025 S 
ATOM      7  C   UNL     1       2.416  -0.243   0.085  0.00  0.00    +0.290 C 
ATOM      8  O   UNL     1       1.476  -1.008   0.193  0.00  0.00    -0.262 OA
ENDROOT
BRANCH   1  11
ATOM      9  C   UNL     1      -0.571   2.885   1.221  0.00  0.00    +0.005 A 
ATOM     10  C   UNL     1       0.636   2.212   1.205  0.00  0.00    +0.024 A 
ATOM     11  C   UNL     1       1.179   1.787   0.000  0.00  0.00    +0.048 A 
ATOM     12  C   UNL     1       0.508   2.039  -1.188  0.00  0.00    +0.069 A 
ATOM     13  C   UNL     1      -0.699   2.719  -1.169  0.00  0.00    +0.119 A 
ATOM     14  C   UNL     1      -1.240   3.136   0.039  0.00  0.00    +0.045 A 
BRANCH  13  15
ATOM     15  O   UNL     1      -1.355   2.972  -2.332  0.00  0.00    -0.507 OA
ATOM     16  H   UNL     1      -1.976   2.278  -2.592  0.00  0.00    +0.292 HD
ENDBRANCH  13  15
ENDBRANCH   1  11
BRANCH   5  17
ATOM     17  C   UNL     1       7.119   0.612  -0.226  0.00  0.00    +0.040 A 
ATOM     18  C   UNL     1       8.461   0.934  -0.325  0.00  0.00    +0.027 A 
ATOM     19  C   UNL     1       9.177  -0.266  -0.271  0.00  0.00    +0.019 A 
ATOM     20  C   UNL     1       8.284  -1.278  -0.153  0.00  0.00    +0.083 A 
ATOM     21  N   UNL     1       7.029  -0.758  -0.124  0.00  0.00    -0.361 N 
ATOM     22  H   UNL     1       6.207  -1.268  -0.046  0.00  0.00    +0.165 HD
ENDBRANCH   5  17
TORSDOF 3
