REMARK  Name = ZINC37606966
REMARK  3 active torsions:
REMARK  status: ('A' for Active; 'I' for Inactive)
REMARK    1  A    between atoms: C_3  and  N_21
REMARK    2  A    between atoms: C_5  and  N_7
REMARK    3  A    between atoms: N_11  and  C_14
REMARK                            x       y       z     vdW  Elec       q    Type
REMARK                         _______ _______ _______ _____ _____    ______ ____
ROOT
ATOM      1  N   UNL     1       1.231  -2.086  -0.021  0.00  0.00    -0.192 N 
ATOM      2  C   UNL     1       2.351  -2.828  -0.128  0.00  0.00    +0.245 C 
ATOM      3  O   UNL     1       3.489  -2.425  -0.232  0.00  0.00    -0.273 OA
ATOM      4  C   UNL     1       1.890  -4.272  -0.092  0.00  0.00    +0.212 C 
ATOM      5  N   UNL     1       0.427  -4.165   0.045  0.00  0.00    -0.246 N 
ATOM      6  C   UNL     1       0.139  -2.852   0.082  0.00  0.00    +0.320 C 
ATOM      7  O   UNL     1      -0.988  -2.410   0.193  0.00  0.00    -0.251 OA
ENDROOT
BRANCH   5   8
ATOM      8  C   UNL     1      -0.484  -5.224   0.124  0.00  0.00    +0.040 A 
ATOM      9  C   UNL     1      -0.032  -6.536   0.082  0.00  0.00    +0.023 A 
ATOM     10  C   UNL     1      -0.934  -7.580   0.161  0.00  0.00    +0.003 A 
ATOM     11  C   UNL     1      -2.286  -7.319   0.282  0.00  0.00    +0.020 A 
ATOM     12  C   UNL     1      -2.741  -6.013   0.324  0.00  0.00    +0.043 A 
ATOM     13  C   UNL     1      -1.842  -4.964   0.251  0.00  0.00    +0.043 A 
ATOM     14 CL   UNL     1      -4.440  -5.690   0.476  0.00  0.00    -0.083 Cl
ENDBRANCH   5   8
BRANCH   1  19
ATOM     15  C   UNL     1       2.391   1.408   0.011  0.00  0.00    +0.004 A 
ATOM     16  C   UNL     1       1.188   2.087   0.004  0.00  0.00    +0.023 A 
ATOM     17  C   UNL     1      -0.009   1.383  -0.011  0.00  0.00    +0.026 A 
ATOM     18  C   UNL     1       0.004  -0.005  -0.020  0.00  0.00    +0.046 A 
ATOM     19  C   UNL     1       1.213  -0.684  -0.013  0.00  0.00    +0.047 A 
ATOM     20  C   UNL     1       2.407   0.026   0.002  0.00  0.00    +0.024 A 
BRANCH  17  21
ATOM     21  N   UNL     1      -1.225   2.071  -0.018  0.00  0.00    -0.358 N 
ATOM     22  H   UNL     1      -1.234   3.041  -0.011  0.00  0.00    +0.142 HD
ATOM     23  H   UNL     1      -2.061   1.578  -0.028  0.00  0.00    +0.142 HD
ENDBRANCH  17  21
ENDBRANCH   1  19
TORSDOF 3
