REMARK  Name = ZINC62956944
REMARK  10 active torsions:
REMARK  status: ('A' for Active; 'I' for Inactive)
REMARK    1  A    between atoms: C_1  and  C_2
REMARK    2  A    between atoms: C_2  and  C_3
REMARK    3  A    between atoms: C_3  and  C_21
REMARK    4  A    between atoms: N_6  and  C_9
REMARK    5  A    between atoms: C_9  and  C_10
REMARK    6  A    between atoms: C_10  and  C_11
REMARK    7  A    between atoms: C_10  and  C_12
REMARK    8  A    between atoms: C_10  and  C_15
REMARK    9  A    between atoms: C_12  and  N_13
REMARK   10  A    between atoms: N_13  and  C_14
REMARK                            x       y       z     vdW  Elec       q    Type
REMARK                         _______ _______ _______ _____ _____    ______ ____
ROOT
ATOM      1  C   UNL     1       3.895  -4.038  -3.357  0.00  0.00    -0.037 C 
ATOM      2  C   UNL     1       2.550  -4.764  -3.408  0.00  0.00    +0.012 C 
ENDROOT
BRANCH   1   3
ATOM      3  C   UNL     1       4.946  -4.878  -4.037  0.00  0.00    -0.045 A 
ATOM      4  C   UNL     1       5.627  -4.380  -5.131  0.00  0.00    +0.004 A 
ATOM      5  C   UNL     1       6.591  -5.151  -5.755  0.00  0.00    +0.000 A 
ATOM      6  C   UNL     1       6.873  -6.419  -5.283  0.00  0.00    +0.000 A 
ATOM      7  C   UNL     1       6.192  -6.917  -4.188  0.00  0.00    +0.000 A 
ATOM      8  C   UNL     1       5.231  -6.144  -3.562  0.00  0.00    +0.004 A 
ENDBRANCH   1   3
BRANCH   1   9
ATOM      9  C   UNL     1       3.776  -2.692  -4.074  0.00  0.00    -0.069 C 
BRANCH   9  13
ATOM     10  C   UNL     1       0.796   0.213  -3.158  0.00  0.00    -0.036 C 
ATOM     11  C   UNL     1       2.256   0.489  -2.788  0.00  0.00    -0.012 C 
ATOM     12  C   UNL     1       3.167  -0.419  -3.616  0.00  0.00    -0.078 C 
ATOM     13  N   UNL     1       2.848  -1.824  -3.337  0.00  0.00    +0.380 N 
ATOM     14  C   UNL     1       1.471  -2.115  -3.757  0.00  0.00    -0.078 C 
ATOM     15  C   UNL     1       0.495  -1.272  -2.934  0.00  0.00    -0.012 C 
ATOM     16  C   UNL     1       0.564   0.566  -4.629  0.00  0.00    +0.011 C 
ATOM     17  H   UNL     1       2.941  -2.000  -2.348  0.00  0.00    -0.082 HD
BRANCH  10  19
ATOM     18  C   UNL     1       0.177   2.543  -2.503  0.00  0.00    +0.004 C 
ATOM     19  C   UNL     1      -0.125   1.061  -2.278  0.00  0.00    +0.003 C 
ENDBRANCH  10  19
ENDBRANCH   9  13
ENDBRANCH   1   9
BRANCH   1  20
ATOM     20  C   UNL     1       4.294  -3.804  -1.898  0.00  0.00    -0.074 C 
BRANCH  20  21
ATOM     21  N   UNL     1       5.586  -3.107  -1.849  0.00  0.00    +0.378 N 
ATOM     22  C   UNL     1       5.969  -2.883  -0.449  0.00  0.00    -0.100 C 
ATOM     23  H   UNL     1       6.289  -3.670  -2.304  0.00  0.00    -0.086 HD
ATOM     24  H   UNL     1       5.508  -2.220  -2.322  0.00  0.00    -0.086 HD
ENDBRANCH  20  21
ENDBRANCH   1  20
TORSDOF 6
