REMARK  Name = ZINC35224305
REMARK  6 active torsions:
REMARK  status: ('A' for Active; 'I' for Inactive)
REMARK    1  A    between atoms: C_1  and  C_2
REMARK    2  A    between atoms: C_2  and  C_4
REMARK    3  A    between atoms: C_2  and  N_14
REMARK    4  A    between atoms: C_8  and  S_10
REMARK    5  A    between atoms: S_10  and  N_13
REMARK    6  A    between atoms: N_14  and  C_15
REMARK                            x       y       z     vdW  Elec       q    Type
REMARK                         _______ _______ _______ _____ _____    ______ ____
ROOT
ATOM      1  C   UNL     1      -1.016   0.409  -0.232  0.00  0.00    -0.009 C 
ATOM      2  C   UNL     1      -0.164  -0.823   0.083  0.00  0.00    -0.043 C 
ENDROOT
BRANCH   2   3
ATOM      3  C   UNL     1       0.560  -1.264  -1.163  0.00  0.00    -0.060 A 
ATOM      4  C   UNL     1       1.716  -0.615  -1.556  0.00  0.00    +0.002 A 
ATOM      5  C   UNL     1       2.381  -1.019  -2.699  0.00  0.00    +0.002 A 
ATOM      6  C   UNL     1       1.891  -2.072  -3.448  0.00  0.00    +0.028 A 
ATOM      7  C   UNL     1       0.736  -2.721  -3.054  0.00  0.00    +0.105 A 
ATOM      8  C   UNL     1       0.073  -2.320  -1.909  0.00  0.00    +0.030 A 
BRANCH   7   9
ATOM      9  S   UNL     1       0.111  -4.064  -4.009  0.00  0.00    +0.056 S 
ATOM     10  O   UNL     1      -1.280  -4.149  -3.729  0.00  0.00    -0.153 OA
ATOM     11  O   UNL     1       0.613  -3.893  -5.327  0.00  0.00    -0.153 OA
BRANCH   9  12
ATOM     12  N   UNL     1       0.798  -5.449  -3.416  0.00  0.00    -0.204 NA
ATOM     13  H   UNL     1       0.317  -6.289  -3.467  0.00  0.00    +0.144 HD
ATOM     14  H   UNL     1       1.683  -5.419  -3.019  0.00  0.00    +0.144 HD
ENDBRANCH   9  12
ENDBRANCH   7   9
ENDBRANCH   2   3
BRANCH   2  15
ATOM     15  N   UNL     1       0.814  -0.489   1.126  0.00  0.00    +0.391 N 
ATOM     16  H   UNL     1       1.449  -1.263   1.252  0.00  0.00    -0.084 HD
ATOM     17  H   UNL     1       1.333   0.331   0.850  0.00  0.00    -0.084 HD
BRANCH  15  18
ATOM     18  C   UNL     1       0.111  -0.222   2.389  0.00  0.00    +0.017 C 
ATOM     19  C   UNL     1      -0.102   1.285   2.550  0.00  0.00    -0.007 C 
ATOM     20  C   UNL     1       1.069   2.058   1.970  0.00  0.00    +0.000 C 
ATOM     21  C   UNL     1       2.369   1.862   2.728  0.00  0.00    +0.019 C 
ATOM     22  C   UNL     1       2.872   0.424   2.585  0.00  0.00    +0.104 C 
ATOM     23  N   UNL     1       2.241  -0.401   3.628  0.00  0.00    -0.317 N 
ATOM     24  C   UNL     1       0.945  -0.721   3.550  0.00  0.00    +0.199 C 
ATOM     25  O   UNL     1       0.434  -1.405   4.411  0.00  0.00    -0.278 OA
ATOM     26  H   UNL     1       2.770  -0.717   4.378  0.00  0.00    +0.149 HD
ENDBRANCH  15  18
ENDBRANCH   2  15
TORSDOF 5
