REMARK  Name = ZINC42869217
REMARK  5 active torsions:
REMARK  status: ('A' for Active; 'I' for Inactive)
REMARK    1  A    between atoms: C_1  and  C_2
REMARK    2  A    between atoms: C_8  and  C_10
REMARK    3  A    between atoms: C_10  and  N_11
REMARK    4  A    between atoms: C_12  and  C_14
REMARK    5  A    between atoms: C_14  and  C_15
REMARK                            x       y       z     vdW  Elec       q    Type
REMARK                         _______ _______ _______ _____ _____    ______ ____
ROOT
ATOM      1  N   UNL     1       2.849  -0.367   2.474  0.00  0.00    -0.315 N 
ATOM      2  C   UNL     1       4.131  -0.007   2.687  0.00  0.00    +0.211 C 
ATOM      3  O   UNL     1       4.727   0.636   1.849  0.00  0.00    -0.276 OA
ATOM      4  H   UNL     1       2.372  -0.881   3.144  0.00  0.00    +0.149 HD
ENDROOT
BRANCH   1   5
ATOM      5  C   UNL     1       2.178   0.019   1.231  0.00  0.00    +0.108 C 
BRANCH   5  12
ATOM      6  C   UNL     1      -0.019   1.526   0.010  0.00  0.00    +0.008 C 
ATOM      7  C   UNL     1       0.002  -0.004   0.002  0.00  0.00    -0.010 C 
ATOM      8  C   UNL     1      -1.433  -0.534   0.013  0.00  0.00    +0.003 C 
ATOM      9  C   UNL     1      -1.413  -2.063   0.004  0.00  0.00    +0.000 C 
ATOM     10  C   UNL     1      -0.673  -2.570   1.244  0.00  0.00    +0.000 C 
ATOM     11  C   UNL     1       0.763  -2.041   1.233  0.00  0.00    +0.005 C 
ATOM     12  C   UNL     1       0.742  -0.511   1.242  0.00  0.00    +0.009 C 
ENDBRANCH   5  12
ENDBRANCH   1   5
BRANCH   2  13
ATOM     13  C   UNL     1       4.822  -0.403   3.966  0.00  0.00    +0.080 C 
BRANCH  13  14
ATOM     14  C   UNL     1       6.258   0.126   3.955  0.00  0.00    -0.063 C 
ATOM     15  C   UNL     1       6.998  -0.382   5.194  0.00  0.00    -0.015 C 
ATOM     16  C   UNL     1       8.433   0.150   5.179  0.00  0.00    -0.003 C 
ATOM     17  C   UNL     1       8.400   1.680   5.110  0.00  0.00    -0.019 C 
ATOM     18  C   UNL     1       7.608   2.112   3.874  0.00  0.00    -0.082 C 
ATOM     19  N   UNL     1       6.237   1.594   3.962  0.00  0.00    +0.381 N 
ATOM     20  H   UNL     1       5.703   1.925   3.173  0.00  0.00    -0.086 HD
ATOM     21  H   UNL     1       5.809   1.919   4.816  0.00  0.00    -0.086 HD
ENDBRANCH  13  14
ENDBRANCH   2  13
TORSDOF 4
