REMARK  Name = ZINC59503486
REMARK  6 active torsions:
REMARK  status: ('A' for Active; 'I' for Inactive)
REMARK    1  A    between atoms: C_9  and  N_11
REMARK    2  A    between atoms: N_12  and  C_13
REMARK    3  A    between atoms: C_13  and  C_14
REMARK    4  A    between atoms: C_16  and  N_22
REMARK    5  A    between atoms: C_17  and  O_21
REMARK    6  A    between atoms: C_19  and  O_20
REMARK                            x       y       z     vdW  Elec       q    Type
REMARK                         _______ _______ _______ _____ _____    ______ ____
ROOT
ATOM      1  N   UNL     1       3.619  -3.244  -0.051  0.00  0.00    -0.141 NA
ATOM      2  N   UNL     1       4.858  -3.212  -0.063  0.00  0.00    -0.301 N 
ATOM      3  H   UNL     1       5.321  -2.360  -0.062  0.00  0.00    +0.183 HD
ENDROOT
BRANCH   1  12
ATOM      4  C   UNL     1      -0.016   1.362   0.009  0.00  0.00    +0.002 A 
ATOM      5  C   UNL     1       1.168   2.087   0.002  0.00  0.00    +0.002 A 
ATOM      6  C   UNL     1       2.376   1.450  -0.013  0.00  0.00    +0.028 A 
ATOM      7  C   UNL     1       2.424   0.056  -0.021  0.00  0.00    +0.066 A 
ATOM      8  C   UNL     1       1.222  -0.680  -0.013  0.00  0.00    +0.066 A 
ATOM      9  C   UNL     1       0.002  -0.004   0.002  0.00  0.00    +0.028 A 
ATOM     10  N   UNL     1       1.574  -1.996  -0.024  0.00  0.00    -0.323 N 
ATOM     11  H   UNL     1       0.960  -2.747  -0.022  0.00  0.00    +0.169 HD
ATOM     12  C   UNL     1       2.903  -2.076  -0.037  0.00  0.00    +0.224 A 
ATOM     13  N   UNL     1       3.436  -0.855  -0.036  0.00  0.00    -0.323 N 
ATOM     14  H   UNL     1       4.384  -0.650  -0.043  0.00  0.00    +0.169 HD
ENDBRANCH   1  12
BRANCH   2  15
ATOM     15  C   UNL     1       5.623  -4.461  -0.077  0.00  0.00    +0.173 C 
BRANCH  15  16
ATOM     16  C   UNL     1       6.479  -4.512  -1.316  0.00  0.00    +0.017 A 
ATOM     17  C   UNL     1       7.841  -4.297  -1.224  0.00  0.00    +0.045 A 
ATOM     18  C   UNL     1       8.629  -4.343  -2.358  0.00  0.00    +0.168 A 
ATOM     19  C   UNL     1       8.054  -4.604  -3.593  0.00  0.00    +0.150 A 
ATOM     20  C   UNL     1       6.688  -4.820  -3.689  0.00  0.00    +0.093 A 
ATOM     21  C   UNL     1       5.900  -4.779  -2.549  0.00  0.00    +0.125 A 
BRANCH  18  22
ATOM     22  N   UNL     1      10.088  -4.112  -2.255  0.00  0.00    +0.060 N 
ATOM     23  O   UNL     1      10.589  -3.884  -1.179  0.00  0.00    -0.126 OA
ATOM     24  O   UNL     1      10.777  -4.152  -3.247  0.00  0.00    -0.126 OA
ENDBRANCH  18  22
BRANCH  21  25
ATOM     25  O   UNL     1       4.562  -4.996  -2.638  0.00  0.00    -0.506 OA
ATOM     26  H   UNL     1       4.043  -4.194  -2.790  0.00  0.00    +0.292 HD
ENDBRANCH  21  25
BRANCH  19  27
ATOM     27  O   UNL     1       8.829  -4.649  -4.709  0.00  0.00    -0.504 OA
ATOM     28  H   UNL     1       9.182  -5.527  -4.908  0.00  0.00    +0.292 HD
ENDBRANCH  19  27
ENDBRANCH  15  16
ENDBRANCH   2  15
TORSDOF 6
