REMARK  Name = ZINC63896852
REMARK  9 active torsions:
REMARK  status: ('A' for Active; 'I' for Inactive)
REMARK    1  A    between atoms: C_1  and  O_2
REMARK    2  A    between atoms: O_2  and  C_3
REMARK    3  A    between atoms: C_3  and  C_5
REMARK    4  A    between atoms: C_5  and  N_6
REMARK    5  A    between atoms: C_7  and  C_9
REMARK    6  A    between atoms: C_9  and  C_11
REMARK    7  A    between atoms: C_9  and  N_21
REMARK    8  A    between atoms: C_11  and  C_12
REMARK    9  A    between atoms: C_22  and  C_24
REMARK                            x       y       z     vdW  Elec       q    Type
REMARK                         _______ _______ _______ _____ _____    ______ ____
ROOT
ATOM      1  C   UNL     1       2.414  -4.098   3.871  0.00  0.00    +0.163 C 
ENDROOT
BRANCH   1   3
ATOM      2  N   UNL     1       2.809  -2.174   2.368  0.00  0.00    -0.303 N 
ATOM      3  C   UNL     1       2.840  -3.509   2.551  0.00  0.00    +0.234 C 
ATOM      4  O   UNL     1       3.212  -4.236   1.654  0.00  0.00    -0.274 OA
ATOM      5  H   UNL     1       2.512  -1.593   3.086  0.00  0.00    +0.149 HD
BRANCH   2   6
ATOM      6  C   UNL     1       3.224  -1.601   1.085  0.00  0.00    +0.225 C 
BRANCH   6   7
ATOM      7  C   UNL     1       3.096  -0.100   1.141  0.00  0.00    +0.324 C 
ATOM      8  O   UNL     1       2.699   0.435   2.148  0.00  0.00    -0.249 OA
BRANCH   7  10
ATOM      9  C   UNL     1       3.276   2.057   0.193  0.00  0.00    +0.280 C 
ATOM     10  O   UNL     1       3.423   0.641   0.070  0.00  0.00    -0.467 OA
ENDBRANCH   7  10
ENDBRANCH   6   7
ENDBRANCH   2   6
ENDBRANCH   1   3
BRANCH   1  11
ATOM     11  N   UNL     1       2.538  -5.557   3.817  0.00  0.00    -0.303 N 
ATOM     12  C   UNL     1       3.421  -6.188   4.616  0.00  0.00    +0.220 C 
ATOM     13  O   UNL     1       4.113  -5.548   5.380  0.00  0.00    -0.275 OA
ATOM     14  H   UNL     1       1.985  -6.069   3.206  0.00  0.00    +0.149 HD
BRANCH  12  15
ATOM     15  C   UNL     1       3.549  -7.688   4.561  0.00  0.00    +0.048 C 
ATOM     16  C   UNL     1       3.959  -8.114   3.149  0.00  0.00    +0.019 C 
ATOM     17  C   UNL     1       4.089  -9.637   3.093  0.00  0.00    -0.009 C 
ATOM     18  C   UNL     1       5.153 -10.095   4.093  0.00  0.00    +0.007 C 
ATOM     19  C   UNL     1       4.743  -9.670   5.504  0.00  0.00    -0.009 C 
ATOM     20  C   UNL     1       4.613  -8.147   5.561  0.00  0.00    +0.019 C 
ATOM     21  C   UNL     1       3.400 -10.310   5.860  0.00  0.00    +0.007 C 
ATOM     22  C   UNL     1       2.336  -9.852   4.861  0.00  0.00    -0.009 C 
ATOM     23  C   UNL     1       2.746 -10.277   3.449  0.00  0.00    +0.007 C 
ATOM     24  C   UNL     1       2.206  -8.328   4.917  0.00  0.00    +0.019 C 
ENDBRANCH  12  15
ENDBRANCH   1  11
BRANCH   1  25
ATOM     25  C   UNL     1       0.958  -3.721   4.151  0.00  0.00    +0.065 C 
BRANCH  25  26
ATOM     26  C   UNL     1       0.568  -4.206   5.524  0.00  0.00    -0.039 C 
ATOM     27  C   UNL     1       0.648  -3.514   6.684  0.00  0.00    -0.001 A 
ATOM     28  C   UNL     1       1.104  -2.156   7.002  0.00  0.00    +0.010 A 
ATOM     29  C   UNL     1       1.065  -1.735   8.287  0.00  0.00    +0.001 A 
ATOM     30  C   UNL     1       0.601  -2.561   9.319  0.00  0.00    +0.002 A 
ATOM     31  C   UNL     1       0.165  -3.821   9.105  0.00  0.00    +0.026 A 
ATOM     32  C   UNL     1       0.162  -4.367   7.792  0.00  0.00    +0.043 A 
ATOM     33  N   UNL     1      -0.204  -5.540   7.335  0.00  0.00    -0.380 N 
ATOM     34  C   UNL     1       0.003  -5.562   5.883  0.00  0.00    +0.144 C 
ATOM     35  H   UNL     1      -0.556  -6.270   7.868  0.00  0.00    +0.160 HD
ENDBRANCH  25  26
ENDBRANCH   1  25
TORSDOF 8
