REMARK  Name = ZINC65222197
REMARK  6 active torsions:
REMARK  status: ('A' for Active; 'I' for Inactive)
REMARK    1  A    between atoms: C_1  and  C_2
REMARK    2  A    between atoms: C_2  and  C_3
REMARK    3  A    between atoms: C_2  and  N_15
REMARK    4  A    between atoms: C_6  and  N_9
REMARK    5  A    between atoms: C_16  and  C_17
REMARK    6  A    between atoms: C_22  and  O_23
REMARK                            x       y       z     vdW  Elec       q    Type
REMARK                         _______ _______ _______ _____ _____    ______ ____
ROOT
ATOM      1  C   UNL     1      -0.200   1.530  -0.042  0.00  0.00    +0.035 C 
ATOM      2  C   UNL     1      -0.047   0.009   0.012  0.00  0.00    +0.106 C 
ENDROOT
BRANCH   2   3
ATOM      3  C   UNL     1       0.775  -0.371   1.217  0.00  0.00    -0.025 A 
ATOM      4  C   UNL     1       0.183  -0.425   2.466  0.00  0.00    +0.007 A 
ATOM      5  C   UNL     1       0.933  -0.772   3.573  0.00  0.00    +0.023 A 
ATOM      6  C   UNL     1       2.283  -1.067   3.430  0.00  0.00    +0.030 A 
ATOM      7  C   UNL     1       2.874  -1.012   2.174  0.00  0.00    +0.023 A 
ATOM      8  C   UNL     1       2.117  -0.669   1.071  0.00  0.00    +0.007 A 
BRANCH   6   9
ATOM      9  N   UNL     1       3.045  -1.419   4.547  0.00  0.00    -0.326 N 
ATOM     10  C   UNL     1       4.445  -1.849   4.404  0.00  0.00    +0.133 C 
ATOM     11  C   UNL     1       5.303  -1.033   5.378  0.00  0.00    +0.178 C 
ATOM     12  O   UNL     1       4.742  -1.123   6.689  0.00  0.00    -0.377 OA
ATOM     13  C   UNL     1       3.425  -0.576   6.802  0.00  0.00    +0.178 C 
ATOM     14  C   UNL     1       2.473  -1.363   5.902  0.00  0.00    +0.133 C 
ENDBRANCH   6   9
ENDBRANCH   2   3
BRANCH   2  15
ATOM     15  N   UNL     1      -1.370  -0.612   0.109  0.00  0.00    -0.383 N 
ATOM     16  C   UNL     1      -1.768  -1.433  -0.809  0.00  0.00    +0.090 C 
ATOM     17  H   UNL     1      -1.948  -0.408   0.860  0.00  0.00    +0.160 HD
BRANCH  16  18
ATOM     18  C   UNL     1      -3.152  -1.940  -0.795  0.00  0.00    +0.032 A 
ATOM     19  C   UNL     1      -3.551  -2.919  -1.708  0.00  0.00    +0.013 A 
ATOM     20  C   UNL     1      -4.846  -3.389  -1.690  0.00  0.00    +0.001 A 
ATOM     21  C   UNL     1      -5.755  -2.896  -0.768  0.00  0.00    +0.004 A 
ATOM     22  C   UNL     1      -5.374  -1.928   0.140  0.00  0.00    +0.046 A 
ATOM     23  C   UNL     1      -4.073  -1.448   0.139  0.00  0.00    +0.125 A 
BRANCH  23  24
ATOM     24  O   UNL     1      -3.696  -0.502   1.036  0.00  0.00    -0.506 OA
ATOM     25  H   UNL     1      -3.824   0.406   0.727  0.00  0.00    +0.292 HD
ENDBRANCH  23  24
ENDBRANCH  16  18
ENDBRANCH   2  15
TORSDOF 5
