REMARK  Name = ZINC63351032
REMARK  4 active torsions:
REMARK  status: ('A' for Active; 'I' for Inactive)
REMARK    1  A    between atoms: C_1  and  N_2
REMARK    2  A    between atoms: C_3  and  O_28
REMARK    3  A    between atoms: C_5  and  C_13
REMARK    4  A    between atoms: N_9  and  C_12
REMARK                            x       y       z     vdW  Elec       q    Type
REMARK                         _______ _______ _______ _____ _____    ______ ____
ROOT
ATOM      1  C   UNL     1      -1.066  -1.648   2.326  0.00  0.00    +0.096 C 
ATOM      2  C   UNL     1      -1.052  -2.924   3.172  0.00  0.00    +0.124 C 
ATOM      3  C   UNL     1      -1.182  -2.474   4.622  0.00  0.00    -0.036 C 
ATOM      4  C   UNL     1      -0.164  -3.016   5.276  0.00  0.00    -0.001 A 
ATOM      5  C   UNL     1       0.198  -3.017   6.703  0.00  0.00    +0.010 A 
ATOM      6  C   UNL     1       1.342  -3.674   7.030  0.00  0.00    +0.001 A 
ATOM      7  C   UNL     1       2.152  -4.322   6.093  0.00  0.00    +0.002 A 
ATOM      8  C   UNL     1       1.893  -4.377   4.763  0.00  0.00    +0.026 A 
ATOM      9  C   UNL     1       0.714  -3.727   4.296  0.00  0.00    +0.043 A 
ATOM     10  N   UNL     1       0.214  -3.648   3.078  0.00  0.00    -0.376 N 
ATOM     11  C   UNL     1      -2.259  -1.510   5.059  0.00  0.00    +0.048 C 
ATOM     12  C   UNL     1      -2.232  -0.349   4.049  0.00  0.00    +0.085 C 
ATOM     13  N   UNL     1      -2.264  -0.870   2.679  0.00  0.00    -0.310 NA
ATOM     14  H   UNL     1      -2.423  -0.129   2.013  0.00  0.00    +0.122 HD
ATOM     15  H   UNL     1       0.609  -3.997   2.264  0.00  0.00    +0.160 HD
ENDROOT
BRANCH   1  19
ATOM     16  C   UNL     1      -4.839  -1.817   0.960  0.00  0.00    +0.133 C 
ATOM     17  N   UNL     1      -3.482  -1.540   0.483  0.00  0.00    -0.289 N 
ATOM     18  C   UNL     1      -2.479  -2.607   0.500  0.00  0.00    +0.217 C 
ATOM     19  C   UNL     1      -1.109  -2.015   0.841  0.00  0.00    +0.141 C 
ATOM     20  C   UNL     1      -0.882  -0.779   0.008  0.00  0.00    +0.230 C 
ATOM     21  O   UNL     1       0.234  -0.504  -0.378  0.00  0.00    -0.275 OA
ATOM     22  N   UNL     1      -1.918   0.020  -0.306  0.00  0.00    -0.256 N 
ATOM     23  C   UNL     1      -3.176  -0.313   0.030  0.00  0.00    +0.143 C 
ATOM     24  S   UNL     1      -4.418   0.857  -0.115  0.00  0.00    -0.018 S 
ATOM     25  C   UNL     1      -1.673   1.269  -1.032  0.00  0.00    +0.140 C 
BRANCH  18  26
ATOM     26  O   UNL     1      -2.836  -3.579   1.484  0.00  0.00    -0.373 OA
ATOM     27  H   UNL     1      -3.694  -3.997   1.330  0.00  0.00    +0.212 HD
ENDBRANCH  18  26
ENDBRANCH   1  19
TORSDOF 2
