REMARK  Name = ZINC43209064
REMARK  11 active torsions:
REMARK  status: ('A' for Active; 'I' for Inactive)
REMARK    1  A    between atoms: C_3  and  N_37
REMARK    2  A    between atoms: C_6  and  C_7
REMARK    3  A    between atoms: C_7  and  C_9
REMARK    4  A    between atoms: C_7  and  N_26
REMARK    5  A    between atoms: C_9  and  C_11
REMARK    6  A    between atoms: C_9  and  C_23
REMARK    7  A    between atoms: C_11  and  N_12
REMARK    8  A    between atoms: N_12  and  C_13
REMARK    9  A    between atoms: C_13  and  C_14
REMARK   10  A    between atoms: N_26  and  C_27
REMARK   11  A    between atoms: C_27  and  C_28
REMARK                            x       y       z     vdW  Elec       q    Type
REMARK                         _______ _______ _______ _____ _____    ______ ____
ROOT
ATOM      1  C   UNL     1      -1.281  -0.771   0.012  0.00  0.00    -0.028 C 
ENDROOT
BRANCH   1   7
ATOM      2  C   UNL     1      -0.070   1.418   0.077  0.00  0.00    +0.004 A 
ATOM      3  C   UNL     1       1.096   2.159   0.133  0.00  0.00    +0.033 A 
ATOM      4  C   UNL     1       2.320   1.520   0.184  0.00  0.00    +0.126 A 
ATOM      5  C   UNL     1       2.379   0.139   0.181  0.00  0.00    +0.033 A 
ATOM      6  C   UNL     1       1.214  -0.603   0.126  0.00  0.00    +0.004 A 
ATOM      7  C   UNL     1      -0.011   0.037   0.073  0.00  0.00    -0.061 A 
BRANCH   4   8
ATOM      8  N   UNL     1       3.568   2.313   0.243  0.00  0.00    +0.056 N 
ATOM      9  O   UNL     1       3.516   3.521   0.246  0.00  0.00    -0.126 OA
ATOM     10  O   UNL     1       4.639   1.754   0.288  0.00  0.00    -0.126 OA
ENDBRANCH   4   8
ENDBRANCH   1   7
BRANCH   1  11
ATOM     11  N   UNL     1      -1.165  -1.934   0.902  0.00  0.00    +0.387 N 
ATOM     12  H   UNL     1      -1.974  -2.526   0.790  0.00  0.00    -0.085 HD
ATOM     13  H   UNL     1      -0.333  -2.454   0.669  0.00  0.00    -0.085 HD
BRANCH  11  14
ATOM     14  C   UNL     1      -1.083  -1.477   2.296  0.00  0.00    -0.046 C 
BRANCH  14  15
ATOM     15  C   UNL     1      -0.964  -2.669   3.210  0.00  0.00    -0.061 A 
ATOM     16  C   UNL     1      -2.103  -3.271   3.711  0.00  0.00    +0.005 A 
ATOM     17  C   UNL     1      -1.999  -4.365   4.549  0.00  0.00    +0.050 A 
ATOM     18  C   UNL     1      -0.751  -4.862   4.889  0.00  0.00    +0.166 A 
ATOM     19  C   UNL     1       0.397  -4.256   4.384  0.00  0.00    +0.166 A 
ATOM     20  C   UNL     1       0.285  -3.163   3.540  0.00  0.00    +0.051 A 
ATOM     21  O   UNL     1       1.488  -4.923   4.861  0.00  0.00    -0.453 OA
ATOM     22  C   UNL     1       1.011  -5.687   5.985  0.00  0.00    +0.466 C 
ATOM     23  O   UNL     1      -0.379  -5.909   5.682  0.00  0.00    -0.453 OA
ENDBRANCH  14  15
ENDBRANCH  11  14
ENDBRANCH   1  11
BRANCH   1  24
ATOM     24  C   UNL     1      -1.513  -1.250  -1.423  0.00  0.00    +0.075 C 
BRANCH  24  25
ATOM     25  C   UNL     1      -1.768  -0.061  -2.313  0.00  0.00    +0.356 C 
ATOM     26  O   UNL     1      -1.522  -0.128  -3.506  0.00  0.00    -0.246 OA
ATOM     27  O   UNL     1      -2.221   0.968  -1.842  0.00  0.00    -0.246 OA
ENDBRANCH  24  25
BRANCH  24  28
ATOM     28  C   UNL     1      -0.275  -2.000  -1.917  0.00  0.00    -0.069 C 
BRANCH  28  29
ATOM     29  N   UNL     1      -0.542  -2.562  -3.248  0.00  0.00    +0.382 N 
ATOM     30  H   UNL     1      -1.322  -3.199  -3.194  0.00  0.00    -0.085 HD
ATOM     31  H   UNL     1      -0.761  -1.815  -3.890  0.00  0.00    -0.085 HD
BRANCH  29  32
ATOM     32  C   UNL     1       0.647  -3.283  -3.723  0.00  0.00    -0.047 C 
BRANCH  32  33
ATOM     33  C   UNL     1       0.374  -3.859  -5.088  0.00  0.00    -0.061 A 
ATOM     34  C   UNL     1      -0.165  -5.127  -5.207  0.00  0.00    +0.005 A 
ATOM     35  C   UNL     1      -0.418  -5.659  -6.457  0.00  0.00    +0.050 A 
ATOM     36  C   UNL     1      -0.131  -4.923  -7.595  0.00  0.00    +0.166 A 
ATOM     37  C   UNL     1       0.411  -3.646  -7.476  0.00  0.00    +0.166 A 
ATOM     38  C   UNL     1       0.657  -3.116  -6.219  0.00  0.00    +0.051 A 
ATOM     39  O   UNL     1       0.601  -3.134  -8.726  0.00  0.00    -0.453 OA
ATOM     40  C   UNL     1       0.551  -4.264  -9.617  0.00  0.00    +0.466 C 
ATOM     41  O   UNL     1      -0.282  -5.210  -8.921  0.00  0.00    -0.453 OA
ENDBRANCH  32  33
ENDBRANCH  29  32
ENDBRANCH  28  29
ENDBRANCH  24  28
ENDBRANCH   1  24
TORSDOF 11
