REMARK  Name = ZINC64886572
REMARK  6 active torsions:
REMARK  status: ('A' for Active; 'I' for Inactive)
REMARK    1  A    between atoms: C_8  and  C_11
REMARK    2  A    between atoms: N_13  and  N_14
REMARK    3  A    between atoms: N_17  and  C_18
REMARK    4  A    between atoms: C_18  and  C_19
REMARK    5  A    between atoms: C_19  and  C_20
REMARK    6  A    between atoms: C_20  and  N_21
REMARK                            x       y       z     vdW  Elec       q    Type
REMARK                         _______ _______ _______ _____ _____    ______ ____
ROOT
ATOM      1  N   UNL     1       3.916  -6.147   0.590  0.00  0.00    -0.218 N 
ATOM      2  C   UNL     1       5.094  -6.720   0.906  0.00  0.00    +0.316 C 
ATOM      3  O   UNL     1       5.204  -7.931   0.896  0.00  0.00    -0.251 OA
ATOM      4  N   UNL     1       6.152  -5.950   1.233  0.00  0.00    -0.298 N 
ATOM      5  H   UNL     1       3.155  -6.701   0.355  0.00  0.00    +0.174 HD
ATOM      6  H   UNL     1       6.064  -4.984   1.241  0.00  0.00    +0.150 HD
ENDROOT
BRANCH   1   9
ATOM      7  C   UNL     1       2.611  -4.179   0.285  0.00  0.00    +0.259 C 
ATOM      8  O   UNL     1       1.657  -4.874  -0.010  0.00  0.00    -0.269 OA
ATOM      9  N   UNL     1       3.790  -4.752   0.601  0.00  0.00    -0.229 N 
ATOM     10  H   UNL     1       4.551  -4.198   0.837  0.00  0.00    +0.173 HD
BRANCH   7  18
ATOM     11  C   UNL     1      -0.017   1.375   0.010  0.00  0.00    +0.001 A 
ATOM     12  C   UNL     1       1.169   2.092   0.002  0.00  0.00    +0.004 A 
ATOM     13  C   UNL     1       2.387   1.438  -0.014  0.00  0.00    +0.046 A 
ATOM     14  C   UNL     1       2.426   0.055  -0.022  0.00  0.00    +0.128 A 
ATOM     15  C   UNL     1       1.225  -0.674  -0.013  0.00  0.00    +0.017 A 
ATOM     16  C   UNL     1       0.002  -0.004   0.002  0.00  0.00    +0.011 A 
ATOM     17  C   UNL     1       1.296  -2.144  -0.021  0.00  0.00    +0.023 C 
ATOM     18  C   UNL     1       2.480  -2.723   0.297  0.00  0.00    +0.053 C 
ATOM     19  C   UNL     1       3.659  -1.860   0.661  0.00  0.00    +0.269 C 
ATOM     20  O   UNL     1       3.604  -0.617  -0.039  0.00  0.00    -0.487 OA
ENDBRANCH   7  18
ENDBRANCH   1   9
BRANCH   4  21
ATOM     21  C   UNL     1       7.432  -6.573   1.576  0.00  0.00    +0.107 C 
BRANCH  21  22
ATOM     22  C   UNL     1       8.457  -5.484   1.905  0.00  0.00    +0.040 C 
BRANCH  22  23
ATOM     23  C   UNL     1       9.794  -6.134   2.263  0.00  0.00    +0.124 C 
BRANCH  23  24
ATOM     24  N   UNL     1      10.775  -5.092   2.578  0.00  0.00    -0.338 N 
ATOM     25  C   UNL     1      11.616  -4.475   1.692  0.00  0.00    +0.104 A 
ATOM     26  C   UNL     1      12.343  -3.588   2.398  0.00  0.00    +0.101 A 
ATOM     27  N   UNL     1      11.956  -3.662   3.680  0.00  0.00    -0.352 N 
ATOM     28  C   UNL     1      11.014  -4.558   3.794  0.00  0.00    +0.173 A 
ATOM     29  H   UNL     1      12.318  -3.131   4.407  0.00  0.00    +0.166 HD
ENDBRANCH  23  24
ENDBRANCH  22  23
ENDBRANCH  21  22
ENDBRANCH   4  21
TORSDOF 6
