REMARK  Name = ZINC12539263
REMARK  9 active torsions:
REMARK  status: ('A' for Active; 'I' for Inactive)
REMARK    1  A    between atoms: C_1  and  C_2
REMARK    2  A    between atoms: C_5  and  C_27
REMARK    3  A    between atoms: C_6  and  N_8
REMARK    4  A    between atoms: C_9  and  C_11
REMARK    5  A    between atoms: C_11  and  C_13
REMARK    6  A    between atoms: C_11  and  S_14
REMARK    7  A    between atoms: S_14  and  C_15
REMARK    8  A    between atoms: C_19  and  C_25
REMARK    9  A    between atoms: C_20  and  C_24
REMARK                            x       y       z     vdW  Elec       q    Type
REMARK                         _______ _______ _______ _____ _____    ______ ____
ROOT
ATOM      1  S   UNL     1      -0.221  -0.037   1.362  0.00  0.00    -0.073 S 
ENDROOT
BRANCH   1   2
ATOM      2  C   UNL     1       0.048   1.700   1.240  0.00  0.00    +0.192 A 
ATOM      3  N   UNL     1       1.291   2.169   1.251  0.00  0.00    -0.207 NA
ATOM      4  C   UNL     1       1.554   3.462   1.162  0.00  0.00    +0.129 A 
ATOM      5  C   UNL     1       0.479   4.386   1.052  0.00  0.00    +0.050 A 
ATOM      6  C   UNL     1       0.508   5.835   0.943  0.00  0.00    -0.028 A 
ATOM      7  C   UNL     1      -0.647   6.508   0.849  0.00  0.00    -0.008 A 
ATOM      8  S   UNL     1      -1.883   5.224   0.900  0.00  0.00    -0.073 S 
ATOM      9  C   UNL     1      -0.813   3.818   1.046  0.00  0.00    +0.115 A 
ATOM     10  N   UNL     1      -0.993   2.514   1.134  0.00  0.00    -0.214 NA
ATOM     11  C   UNL     1      -0.852   7.997   0.729  0.00  0.00    +0.052 C 
ATOM     12  C   UNL     1       1.823   6.572   0.937  0.00  0.00    +0.045 C 
ATOM     13  N   UNL     1       2.862   3.910   1.178  0.00  0.00    -0.343 N 
ATOM     14  H   UNL     1       3.569   3.334   1.509  0.00  0.00    +0.144 HD
ATOM     15  H   UNL     1       3.073   4.801   0.858  0.00  0.00    +0.144 HD
ENDBRANCH   1   2
BRANCH   1  16
ATOM     16  C   UNL     1       1.491  -0.614   1.469  0.00  0.00    +0.137 C 
ATOM     17  C   UNL     1       2.219  -0.299   0.161  0.00  0.00    +0.029 C 
BRANCH  16  19
ATOM     18  N   UNL     1       2.566  -2.678   2.308  0.00  0.00    -0.284 N 
ATOM     19  C   UNL     1       1.506  -2.102   1.707  0.00  0.00    +0.230 C 
ATOM     20  O   UNL     1       0.564  -2.781   1.357  0.00  0.00    -0.274 OA
ATOM     21  H   UNL     1       3.328  -2.137   2.571  0.00  0.00    +0.155 HD
BRANCH  18  27
ATOM     22  C   UNL     1       0.080  -6.887   2.830  0.00  0.00    +0.044 C 
ATOM     23  C   UNL     1       1.377  -6.121   2.812  0.00  0.00    -0.049 A 
ATOM     24  C   UNL     1       2.572  -6.779   3.039  0.00  0.00    +0.004 A 
ATOM     25  C   UNL     1       3.764  -6.080   3.024  0.00  0.00    +0.005 A 
ATOM     26  C   UNL     1       3.766  -4.720   2.782  0.00  0.00    -0.029 A 
ATOM     27  C   UNL     1       2.568  -4.055   2.554  0.00  0.00    +0.037 A 
ATOM     28  C   UNL     1       1.371  -4.760   2.574  0.00  0.00    +0.027 A 
ATOM     29  C   UNL     1       5.066  -3.958   2.767  0.00  0.00    +0.045 C 
ENDBRANCH  18  27
ENDBRANCH  16  19
ENDBRANCH   1  16
TORSDOF 4
