REMARK  Name = ZINC40338334
REMARK  6 active torsions:
REMARK  status: ('A' for Active; 'I' for Inactive)
REMARK    1  A    between atoms: C_1  and  C_2
REMARK    2  A    between atoms: C_5  and  N_21
REMARK    3  A    between atoms: C_6  and  C_20
REMARK    4  A    between atoms: C_7  and  S_8
REMARK    5  A    between atoms: S_8  and  N_11
REMARK    6  A    between atoms: N_14  and  C_17
REMARK                            x       y       z     vdW  Elec       q    Type
REMARK                         _______ _______ _______ _____ _____    ______ ____
ROOT
ATOM      1  S   UNL     1       0.324   0.021   2.772  0.00  0.00    +0.061 S 
ATOM      2  O   UNL     1       1.171  -0.856   3.501  0.00  0.00    -0.153 OA
ATOM      3  O   UNL     1       0.659   1.380   2.531  0.00  0.00    -0.153 OA
ENDROOT
BRANCH   1  10
ATOM      4  C   UNL     1      -0.493   1.543   0.291  0.00  0.00    +0.046 C 
ATOM      5  C   UNL     1      -0.305   0.058   0.116  0.00  0.00    -0.024 A 
ATOM      6  C   UNL     1      -0.500  -0.520  -1.125  0.00  0.00    +0.007 A 
ATOM      7  C   UNL     1      -0.328  -1.881  -1.290  0.00  0.00    +0.023 A 
ATOM      8  C   UNL     1       0.042  -2.668  -0.207  0.00  0.00    +0.029 A 
ATOM      9  C   UNL     1       0.237  -2.084   1.038  0.00  0.00    -0.003 A 
ATOM     10  C   UNL     1       0.069  -0.722   1.194  0.00  0.00    +0.113 A 
ATOM     11  C   UNL     1       0.638  -2.935   2.216  0.00  0.00    +0.048 C 
BRANCH   8  12
ATOM     12  N   UNL     1       0.216  -4.045  -0.369  0.00  0.00    -0.358 N 
ATOM     13  H   UNL     1       0.079  -4.452  -1.239  0.00  0.00    +0.142 HD
ATOM     14  H   UNL     1       0.474  -4.594   0.387  0.00  0.00    +0.142 HD
ENDBRANCH   8  12
ENDBRANCH   1  10
BRANCH   1  15
ATOM     15  N   UNL     1      -1.137   0.025   3.552  0.00  0.00    -0.180 NA
ATOM     16  C   UNL     1      -2.040   1.183   3.460  0.00  0.00    +0.091 C 
ATOM     17  C   UNL     1      -3.434   0.681   3.069  0.00  0.00    -0.061 C 
ATOM     18  N   UNL     1      -3.866  -0.351   4.020  0.00  0.00    +0.383 N 
ATOM     19  C   UNL     1      -2.984  -1.521   3.924  0.00  0.00    -0.061 C 
ATOM     20  C   UNL     1      -1.570  -1.130   4.353  0.00  0.00    +0.091 C 
ATOM     21  H   UNL     1      -3.829   0.020   4.957  0.00  0.00    -0.081 HD
BRANCH  18  22
ATOM     22  C   UNL     1      -5.245  -0.753   3.710  0.00  0.00    -0.069 C 
ATOM     23  C   UNL     1      -6.335  -0.370   4.713  0.00  0.00    -0.017 C 
ATOM     24  C   UNL     1      -5.883  -1.827   4.594  0.00  0.00    -0.017 C 
ENDBRANCH  18  22
ENDBRANCH   1  15
TORSDOF 4
