REMARK  Name = ZINC14457670
REMARK  6 active torsions:
REMARK  status: ('A' for Active; 'I' for Inactive)
REMARK    1  A    between atoms: C_1  and  C_2
REMARK    2  A    between atoms: C_4  and  C_29
REMARK    3  A    between atoms: C_5  and  C_9
REMARK    4  A    between atoms: C_6  and  C_8
REMARK    5  A    between atoms: C_20  and  S_25
REMARK    6  A    between atoms: S_25  and  N_28
REMARK                            x       y       z     vdW  Elec       q    Type
REMARK                         _______ _______ _______ _____ _____    ______ ____
ROOT
ATOM      1  C   UNL     1       4.376   0.650   0.113  0.00  0.00    +0.105 C 
ATOM      2  C   UNL     1       3.689  -0.700   0.019  0.00  0.00    +0.029 C 
ATOM      3  C   UNL     1       4.546  -1.942   0.298  0.00  0.00    +0.033 C 
ATOM      4  C   UNL     1       3.504  -2.918   0.849  0.00  0.00    -0.030 C 
ATOM      5  C   UNL     1       2.494  -2.247   1.388  0.00  0.00    -0.023 C 
ATOM      6  C   UNL     1       2.779  -0.793   1.281  0.00  0.00    +0.049 C 
ATOM      7  C   UNL     1       1.700   0.208   1.137  0.00  0.00    -0.018 A 
ATOM      8  C   UNL     1       0.422  -0.009   1.605  0.00  0.00    +0.034 A 
ATOM      9  C   UNL     1      -0.543   0.972   1.476  0.00  0.00    +0.105 A 
ATOM     10  C   UNL     1      -0.229   2.177   0.874  0.00  0.00    +0.030 A 
ATOM     11  C   UNL     1       1.046   2.401   0.396  0.00  0.00    +0.025 A 
ATOM     12  C   UNL     1       2.022   1.419   0.514  0.00  0.00    +0.031 A 
ATOM     13  N   UNL     1       3.299   1.656  -0.010  0.00  0.00    -0.336 N 
ATOM     14  H   UNL     1       3.480   2.495  -0.462  0.00  0.00    +0.147 HD
ENDROOT
BRANCH   1  19
ATOM     15  C   UNL     1       7.041   1.194   5.212  0.00  0.00    +0.044 C 
ATOM     16  C   UNL     1       6.347   1.053   3.882  0.00  0.00    -0.050 A 
ATOM     17  C   UNL     1       6.911   0.277   2.887  0.00  0.00    +0.007 A 
ATOM     18  C   UNL     1       6.273   0.147   1.667  0.00  0.00    -0.045 A 
ATOM     19  C   UNL     1       5.071   0.792   1.443  0.00  0.00    -0.021 A 
ATOM     20  C   UNL     1       4.510   1.572   2.437  0.00  0.00    -0.045 A 
ATOM     21  C   UNL     1       5.145   1.699   3.658  0.00  0.00    +0.007 A 
ATOM     22  C   UNL     1       3.203   2.280   2.190  0.00  0.00    +0.044 C 
ATOM     23  C   UNL     1       6.888  -0.699   0.582  0.00  0.00    +0.044 C 
ENDBRANCH   1  19
BRANCH   9  24
ATOM     24  S   UNL     1      -2.175   0.687   2.078  0.00  0.00    +0.056 S 
ATOM     25  O   UNL     1      -2.068  -0.309   3.086  0.00  0.00    -0.153 OA
ATOM     26  O   UNL     1      -2.745   1.965   2.326  0.00  0.00    -0.153 OA
BRANCH  24  27
ATOM     27  N   UNL     1      -3.043   0.014   0.838  0.00  0.00    -0.204 NA
ATOM     28  H   UNL     1      -3.770  -0.598   1.032  0.00  0.00    +0.144 HD
ATOM     29  H   UNL     1      -2.825   0.233  -0.081  0.00  0.00    +0.144 HD
ENDBRANCH  24  27
ENDBRANCH   9  24
TORSDOF 3
