REMARK  Name = ZINC59435181
REMARK  11 active torsions:
REMARK  status: ('A' for Active; 'I' for Inactive)
REMARK    1  A    between atoms: C_1  and  C_2
REMARK    2  A    between atoms: C_2  and  C_3
REMARK    3  A    between atoms: C_3  and  C_5
REMARK    4  A    between atoms: C_3  and  N_6
REMARK    5  A    between atoms: N_6  and  C_7
REMARK    6  A    between atoms: C_7  and  C_8
REMARK    7  A    between atoms: C_14  and  S_16
REMARK    8  A    between atoms: S_16  and  C_17
REMARK    9  A    between atoms: C_17  and  C_18
REMARK   10  A    between atoms: N_20  and  C_21
REMARK   11  A    between atoms: C_24  and  C_27
REMARK                            x       y       z     vdW  Elec       q    Type
REMARK                         _______ _______ _______ _____ _____    ______ ____
ROOT
ATOM      1  C   UNL     1      -4.151  -0.220   2.552  0.00  0.00    +0.202 C 
ATOM      2  O   UNL     1      -3.512   0.331   3.423  0.00  0.00    -0.278 OA
ATOM      3  N   UNL     1      -5.458  -0.485   2.740  0.00  0.00    -0.265 N 
ATOM      4  C   UNL     1      -6.077  -0.125   3.936  0.00  0.00    +0.188 A 
ATOM      5  N   UNL     1      -5.579   0.480   5.002  0.00  0.00    -0.125 NA
ATOM      6  N   UNL     1      -6.285   0.736   6.015  0.00  0.00    -0.133 NA
ATOM      7  C   UNL     1      -7.568   0.414   6.075  0.00  0.00    +0.160 A 
ATOM      8  S   UNL     1      -7.773  -0.344   4.465  0.00  0.00    -0.024 S 
ATOM      9  H   UNL     1      -5.970  -0.925   2.044  0.00  0.00    +0.157 HD
ENDROOT
BRANCH   1  10
ATOM     10  C   UNL     1      -3.482  -0.609   1.259  0.00  0.00    +0.016 C 
BRANCH  10  11
ATOM     11  N   UNL     1      -2.067  -0.215   1.301  0.00  0.00    +0.386 N 
ATOM     12  H   UNL     1      -1.611  -0.682   2.070  0.00  0.00    -0.085 HD
ATOM     13  H   UNL     1      -2.000   0.784   1.427  0.00  0.00    -0.085 HD
BRANCH  11  14
ATOM     14  C   UNL     1      -1.415  -0.594   0.040  0.00  0.00    -0.075 C 
ATOM     15  C   UNL     1      -1.407  -2.118  -0.092  0.00  0.00    -0.014 C 
BRANCH  14  17
ATOM     16  C   UNL     1       0.012   1.457   0.039  0.00  0.00    +0.002 C 
ATOM     17  C   UNL     1       0.023  -0.073   0.033  0.00  0.00    -0.019 C 
ENDBRANCH  14  17
ENDBRANCH  11  14
ENDBRANCH  10  11
ENDBRANCH   1  10
BRANCH   7  18
ATOM     18  S   UNL     1      -8.741   0.664   7.366  0.00  0.00    -0.088 S 
BRANCH  18  19
ATOM     19  C   UNL     1      -7.789   1.497   8.667  0.00  0.00    +0.172 C 
BRANCH  19  20
ATOM     20  C   UNL     1      -8.686   1.773   9.847  0.00  0.00    +0.227 C 
ATOM     21  O   UNL     1      -9.852   1.441   9.813  0.00  0.00    -0.275 OA
ATOM     22  N   UNL     1      -8.192   2.389  10.939  0.00  0.00    -0.285 N 
ATOM     23  H   UNL     1      -7.245   2.594  10.994  0.00  0.00    +0.155 HD
BRANCH  22  24
ATOM     24  C   UNL     1      -9.044   2.732  11.994  0.00  0.00    +0.033 A 
ATOM     25  C   UNL     1      -8.826   3.900  12.713  0.00  0.00    +0.023 A 
ATOM     26  C   UNL     1      -9.669   4.236  13.754  0.00  0.00    +0.005 A 
ATOM     27  C   UNL     1     -10.730   3.411  14.080  0.00  0.00    -0.050 A 
ATOM     28  C   UNL     1     -10.950   2.248  13.366  0.00  0.00    +0.005 A 
ATOM     29  C   UNL     1     -10.114   1.909  12.320  0.00  0.00    +0.023 A 
ATOM     30  C   UNL     1     -11.648   3.781  15.217  0.00  0.00    +0.044 C 
ENDBRANCH  22  24
ENDBRANCH  19  20
ENDBRANCH  18  19
ENDBRANCH   7  18
TORSDOF 8
