REMARK  Name = ZINC24226406
REMARK  7 active torsions:
REMARK  status: ('A' for Active; 'I' for Inactive)
REMARK    1  A    between atoms: C_1  and  O_2
REMARK    2  A    between atoms: O_2  and  C_3
REMARK    3  A    between atoms: C_4  and  S_11
REMARK    4  A    between atoms: S_11  and  N_14
REMARK    5  A    between atoms: N_14  and  C_15
REMARK    6  A    between atoms: C_19  and  S_21
REMARK    7  A    between atoms: S_21  and  N_24
REMARK                            x       y       z     vdW  Elec       q    Type
REMARK                         _______ _______ _______ _____ _____    ______ ____
ROOT
ATOM      1  S   UNL     1       2.893  -0.485  -0.481  0.00  0.00    +0.095 S 
ATOM      2  O   UNL     1       2.581   0.870  -0.774  0.00  0.00    -0.148 OA
ATOM      3  O   UNL     1       4.224  -0.931  -0.266  0.00  0.00    -0.148 OA
ENDROOT
BRANCH   1   5
ATOM      4  C   UNL     1       0.626  -0.619   1.042  0.00  0.00    +0.161 A 
ATOM      5  C   UNL     1       1.980  -0.910   0.965  0.00  0.00    +0.154 A 
ATOM      6  C   UNL     1       2.612  -1.534   2.023  0.00  0.00    +0.052 A 
ATOM      7  C   UNL     1       1.896  -1.869   3.159  0.00  0.00    +0.044 A 
ATOM      8  C   UNL     1       0.546  -1.580   3.238  0.00  0.00    +0.039 A 
ATOM      9  C   UNL     1      -0.090  -0.950   2.184  0.00  0.00    +0.063 A 
ATOM     10 BR   UNL     1      -1.934  -0.548   2.295  0.00  0.00    -0.046 Br
ATOM     11 CL   UNL     1       2.694  -2.654   4.486  0.00  0.00    -0.083 Cl
BRANCH   4  13
ATOM     12  C   UNL     1      -0.017   1.425   0.010  0.00  0.00    +0.277 C 
ATOM     13  O   UNL     1       0.002  -0.004   0.002  0.00  0.00    -0.492 OA
ENDBRANCH   4  13
ENDBRANCH   1   5
BRANCH   1  14
ATOM     14  N   UNL     1       2.285  -1.390  -1.727  0.00  0.00    -0.098 NA
BRANCH  14  15
ATOM     15  C   UNL     1       2.822  -1.262  -3.010  0.00  0.00    +0.076 A 
ATOM     16  C   UNL     1       3.870  -0.379  -3.241  0.00  0.00    +0.027 A 
ATOM     17  C   UNL     1       4.398  -0.255  -4.511  0.00  0.00    +0.004 A 
ATOM     18  C   UNL     1       3.886  -1.008  -5.552  0.00  0.00    +0.028 A 
ATOM     19  C   UNL     1       2.843  -1.887  -5.325  0.00  0.00    +0.107 A 
ATOM     20  C   UNL     1       2.313  -2.021  -4.057  0.00  0.00    +0.055 A 
BRANCH  19  21
ATOM     21  S   UNL     1       2.193  -2.843  -6.655  0.00  0.00    +0.056 S 
ATOM     22  O   UNL     1       0.862  -3.188  -6.295  0.00  0.00    -0.153 OA
ATOM     23  O   UNL     1       2.501  -2.139  -7.850  0.00  0.00    -0.153 OA
BRANCH  21  24
ATOM     24  N   UNL     1       3.051  -4.259  -6.706  0.00  0.00    -0.204 NA
ATOM     25  H   UNL     1       2.629  -5.071  -7.026  0.00  0.00    +0.144 HD
ATOM     26  H   UNL     1       3.976  -4.276  -6.415  0.00  0.00    +0.144 HD
ENDBRANCH  21  24
ENDBRANCH  19  21
ENDBRANCH  14  15
ENDBRANCH   1  14
TORSDOF 6
