REMARK  Name = ZINC58678190
REMARK  7 active torsions:
REMARK  status: ('A' for Active; 'I' for Inactive)
REMARK    1  A    between atoms: C_1  and  C_2
REMARK    2  A    between atoms: C_5  and  C_23
REMARK    3  A    between atoms: C_6  and  C_8
REMARK    4  A    between atoms: C_8  and  C_10
REMARK    5  A    between atoms: C_8  and  N_11
REMARK    6  A    between atoms: N_14  and  C_15
REMARK    7  A    between atoms: C_18  and  C_21
REMARK                            x       y       z     vdW  Elec       q    Type
REMARK                         _______ _______ _______ _____ _____    ______ ____
ROOT
ATOM      1  N   UNL     1      -0.530  -2.017   3.547  0.00  0.00    -0.293 N 
ATOM      2  C   UNL     1      -1.091  -2.601   4.625  0.00  0.00    +0.304 C 
ATOM      3  O   UNL     1      -1.110  -3.813   4.720  0.00  0.00    -0.252 OA
ATOM      4  N   UNL     1      -1.631  -1.840   5.599  0.00  0.00    -0.269 N 
ATOM      5  H   UNL     1      -0.515  -1.050   3.472  0.00  0.00    +0.151 HD
ATOM      6  H   UNL     1      -1.557  -0.874   5.556  0.00  0.00    +0.156 HD
ENDROOT
BRANCH   4   7
ATOM      7  C   UNL     1      -2.296  -2.443   6.667  0.00  0.00    +0.035 A 
ATOM      8  C   UNL     1      -1.843  -3.658   7.170  0.00  0.00    +0.024 A 
ATOM      9  C   UNL     1      -2.496  -4.256   8.224  0.00  0.00    +0.020 A 
ATOM     10  C   UNL     1      -3.616  -3.640   8.789  0.00  0.00    +0.052 A 
ATOM     11  C   UNL     1      -4.069  -2.419   8.282  0.00  0.00    +0.020 A 
ATOM     12  C   UNL     1      -3.407  -1.825   7.231  0.00  0.00    +0.024 A 
BRANCH  10  13
ATOM     13  C   UNL     1      -4.299  -4.259   9.885  0.00  0.00    +0.099 C 
ATOM     14  N   UNL     1      -4.840  -4.750  10.755  0.00  0.00    -0.191 NA
ENDBRANCH  10  13
ENDBRANCH   4   7
BRANCH   1  15
ATOM     15  C   UNL     1       0.057  -2.844   2.490  0.00  0.00    +0.102 C 
ATOM     16  C   UNL     1       1.497  -3.202   2.862  0.00  0.00    +0.033 C 
BRANCH  15  22
ATOM     17  C   UNL     1       0.021   1.513   0.028  0.00  0.00    +0.044 C 
ATOM     18  C   UNL     1       0.031   0.006   0.014  0.00  0.00    -0.050 A 
ATOM     19  C   UNL     1       0.034  -0.674  -1.190  0.00  0.00    +0.003 A 
ATOM     20  C   UNL     1       0.043  -2.056  -1.202  0.00  0.00    +0.004 A 
ATOM     21  C   UNL     1       0.051  -2.758  -0.012  0.00  0.00    -0.046 A 
ATOM     22  C   UNL     1       0.049  -2.078   1.192  0.00  0.00    -0.024 A 
ATOM     23  C   UNL     1       0.044  -0.696   1.204  0.00  0.00    +0.009 A 
ATOM     24  C   UNL     1       0.060  -4.265  -0.025  0.00  0.00    +0.044 C 
ENDBRANCH  15  22
ENDBRANCH   1  15
TORSDOF 4
