REMARK  Name = ZINC16589166
REMARK  10 active torsions:
REMARK  status: ('A' for Active; 'I' for Inactive)
REMARK    1  A    between atoms: C_1  and  C_2
REMARK    2  A    between atoms: C_2  and  N_3
REMARK    3  A    between atoms: C_7  and  C_9
REMARK    4  A    between atoms: C_9  and  C_11
REMARK    5  A    between atoms: C_9  and  N_57
REMARK    6  A    between atoms: C_12  and  N_57
REMARK    7  A    between atoms: C_13  and  C_14
REMARK    8  A    between atoms: C_13  and  N_57
REMARK    9  A    between atoms: N_16  and  C_17
REMARK   10  A    between atoms: C_20  and  N_23
REMARK                            x       y       z     vdW  Elec       q    Type
REMARK                         _______ _______ _______ _____ _____    ______ ____
ROOT
ATOM      1  C   UNL     1      -0.220   1.532  -0.084  0.00  0.00    +0.020 C 
ENDROOT
BRANCH   1   2
ATOM      2  C   UNL     1      -1.178   1.942   1.005  0.00  0.00    +0.201 C 
ATOM      3  O   UNL     1      -1.579   1.119   1.801  0.00  0.00    -0.278 OA
ATOM      4  N   UNL     1      -1.588   3.222   1.095  0.00  0.00    -0.287 N 
ATOM      5  H   UNL     1      -1.211   3.895   0.506  0.00  0.00    +0.155 HD
BRANCH   4   6
ATOM      6  C   UNL     1      -2.560   3.582   2.038  0.00  0.00    +0.033 A 
ATOM      7  C   UNL     1      -3.572   2.690   2.367  0.00  0.00    +0.025 A 
ATOM      8  C   UNL     1      -4.527   3.043   3.300  0.00  0.00    +0.025 A 
ATOM      9  C   UNL     1      -4.480   4.293   3.902  0.00  0.00    +0.030 A 
ATOM     10  C   UNL     1      -3.471   5.188   3.569  0.00  0.00    +0.025 A 
ATOM     11  C   UNL     1      -2.514   4.833   2.640  0.00  0.00    +0.025 A 
BRANCH   9  12
ATOM     12  N   UNL     1      -5.450   4.653   4.845  0.00  0.00    -0.326 N 
ATOM     13  C   UNL     1      -4.828   5.039   6.119  0.00  0.00    +0.133 C 
ATOM     14  C   UNL     1      -5.918   5.481   7.099  0.00  0.00    +0.178 C 
ATOM     15  O   UNL     1      -6.867   4.422   7.259  0.00  0.00    -0.377 OA
ATOM     16  C   UNL     1      -7.492   4.020   6.037  0.00  0.00    +0.178 C 
ATOM     17  C   UNL     1      -6.418   3.564   5.046  0.00  0.00    +0.133 C 
ENDBRANCH   9  12
ENDBRANCH   4   6
ENDBRANCH   1   2
BRANCH   1  19
ATOM     18  C   UNL     1       0.805  -0.192   1.273  0.00  0.00    -0.094 C 
ATOM     19  N   UNL     1       0.045   0.083   0.035  0.00  0.00    +0.391 N 
ATOM     20  H   UNL     1      -0.850  -0.418   0.075  0.00  0.00    -0.080 HD
BRANCH  19  21
ATOM     21  C   UNL     1       0.807  -0.390  -1.141  0.00  0.00    +0.017 C 
ATOM     22  C   UNL     1       1.982   0.547  -1.429  0.00  0.00    -0.004 C 
BRANCH  21  27
ATOM     23  N   UNL     1      -0.128  -1.605  -5.697  0.00  0.00    -0.299 N 
ATOM     24  C   UNL     1      -0.533  -1.028  -4.548  0.00  0.00    +0.306 C 
ATOM     25  O   UNL     1      -1.641  -0.534  -4.474  0.00  0.00    -0.252 OA
ATOM     26  N   UNL     1       0.291  -0.999  -3.482  0.00  0.00    -0.242 N 
ATOM     27  C   UNL     1      -0.114  -0.422  -2.333  0.00  0.00    +0.207 C 
ATOM     28  O   UNL     1      -1.219   0.071  -2.259  0.00  0.00    -0.277 OA
ATOM     29  H   UNL     1       0.756  -1.999  -5.756  0.00  0.00    +0.150 HD
ATOM     30  H   UNL     1       1.175  -1.393  -3.541  0.00  0.00    +0.159 HD
BRANCH  23  32
ATOM     31  C   UNL     1      -0.325  -2.343  -8.020  0.00  0.00    +0.024 C 
ATOM     32  C   UNL     1      -1.023  -1.637  -6.856  0.00  0.00    +0.102 C 
ENDBRANCH  23  32
ENDBRANCH  21  27
ENDBRANCH  19  21
ENDBRANCH   1  19
TORSDOF 7
