REMARK  Name = ZINC22049612
REMARK  2 active torsions:
REMARK  status: ('A' for Active; 'I' for Inactive)
REMARK    1  A    between atoms: C_1  and  C_14
REMARK    2  A    between atoms: C_4  and  N_9
REMARK                            x       y       z     vdW  Elec       q    Type
REMARK                         _______ _______ _______ _____ _____    ______ ____
ROOT
ATOM      1  C   UNL     1       1.193   2.056   0.002  0.00  0.00    +0.112 A 
ATOM      2  C   UNL     1       1.222   3.457   0.009  0.00  0.00    +0.176 A 
ATOM      3  C   UNL     1       0.065   4.180   0.024  0.00  0.00    +0.190 A 
ATOM      4  C   UNL     1      -1.220   3.472   0.032  0.00  0.00    +0.176 A 
ATOM      5  C   UNL     1      -1.212   2.005   0.019  0.00  0.00    +0.190 A 
ATOM      6  C   UNL     1      -0.016   1.347   0.009  0.00  0.00    +0.176 A 
ATOM      7  F   UNL     1       0.002  -0.004   0.002  0.00  0.00    -0.202 F 
ATOM      8  F   UNL     1      -2.373   1.314   0.021  0.00  0.00    -0.200 F 
ATOM      9  F   UNL     1       0.102   5.531   0.030  0.00  0.00    -0.200 F 
ATOM     10  F   UNL     1       2.411   4.099   0.002  0.00  0.00    -0.202 F 
ENDROOT
BRANCH   1  11
ATOM     11  C   UNL     1       2.464   1.310  -0.014  0.00  0.00    +0.247 C 
ATOM     12  O   UNL     1       2.978   1.007  -1.074  0.00  0.00    -0.270 OA
ATOM     13  N   UNL     1       3.056   0.962   1.145  0.00  0.00    -0.325 N 
ATOM     14  H   UNL     1       4.005   0.405   1.133  0.00  0.00    +0.145 HD
ATOM     15  H   UNL     1       2.591   1.235   2.104  0.00  0.00    +0.145 HD
ENDBRANCH   1  11
BRANCH   4  16
ATOM     16  N   UNL     1      -2.360   4.141   0.046  0.00  0.00    -0.066 NA
ATOM     17  N   UNL     1      -3.337   3.586   0.052  0.00  0.00    -0.161 NA
ATOM     18  N   UNL     1      -4.315   3.031   0.058  0.00  0.00    +0.068 NA
ENDBRANCH   4  16
TORSDOF 2
