REMARK  Name = ZINC58295961
REMARK  10 active torsions:
REMARK  status: ('A' for Active; 'I' for Inactive)
REMARK    1  A    between atoms: C_1  and  C_2
REMARK    2  A    between atoms: C_2  and  C_3
REMARK    3  A    between atoms: C_3  and  N_4
REMARK    4  A    between atoms: N_7  and  C_8
REMARK    5  A    between atoms: C_8  and  C_9
REMARK    6  A    between atoms: C_8  and  C_10
REMARK    7  A    between atoms: C_8  and  C_11
REMARK    8  A    between atoms: N_13  and  C_14
REMARK    9  A    between atoms: C_14  and  C_15
REMARK   10  A    between atoms: C_25  and  C_27
REMARK                            x       y       z     vdW  Elec       q    Type
REMARK                         _______ _______ _______ _____ _____    ______ ____
ROOT
ATOM      1  C   UNL     1      -3.500  -6.263   0.028  0.00  0.00    +0.236 C 
ATOM      2  O   UNL     1      -4.229  -7.032   0.619  0.00  0.00    -0.273 OA
ATOM      3  N   UNL     1      -2.439  -6.732  -0.658  0.00  0.00    -0.309 N 
ATOM      4  H   UNL     1      -1.857  -6.117  -1.131  0.00  0.00    +0.149 HD
ENDROOT
BRANCH   1   5
ATOM      5  C   UNL     1      -3.781  -4.783   0.062  0.00  0.00    +0.106 C 
ATOM      6  C   UNL     1      -4.577  -4.443   1.323  0.00  0.00    +0.041 C 
ATOM      7  C   UNL     1      -4.593  -4.390  -1.175  0.00  0.00    +0.041 C 
BRANCH   5  11
ATOM      8  N   UNL     1      -1.356  -2.020   0.105  0.00  0.00    -0.299 N 
ATOM      9  C   UNL     1      -2.521  -2.698   0.098  0.00  0.00    +0.300 C 
ATOM     10  O   UNL     1      -3.576  -2.095   0.118  0.00  0.00    -0.253 OA
ATOM     11  N   UNL     1      -2.515  -4.046   0.069  0.00  0.00    -0.286 N 
ATOM     12  H   UNL     1      -0.514  -2.501   0.090  0.00  0.00    +0.150 HD
ATOM     13  H   UNL     1      -1.674  -4.527   0.054  0.00  0.00    +0.151 HD
BRANCH   8  14
ATOM     14  C   UNL     1      -1.362  -0.555   0.137  0.00  0.00    +0.105 C 
BRANCH  14  16
ATOM     15  C   UNL     1       0.072   1.490   0.171  0.00  0.00    +0.005 C 
ATOM     16  C   UNL     1       0.079  -0.039   0.139  0.00  0.00    +0.015 C 
ENDBRANCH  14  16
ENDBRANCH   8  14
ENDBRANCH   5  11
ENDBRANCH   1   5
BRANCH   3  17
ATOM     17  C   UNL     1      -2.166  -8.171  -0.690  0.00  0.00    +0.141 C 
BRANCH  17  18
ATOM     18  C   UNL     1      -0.934  -8.430  -1.519  0.00  0.00    -0.014 A 
ATOM     19  C   UNL     1      -1.042  -8.652  -2.885  0.00  0.00    +0.010 A 
ATOM     20  C   UNL     1       0.114  -8.886  -3.609  0.00  0.00    +0.042 A 
ATOM     21  C   UNL     1       1.337  -8.890  -2.947  0.00  0.00    +0.099 A 
ATOM     22  N   UNL     1       1.398  -8.674  -1.642  0.00  0.00    -0.349 N 
ATOM     23  C   UNL     1       0.313  -8.443  -0.928  0.00  0.00    +0.089 A 
ATOM     24  N   UNL     1       2.506  -9.124  -3.662  0.00  0.00    -0.312 N 
ATOM     25  C   UNL     1       3.824  -9.011  -3.017  0.00  0.00    +0.134 C 
ATOM     26  C   UNL     1       4.622 -10.284  -3.320  0.00  0.00    +0.179 C 
ATOM     27  O   UNL     1       4.623 -10.514  -4.731  0.00  0.00    -0.374 OA
ATOM     28  C   UNL     1       3.327 -10.743  -5.288  0.00  0.00    +0.132 C 
ATOM     29  C   UNL     1       2.462  -9.499  -5.084  0.00  0.00    +0.137 C 
ATOM     30  C   UNL     1       3.458 -11.037  -6.784  0.00  0.00    +0.039 C 
ATOM     31  H   UNL     1       2.262  -8.682  -1.201  0.00  0.00    +0.167 HD
ENDBRANCH  17  18
ENDBRANCH   3  17
TORSDOF 6
