REMARK  Name = ZINC12329708
REMARK  8 active torsions:
REMARK  status: ('A' for Active; 'I' for Inactive)
REMARK    1  A    between atoms: C_1  and  C_2
REMARK    2  A    between atoms: C_11  and  C_12
REMARK    3  A    between atoms: C_12  and  C_14
REMARK    4  A    between atoms: C_12  and  O_33
REMARK    5  A    between atoms: C_14  and  N_61
REMARK    6  A    between atoms: C_21  and  O_32
REMARK    7  A    between atoms: C_26  and  O_30
REMARK    8  A    between atoms: O_30  and  C_31
REMARK                            x       y       z     vdW  Elec       q    Type
REMARK                         _______ _______ _______ _____ _____    ______ ____
ROOT
ATOM      1  C   UNL     1      -4.800   0.385  -0.746  0.00  0.00    -0.075 C 
ATOM      2  C   UNL     1      -6.316   0.216  -0.629  0.00  0.00    +0.029 C 
ATOM      3  C   UNL     1      -6.939   0.251  -2.026  0.00  0.00    +0.110 C 
ATOM      4  C   UNL     1      -6.566   1.564  -2.717  0.00  0.00    +0.029 C 
ATOM      5  C   UNL     1      -5.042   1.692  -2.772  0.00  0.00    -0.075 C 
ATOM      6  C   UNL     1      -8.463   0.148  -1.910  0.00  0.00    +0.084 C 
ATOM      7  C   UNL     1      -8.800  -1.118  -1.118  0.00  0.00    +0.152 C 
ATOM      8  C   UNL     1      -8.021  -2.285  -1.670  0.00  0.00    +0.023 A 
ATOM      9  C   UNL     1      -8.441  -3.569  -1.365  0.00  0.00    +0.013 A 
ATOM     10  C   UNL     1      -7.752  -4.662  -1.849  0.00  0.00    +0.046 A 
ATOM     11  C   UNL     1      -6.630  -4.477  -2.646  0.00  0.00    +0.124 A 
ATOM     12  C   UNL     1      -6.208  -3.195  -2.952  0.00  0.00    +0.091 A 
ATOM     13  C   UNL     1      -6.904  -2.094  -2.465  0.00  0.00    +0.130 A 
ATOM     14  O   UNL     1      -6.464  -0.852  -2.796  0.00  0.00    -0.485 OA
ATOM     15  N   UNL     1      -4.510   1.682  -1.393  0.00  0.00    +0.382 N 
ATOM     16  H   UNL     1      -4.963   2.431  -0.856  0.00  0.00    -0.082 HD
ENDROOT
BRANCH  11  17
ATOM     17  O   UNL     1      -5.949  -5.552  -3.123  0.00  0.00    -0.495 OA
ATOM     18  C   UNL     1      -6.443  -6.844  -2.766  0.00  0.00    +0.277 C 
ENDBRANCH  11  17
BRANCH   7  19
ATOM     19  O   UNL     1     -10.200  -1.387  -1.225  0.00  0.00    -0.387 OA
ATOM     20  H   UNL     1     -10.486  -2.178  -0.747  0.00  0.00    +0.210 HD
ENDBRANCH   7  19
BRANCH  15  21
ATOM     21  C   UNL     1      -3.052   1.921  -1.413  0.00  0.00    -0.042 C 
BRANCH  21  22
ATOM     22  C   UNL     1      -2.567   2.128   0.024  0.00  0.00    +0.130 C 
BRANCH  22  33
ATOM     23  C   UNL     1       3.700  -0.712  -0.037  0.00  0.00    +0.044 C 
ATOM     24  C   UNL     1       2.393   0.038  -0.021  0.00  0.00    -0.048 A 
ATOM     25  C   UNL     1       1.197  -0.666  -0.013  0.00  0.00    +0.004 A 
ATOM     26  C   UNL     1       0.002  -0.004   0.002  0.00  0.00    +0.010 A 
ATOM     27  C   UNL     1      -0.017   1.392   0.010  0.00  0.00    +0.005 A 
ATOM     28  C   UNL     1       1.192   2.111   0.002  0.00  0.00    +0.047 A 
ATOM     29  C   UNL     1       2.398   1.416  -0.013  0.00  0.00    +0.029 A 
ATOM     30  N   UNL     1       0.870   3.449   0.012  0.00  0.00    -0.360 N 
ATOM     31  H   UNL     1       1.511   4.177   0.009  0.00  0.00    +0.165 HD
ATOM     32  C   UNL     1      -0.490   3.600   0.025  0.00  0.00    +0.089 A 
ATOM     33  C   UNL     1      -1.084   2.396   0.019  0.00  0.00    +0.004 A 
ENDBRANCH  22  33
BRANCH  22  34
ATOM     34  O   UNL     1      -3.251   3.241   0.602  0.00  0.00    -0.389 OA
ATOM     35  H   UNL     1      -3.113   4.075   0.132  0.00  0.00    +0.210 HD
ENDBRANCH  22  34
ENDBRANCH  21  22
ENDBRANCH  15  21
TORSDOF 6
