REMARK  Name = ZINC19485744
REMARK  3 active torsions:
REMARK  status: ('A' for Active; 'I' for Inactive)
REMARK    1  A    between atoms: C_4  and  C_7
REMARK    2  A    between atoms: C_4  and  N_18
REMARK    3  A    between atoms: N_9  and  C_10
REMARK                            x       y       z     vdW  Elec       q    Type
REMARK                         _______ _______ _______ _____ _____    ______ ____
ROOT
ATOM      1  C   UNL     1      -1.784   0.885  -1.653  0.00  0.00    +0.202 C 
ATOM      2  O   UNL     1      -2.314   0.913  -0.562  0.00  0.00    -0.277 OA
ATOM      3  N   UNL     1      -0.533   0.403  -1.782  0.00  0.00    -0.312 N 
ATOM      4  H   UNL     1      -0.052   0.379  -2.772  0.00  0.00    +0.149 HD
ENDROOT
BRANCH   3   5
ATOM      5  C   UNL     1       0.189  -0.088  -0.606  0.00  0.00    +0.095 C 
ATOM      6  C   UNL     1       0.905   1.081   0.090  0.00  0.00    +0.046 C 
ATOM      7  C   UNL     1       1.916   0.538   1.128  0.00  0.00    +0.168 C 
ATOM      8  S   UNL     1       2.372  -1.100   0.429  0.00  0.00    -0.029 S 
ATOM      9  O   UNL     1       1.963  -2.119   1.332  0.00  0.00    -0.174 OA
ATOM     10  O   UNL     1       3.723  -1.056  -0.010  0.00  0.00    -0.174 OA
ATOM     11  C   UNL     1       1.264  -1.123  -1.043  0.00  0.00    +0.188 C 
ENDBRANCH   3   5
BRANCH   1  15
ATOM     12  C   UNL     1      -5.203   0.346  -2.294  0.00  0.00    -0.000 C 
ATOM     13  C   UNL     1      -4.065  -0.574  -2.741  0.00  0.00    -0.001 C 
ATOM     14  C   UNL     1      -3.103   0.206  -3.640  0.00  0.00    -0.004 C 
ATOM     15  C   UNL     1      -2.526   1.391  -2.863  0.00  0.00    +0.007 C 
ATOM     16  C   UNL     1      -3.665   2.311  -2.417  0.00  0.00    -0.004 C 
ATOM     17  C   UNL     1      -4.627   1.532  -1.517  0.00  0.00    -0.001 C 
BRANCH  15  18
ATOM     18  N   UNL     1      -1.603   2.139  -3.727  0.00  0.00    +0.388 N 
ATOM     19  H   UNL     1      -1.188   2.991  -3.168  0.00  0.00    -0.089 HD
ATOM     20  H   UNL     1      -2.144   2.508  -4.610  0.00  0.00    -0.089 HD
ATOM     21  H   UNL     1      -0.784   1.478  -4.048  0.00  0.00    -0.089 HD
ENDBRANCH  15  18
ENDBRANCH   1  15
TORSDOF 3
