REMARK  Name = ZINC13202368
REMARK  9 active torsions:
REMARK  status: ('A' for Active; 'I' for Inactive)
REMARK    1  A    between atoms: C_1  and  C_2
REMARK    2  A    between atoms: C_2  and  N_3
REMARK    3  A    between atoms: C_9  and  C_33
REMARK    4  A    between atoms: C_13  and  S_14
REMARK    5  A    between atoms: S_14  and  C_15
REMARK    6  A    between atoms: C_15  and  C_16
REMARK    7  A    between atoms: N_21  and  C_22
REMARK    8  A    between atoms: C_27  and  C_32
REMARK    9  A    between atoms: C_29  and  C_31
REMARK                            x       y       z     vdW  Elec       q    Type
REMARK                         _______ _______ _______ _____ _____    ______ ____
ROOT
ATOM      1  S   UNL     1      -7.530   0.958   0.045  0.00  0.00    -0.078 S 
ENDROOT
BRANCH   1  12
ATOM      2  N   UNL     1      -6.123   3.257   0.051  0.00  0.00    -0.288 N 
ATOM      3  C   UNL     1      -5.003   4.016   0.049  0.00  0.00    +0.262 A 
ATOM      4  O   UNL     1      -5.066   5.232   0.056  0.00  0.00    -0.267 OA
ATOM      5  C   UNL     1      -3.708   3.319   0.039  0.00  0.00    +0.065 A 
ATOM      6  C   UNL     1      -2.500   4.017   0.036  0.00  0.00    +0.016 A 
ATOM      7  C   UNL     1      -1.319   3.333   0.032  0.00  0.00    +0.016 A 
ATOM      8  C   UNL     1      -1.306   1.933   0.019  0.00  0.00    +0.065 A 
ATOM      9  C   UNL     1      -2.496   1.217   0.021  0.00  0.00    +0.043 A 
ATOM     10  C   UNL     1      -3.712   1.906   0.030  0.00  0.00    +0.080 A 
ATOM     11  N   UNL     1      -4.896   1.250   0.033  0.00  0.00    -0.223 NA
ATOM     12  C   UNL     1      -6.037   1.894   0.043  0.00  0.00    +0.173 A 
BRANCH   8  13
ATOM     13  C   UNL     1      -0.014   1.210   0.009  0.00  0.00    +0.387 C 
ATOM     14  O   UNL     1       0.002  -0.004   0.002  0.00  0.00    -0.241 OA
ATOM     15  O   UNL     1       1.143   1.899   0.001  0.00  0.00    -0.241 OA
ENDBRANCH   8  13
BRANCH   2  17
ATOM     16  C   UNL     1      -7.890   4.119   1.506  0.00  0.00    +0.027 C 
ATOM     17  C   UNL     1      -7.439   3.902   0.060  0.00  0.00    +0.124 C 
ENDBRANCH   2  17
ENDBRANCH   1  12
BRANCH   1  18
ATOM     18  C   UNL     1      -6.850  -0.719   0.032  0.00  0.00    +0.173 C 
BRANCH  18  19
ATOM     19  C   UNL     1      -7.978  -1.719   0.032  0.00  0.00    +0.231 C 
ATOM     20  O   UNL     1      -9.127  -1.335   0.041  0.00  0.00    -0.274 OA
ATOM     21  N   UNL     1      -7.708  -3.039   0.023  0.00  0.00    -0.239 N 
ATOM     22  C   UNL     1      -8.716  -3.933   0.024  0.00  0.00    +0.306 C 
ATOM     23  O   UNL     1      -9.869  -3.549   0.032  0.00  0.00    -0.252 OA
ATOM     24  N   UNL     1      -8.446  -5.254   0.015  0.00  0.00    -0.296 N 
ATOM     25  H   UNL     1      -6.787  -3.346   0.017  0.00  0.00    +0.159 HD
ATOM     26  H   UNL     1      -7.526  -5.561   0.008  0.00  0.00    +0.151 HD
BRANCH  24  27
ATOM     27  C   UNL     1      -9.543  -6.225   0.015  0.00  0.00    +0.078 C 
ATOM     28  C   UNL     1     -10.000  -6.478   1.453  0.00  0.00    +0.022 C 
ATOM     29  C   UNL     1      -8.830  -7.029   2.271  0.00  0.00    +0.002 C 
ATOM     30  C   UNL     1      -8.348  -8.342   1.651  0.00  0.00    +0.003 C 
ATOM     31  C   UNL     1      -7.891  -8.089   0.213  0.00  0.00    -0.009 C 
ATOM     32  C   UNL     1      -9.060  -7.538  -0.605  0.00  0.00    +0.009 C 
ATOM     33  C   UNL     1      -8.603  -7.286  -2.043  0.00  0.00    +0.009 C 
ATOM     34  C   UNL     1      -7.408  -9.402  -0.407  0.00  0.00    +0.008 C 
ENDBRANCH  24  27
ENDBRANCH  18  19
ENDBRANCH   1  18
TORSDOF 6
