REMARK  Name = ZINC33501099
REMARK  5 active torsions:
REMARK  status: ('A' for Active; 'I' for Inactive)
REMARK    1  A    between atoms: C_1  and  C_2
REMARK    2  A    between atoms: N_6  and  C_22
REMARK    3  A    between atoms: C_9  and  C_14
REMARK    4  A    between atoms: C_17  and  N_21
REMARK    5  A    between atoms: C_18  and  C_19
REMARK                            x       y       z     vdW  Elec       q    Type
REMARK                         _______ _______ _______ _____ _____    ______ ____
ROOT
ATOM      1  C   UNL     1       6.140  -1.547  -2.142  0.00  0.00    +0.062 C 
ATOM      2  C   UNL     1       6.851  -0.456  -1.338  0.00  0.00    +0.256 C 
ATOM      3  C   UNL     1       6.767   0.852  -2.084  0.00  0.00    +0.260 C 
ATOM      4  O   UNL     1       7.645   1.168  -2.859  0.00  0.00    -0.271 OA
ATOM      5  N   UNL     1       5.711   1.670  -1.884  0.00  0.00    -0.268 N 
ATOM      6  C   UNL     1       4.728   1.297  -0.956  0.00  0.00    +0.079 A 
ATOM      7  C   UNL     1       3.493   1.919  -0.950  0.00  0.00    +0.035 A 
ATOM      8  C   UNL     1       2.532   1.538  -0.014  0.00  0.00    -0.014 A 
ATOM      9  C   UNL     1       2.816   0.526   0.903  0.00  0.00    +0.012 A 
ATOM     10  C   UNL     1       4.049  -0.095   0.889  0.00  0.00    +0.048 A 
ATOM     11  C   UNL     1       5.007   0.285  -0.037  0.00  0.00    +0.143 A 
ATOM     12  O   UNL     1       6.224  -0.321  -0.060  0.00  0.00    -0.478 OA
ATOM     13  C   UNL     1       5.594   2.928  -2.626  0.00  0.00    +0.138 C 
ENDROOT
BRANCH   8  14
ATOM     14  C   UNL     1       1.207   2.203   0.002  0.00  0.00    +0.008 A 
ATOM     15  C   UNL     1       1.105   3.556   0.010  0.00  0.00    +0.056 A 
ATOM     16  S   UNL     1      -0.655   3.833   0.028  0.00  0.00    -0.081 S 
ATOM     17  C   UNL     1      -1.212   2.140   0.019  0.00  0.00    +0.081 A 
ATOM     18  C   UNL     1      -0.017   1.428   0.010  0.00  0.00    +0.087 A 
BRANCH  17  19
ATOM     19  N   UNL     1      -2.508   1.655   0.023  0.00  0.00    -0.352 N 
ATOM     20  H   UNL     1      -2.689   0.570   0.016  0.00  0.00    +0.143 HD
ATOM     21  H   UNL     1      -3.357   2.354   0.032  0.00  0.00    +0.143 HD
ENDBRANCH  17  19
BRANCH  18  22
ATOM     22  C   UNL     1       0.002  -0.004   0.002  0.00  0.00    +0.102 C 
ATOM     23  N   UNL     1       0.018  -1.140  -0.004  0.00  0.00    -0.191 NA
ENDBRANCH  18  22
ENDBRANCH   8  14
TORSDOF 3
