REMARK  Name = ZINC40825025
REMARK  7 active torsions:
REMARK  status: ('A' for Active; 'I' for Inactive)
REMARK    1  A    between atoms: C_1  and  C_2
REMARK    2  A    between atoms: C_2  and  C_3
REMARK    3  A    between atoms: C_6  and  O_9
REMARK    4  A    between atoms: O_9  and  C_10
REMARK    5  A    between atoms: C_10  and  C_12
REMARK    6  A    between atoms: C_13  and  C_26
REMARK    7  A    between atoms: N_21  and  N_22
REMARK                            x       y       z     vdW  Elec       q    Type
REMARK                         _______ _______ _______ _____ _____    ______ ____
ROOT
ATOM      1  C   UNL     1      -7.332  -2.471  -1.172  0.00  0.00    +0.215 A 
ATOM      2  C   UNL     1      -8.091  -2.633  -2.299  0.00  0.00    +0.011 A 
ATOM      3  C   UNL     1      -9.364  -3.014  -1.862  0.00  0.00    +0.043 A 
ATOM      4  C   UNL     1      -9.331  -3.066  -0.488  0.00  0.00    +0.115 A 
ATOM      5  O   UNL     1      -8.101  -2.744  -0.094  0.00  0.00    -0.452 OA
ATOM      6  C   UNL     1     -10.529  -3.437   0.348  0.00  0.00    +0.075 C 
ATOM      7  C   UNL     1     -11.806  -3.227  -0.471  0.00  0.00    +0.014 C 
ATOM      8  C   UNL     1     -11.714  -3.961  -1.813  0.00  0.00    +0.058 C 
ATOM      9  C   UNL     1     -10.593  -3.329  -2.625  0.00  0.00    +0.072 C 
ATOM     10  N   UNL     1     -10.705  -3.085  -3.894  0.00  0.00    -0.175 NA
ATOM     11  C   UNL     1      -7.644  -2.441  -3.726  0.00  0.00    +0.048 C 
ENDROOT
BRANCH  10  12
ATOM     12  N   UNL     1     -11.892  -3.405  -4.566  0.00  0.00    -0.248 N 
ATOM     13  C   UNL     1     -12.011  -3.147  -5.906  0.00  0.00    +0.187 C 
ATOM     14  N   UNL     1     -13.140  -3.452  -6.545  0.00  0.00    -0.370 N 
ATOM     15  N   UNL     1     -10.998  -2.592  -6.570  0.00  0.00    -0.370 N 
ATOM     16  H   UNL     1     -12.630  -3.809  -4.083  0.00  0.00    +0.192 HD
ATOM     17  H   UNL     1     -13.877  -3.856  -6.062  0.00  0.00    +0.159 HD
ATOM     18  H   UNL     1     -10.176  -2.370  -6.104  0.00  0.00    +0.159 HD
ATOM     19  H   UNL     1     -11.082  -2.409  -7.519  0.00  0.00    +0.159 HD
ATOM     20  H   UNL     1     -13.224  -3.269  -7.494  0.00  0.00    +0.159 HD
ENDBRANCH  10  12
BRANCH   1  21
ATOM     21  C   UNL     1      -5.922  -2.073  -1.140  0.00  0.00    +0.380 C 
ATOM     22  O   UNL     1      -5.328  -1.852  -2.178  0.00  0.00    -0.241 OA
BRANCH  21  23
ATOM     23  O   UNL     1      -5.282  -1.953   0.042  0.00  0.00    -0.420 OA
BRANCH  23  27
ATOM     24  C   UNL     1      -1.429  -0.480   0.018  0.00  0.00    -0.047 A 
ATOM     25  C   UNL     1      -2.488   0.353  -0.290  0.00  0.00    +0.007 A 
ATOM     26  C   UNL     1      -3.779  -0.138  -0.283  0.00  0.00    +0.046 A 
ATOM     27  C   UNL     1      -4.013  -1.468   0.034  0.00  0.00    +0.132 A 
ATOM     28  C   UNL     1      -2.948  -2.302   0.343  0.00  0.00    +0.046 A 
ATOM     29  C   UNL     1      -1.658  -1.808   0.329  0.00  0.00    +0.007 A 
BRANCH  24  31
ATOM     30  C   UNL     1       0.580  -0.109  -1.388  0.00  0.00    +0.009 C 
ATOM     31  C   UNL     1      -0.021   0.058   0.009  0.00  0.00    +0.032 C 
ENDBRANCH  24  31
ENDBRANCH  23  27
ENDBRANCH  21  23
ENDBRANCH   1  21
TORSDOF 5
