REMARK  Name = ZINC47613977
REMARK  8 active torsions:
REMARK  status: ('A' for Active; 'I' for Inactive)
REMARK    1  A    between atoms: C_1  and  C_2
REMARK    2  A    between atoms: C_7  and  C_8
REMARK    3  A    between atoms: C_8  and  C_9
REMARK    4  A    between atoms: C_9  and  N_10
REMARK    5  A    between atoms: N_10  and  C_11
REMARK    6  A    between atoms: N_10  and  C_18
REMARK    7  A    between atoms: C_11  and  C_12
REMARK    8  A    between atoms: C_18  and  C_19
REMARK                            x       y       z     vdW  Elec       q    Type
REMARK                         _______ _______ _______ _____ _____    ______ ____
ROOT
ATOM      1  N   UNL     1      -1.470   1.097   4.261  0.00  0.00    +0.391 N 
ATOM      2  H   UNL     1      -0.893   0.732   5.004  0.00  0.00    -0.080 HD
ENDROOT
BRANCH   1   3
ATOM      3  C   UNL     1      -1.573   0.101   3.187  0.00  0.00    -0.073 C 
BRANCH   3   4
ATOM      4  C   UNL     1      -0.170  -0.325   2.751  0.00  0.00    +0.017 C 
BRANCH   4  11
ATOM      5  C   UNL     1      -0.460   0.534   0.008  0.00  0.00    +0.044 C 
ATOM      6  C   UNL     1      -0.414  -0.936   0.336  0.00  0.00    -0.047 A 
ATOM      7  C   UNL     1      -0.504  -1.874  -0.676  0.00  0.00    +0.003 A 
ATOM      8  C   UNL     1      -0.462  -3.222  -0.375  0.00  0.00    +0.000 A 
ATOM      9  C   UNL     1      -0.328  -3.633   0.938  0.00  0.00    +0.000 A 
ATOM     10  C   UNL     1      -0.237  -2.696   1.950  0.00  0.00    +0.004 A 
ATOM     11  C   UNL     1      -0.275  -1.347   1.648  0.00  0.00    -0.046 A 
ENDBRANCH   4  11
ENDBRANCH   3   4
ENDBRANCH   1   3
BRANCH   1  12
ATOM     12  C   UNL     1      -0.867   2.328   3.732  0.00  0.00    +0.020 C 
BRANCH  12  13
ATOM     13  C   UNL     1      -1.760   2.907   2.666  0.00  0.00    +0.204 C 
ATOM     14  O   UNL     1      -2.745   2.300   2.304  0.00  0.00    -0.277 OA
ATOM     15  N   UNL     1      -1.464   4.101   2.115  0.00  0.00    -0.242 N 
ATOM     16  C   UNL     1      -2.263   4.619   1.161  0.00  0.00    +0.303 C 
ATOM     17  O   UNL     1      -3.251   4.011   0.798  0.00  0.00    -0.253 OA
ATOM     18  N   UNL     1      -1.967   5.813   0.610  0.00  0.00    -0.313 N 
ATOM     19  H   UNL     1      -0.676   4.587   2.404  0.00  0.00    +0.159 HD
ATOM     20  H   UNL     1      -1.179   6.299   0.899  0.00  0.00    +0.146 HD
ATOM     21  H   UNL     1      -2.542   6.186  -0.077  0.00  0.00    +0.146 HD
ENDBRANCH  12  13
ENDBRANCH   1  12
BRANCH   1  22
ATOM     22  C   UNL     1      -2.811   1.395   4.783  0.00  0.00    +0.020 C 
BRANCH  22  23
ATOM     23  C   UNL     1      -2.693   2.291   5.989  0.00  0.00    +0.204 C 
ATOM     24  O   UNL     1      -1.602   2.660   6.365  0.00  0.00    -0.277 OA
ATOM     25  N   UNL     1      -3.802   2.681   6.649  0.00  0.00    -0.242 N 
ATOM     26  C   UNL     1      -3.697   3.483   7.727  0.00  0.00    +0.303 C 
ATOM     27  O   UNL     1      -2.602   3.853   8.105  0.00  0.00    -0.253 OA
ATOM     28  N   UNL     1      -4.805   3.873   8.387  0.00  0.00    -0.313 N 
ATOM     29  H   UNL     1      -4.675   2.385   6.348  0.00  0.00    +0.159 HD
ATOM     30  H   UNL     1      -5.678   3.577   8.086  0.00  0.00    +0.146 HD
ATOM     31  H   UNL     1      -4.729   4.450   9.164  0.00  0.00    +0.146 HD
ENDBRANCH  22  23
ENDBRANCH   1  22
TORSDOF 7
