REMARK  Name = ZINC67298278
REMARK  6 active torsions:
REMARK  status: ('A' for Active; 'I' for Inactive)
REMARK    1  A    between atoms: C_1  and  C_2
REMARK    2  A    between atoms: C_2  and  O_3
REMARK    3  A    between atoms: O_3  and  C_4
REMARK    4  A    between atoms: C_9  and  N_10
REMARK    5  A    between atoms: C_12  and  C_22
REMARK    6  A    between atoms: C_17  and  O_21
REMARK                            x       y       z     vdW  Elec       q    Type
REMARK                         _______ _______ _______ _____ _____    ______ ____
ROOT
ATOM      1  N   UNL     1       2.087  -1.417  -3.300  0.00  0.00    -0.322 N 
ATOM      2  C   UNL     1       2.711  -1.942  -4.332  0.00  0.00    +0.212 A 
ATOM      3  C   UNL     1       3.322  -1.090  -5.371  0.00  0.00    +0.097 A 
ATOM      4  C   UNL     1       4.377  -1.625  -6.096  0.00  0.00    +0.030 A 
ATOM      5  C   UNL     1       4.774  -2.957  -5.816  0.00  0.00    +0.018 A 
ATOM      6  C   UNL     1       5.954  -3.476  -6.372  0.00  0.00    +0.015 A 
ATOM      7  C   UNL     1       6.349  -4.745  -6.064  0.00  0.00    +0.046 A 
ATOM      8  C   UNL     1       5.586  -5.534  -5.205  0.00  0.00    +0.120 A 
ATOM      9  C   UNL     1       4.407  -5.044  -4.661  0.00  0.00    +0.092 A 
ATOM     10  C   UNL     1       3.987  -3.762  -4.970  0.00  0.00    +0.141 A 
ATOM     11  O   UNL     1       2.820  -3.289  -4.477  0.00  0.00    -0.438 OA
ATOM     12  H   UNL     1       2.097  -0.457  -3.165  0.00  0.00    +0.169 HD
ENDROOT
BRANCH   1  18
ATOM     13  C   UNL     1       1.658  -2.104  -1.040  0.00  0.00    +0.144 A 
ATOM     14  C   UNL     1       0.979  -2.922  -0.155  0.00  0.00    +0.048 A 
ATOM     15  C   UNL     1       0.079  -3.861  -0.627  0.00  0.00    +0.004 A 
ATOM     16  C   UNL     1      -0.149  -3.989  -1.986  0.00  0.00    +0.002 A 
ATOM     17  C   UNL     1       0.519  -3.180  -2.882  0.00  0.00    +0.029 A 
ATOM     18  C   UNL     1       1.425  -2.226  -2.417  0.00  0.00    +0.084 A 
BRANCH  13  19
ATOM     19  O   UNL     1       2.542  -1.182  -0.577  0.00  0.00    -0.490 OA
BRANCH  19  21
ATOM     20  C   UNL     1       3.752  -0.028   1.168  0.00  0.00    +0.048 C 
ATOM     21  C   UNL     1       2.728  -1.115   0.839  0.00  0.00    +0.226 C 
ENDBRANCH  19  21
ENDBRANCH  13  19
ENDBRANCH   1  18
BRANCH   3  22
ATOM     22  C   UNL     1       2.831   0.274  -5.627  0.00  0.00    +0.247 C 
ATOM     23  O   UNL     1       1.910   0.722  -4.971  0.00  0.00    -0.270 OA
ATOM     24  N   UNL     1       3.402   1.026  -6.588  0.00  0.00    -0.325 N 
ATOM     25  H   UNL     1       4.173   0.691  -7.072  0.00  0.00    +0.145 HD
ATOM     26  H   UNL     1       3.042   1.902  -6.797  0.00  0.00    +0.145 HD
ENDBRANCH   3  22
BRANCH   8  27
ATOM     27  O   UNL     1       5.998  -6.790  -4.898  0.00  0.00    -0.507 OA
ATOM     28  H   UNL     1       6.568  -6.837  -4.118  0.00  0.00    +0.292 HD
ENDBRANCH   8  27
TORSDOF 5
