REMARK  Name = ZINC03538925
REMARK  8 active torsions:
REMARK  status: ('A' for Active; 'I' for Inactive)
REMARK    1  A    between atoms: C_1  and  C_2
REMARK    2  A    between atoms: C_2  and  N_3
REMARK    3  A    between atoms: N_3  and  C_4
REMARK    4  A    between atoms: C_5  and  N_20
REMARK    5  A    between atoms: N_6  and  C_13
REMARK    6  A    between atoms: C_13  and  C_14
REMARK    7  A    between atoms: C_21  and  C_23
REMARK    8  A    between atoms: C_23  and  N_61
REMARK                            x       y       z     vdW  Elec       q    Type
REMARK                         _______ _______ _______ _____ _____    ______ ____
ROOT
ATOM      1  C   UNL     1      -2.643   5.037  -3.468  0.00  0.00    +0.140 A 
ATOM      2  C   UNL     1      -2.022   3.916  -3.980  0.00  0.00    +0.128 A 
ATOM      3  N   UNL     1      -2.195   2.705  -3.351  0.00  0.00    -0.276 N 
ATOM      4  C   UNL     1      -2.952   2.616  -2.243  0.00  0.00    +0.331 A 
ATOM      5  O   UNL     1      -3.089   1.537  -1.698  0.00  0.00    -0.246 OA
ATOM      6  N   UNL     1      -3.561   3.698  -1.726  0.00  0.00    -0.273 N 
ATOM      7  H   UNL     1      -4.118   3.605  -0.900  0.00  0.00    +0.173 HD
ATOM      8  C   UNL     1      -3.428   4.907  -2.307  0.00  0.00    +0.277 A 
ATOM      9  O   UNL     1      -3.985   5.881  -1.830  0.00  0.00    -0.266 OA
ENDROOT
BRANCH   1  10
ATOM     10  N   UNL     1      -2.490   6.292  -4.094  0.00  0.00    -0.266 N 
ATOM     11  C   UNL     1      -1.815   7.279  -3.469  0.00  0.00    +0.203 C 
ATOM     12  O   UNL     1      -1.259   7.060  -2.413  0.00  0.00    -0.277 OA
BRANCH  10  14
ATOM     13  C   UNL     1      -4.459   7.135  -5.275  0.00  0.00    +0.025 C 
ATOM     14  C   UNL     1      -3.064   6.523  -5.422  0.00  0.00    +0.110 C 
ENDBRANCH  10  14
BRANCH  11  15
ATOM     15  C   UNL     1      -1.752   8.654  -4.083  0.00  0.00    +0.019 C 
BRANCH  15  23
ATOM     16  C   UNL     1      -0.787  10.855  -3.798  0.00  0.00    -0.078 C 
ATOM     17  C   UNL     1      -0.384  11.895  -2.752  0.00  0.00    -0.019 C 
ATOM     18  C   UNL     1       1.053  11.623  -2.294  0.00  0.00    -0.002 C 
ATOM     19  C   UNL     1       1.054  10.401  -1.372  0.00  0.00    -0.000 C 
ATOM     20  C   UNL     1      -0.118  10.502  -0.396  0.00  0.00    -0.002 C 
ATOM     21  C   UNL     1      -1.136   9.404  -0.702  0.00  0.00    -0.019 C 
ATOM     22  C   UNL     1      -1.937   9.787  -1.951  0.00  0.00    -0.078 C 
ATOM     23  N   UNL     1      -1.079   9.567  -3.136  0.00  0.00    +0.385 N 
ATOM     24  H   UNL     1      -0.195   9.141  -2.833  0.00  0.00    -0.081 HD
ENDBRANCH  15  23
ENDBRANCH  11  15
ENDBRANCH   1  10
BRANCH   2  25
ATOM     25  N   UNL     1      -1.244   4.008  -5.109  0.00  0.00    -0.343 N 
ATOM     26  H   UNL     1      -0.886   3.205  -5.519  0.00  0.00    +0.144 HD
ATOM     27  H   UNL     1      -1.051   4.876  -5.497  0.00  0.00    +0.144 HD
ENDBRANCH   2  25
BRANCH   3  28
ATOM     28  C   UNL     1      -1.546   1.507  -3.888  0.00  0.00    +0.163 C 
BRANCH  28  29
ATOM     29  C   UNL     1      -2.467   0.835  -4.874  0.00  0.00    -0.028 A 
ATOM     30  C   UNL     1      -3.366  -0.121  -4.439  0.00  0.00    +0.005 A 
ATOM     31  C   UNL     1      -4.207  -0.740  -5.345  0.00  0.00    +0.000 A 
ATOM     32  C   UNL     1      -4.157  -0.396  -6.682  0.00  0.00    +0.000 A 
ATOM     33  C   UNL     1      -3.262   0.564  -7.116  0.00  0.00    +0.000 A 
ATOM     34  C   UNL     1      -2.417   1.180  -6.212  0.00  0.00    +0.005 A 
ENDBRANCH  28  29
ENDBRANCH   3  28
TORSDOF 7
