REMARK  Name = ZINC38061279
REMARK  4 active torsions:
REMARK  status: ('A' for Active; 'I' for Inactive)
REMARK    1  A    between atoms: C_4  and  N_6
REMARK    2  A    between atoms: C_10  and  N_14
REMARK    3  A    between atoms: N_14  and  C_15
REMARK    4  A    between atoms: C_15  and  C_16
REMARK                            x       y       z     vdW  Elec       q    Type
REMARK                         _______ _______ _______ _____ _____    ______ ____
ROOT
ATOM      1  N   UNL     1       1.136  -1.207  -1.821  0.00  0.00    -0.240 N 
ATOM      2  C   UNL     1       0.445  -0.742  -2.869  0.00  0.00    +0.221 C 
ATOM      3  O   UNL     1      -0.071   0.353  -2.940  0.00  0.00    -0.275 OA
ATOM      4  C   UNL     1       0.411  -1.799  -3.952  0.00  0.00    +0.090 C 
ATOM      5  C   UNL     1       1.210  -2.967  -3.341  0.00  0.00    +0.025 C 
ATOM      6  C   UNL     1       1.617  -2.446  -1.980  0.00  0.00    +0.208 C 
ATOM      7  O   UNL     1       2.273  -3.055  -1.162  0.00  0.00    -0.277 OA
ENDROOT
BRANCH   1  11
ATOM      8  C   UNL     1      -0.019   1.538   0.011  0.00  0.00    +0.002 C 
ATOM      9  C   UNL     1       1.477   1.939  -0.002  0.00  0.00    +0.002 C 
ATOM     10  C   UNL     1       2.107   0.881  -0.942  0.00  0.00    +0.023 C 
ATOM     11  C   UNL     1       1.353  -0.422  -0.604  0.00  0.00    +0.084 C 
ATOM     12  C   UNL     1       0.002  -0.004   0.002  0.00  0.00    +0.023 C 
ENDBRANCH   1  11
BRANCH   5  13
ATOM     13  N   UNL     1       2.397  -3.264  -4.156  0.00  0.00    +0.389 N 
ATOM     14  H   UNL     1       2.115  -3.437  -5.109  0.00  0.00    -0.085 HD
ATOM     15  H   UNL     1       3.028  -2.477  -4.129  0.00  0.00    -0.085 HD
BRANCH  13  16
ATOM     16  C   UNL     1       3.073  -4.453  -3.621  0.00  0.00    -0.047 C 
BRANCH  16  17
ATOM     17  C   UNL     1       4.309  -4.761  -4.470  0.00  0.00    +0.127 C 
ATOM     18  C   UNL     1       5.013  -6.003  -3.916  0.00  0.00    +0.189 C 
ATOM     19  O   UNL     1       6.100  -6.350  -4.778  0.00  0.00    -0.375 OA
ATOM     20  C   UNL     1       5.702  -6.600  -6.130  0.00  0.00    +0.188 C 
ATOM     21  C   UNL     1       4.998  -5.358  -6.684  0.00  0.00    +0.188 C 
ATOM     22  O   UNL     1       3.910  -5.010  -5.821  0.00  0.00    -0.374 OA
ENDBRANCH  16  17
ENDBRANCH  13  16
ENDBRANCH   5  13
TORSDOF 4
