REMARK  Name = ZINC67090484
REMARK  5 active torsions:
REMARK  status: ('A' for Active; 'I' for Inactive)
REMARK    1  A    between atoms: C_3  and  C_11
REMARK    2  A    between atoms: C_5  and  C_7
REMARK    3  A    between atoms: C_11  and  C_14
REMARK    4  A    between atoms: C_14  and  N_15
REMARK    5  A    between atoms: C_21  and  C_24
REMARK                            x       y       z     vdW  Elec       q    Type
REMARK                         _______ _______ _______ _____ _____    ______ ____
ROOT
ATOM      1  C   UNL     1       4.853   1.647  -0.792  0.00  0.00    +0.117 C 
ENDROOT
BRANCH   1   2
ATOM      2  N   UNL     1       4.841   0.182  -0.771  0.00  0.00    -0.298 N 
ATOM      3  C   UNL     1       5.755  -0.510  -1.482  0.00  0.00    +0.302 C 
ATOM      4  O   UNL     1       6.645   0.079  -2.064  0.00  0.00    -0.253 OA
ATOM      5  N   UNL     1       5.681  -1.854  -1.546  0.00  0.00    -0.285 N 
ATOM      6  C   UNL     1       4.598  -2.683  -0.987  0.00  0.00    +0.110 C 
ATOM      7  C   UNL     1       4.629  -3.990  -1.819  0.00  0.00    +0.033 C 
ATOM      8  C   UNL     1       6.153  -4.183  -2.037  0.00  0.00    +0.094 C 
ATOM      9  C   UNL     1       6.665  -2.736  -2.191  0.00  0.00    +0.122 C 
ATOM     10  H   UNL     1       4.176  -0.290  -0.247  0.00  0.00    +0.150 HD
BRANCH   8  11
ATOM     11  C   UNL     1       6.415  -4.979  -3.290  0.00  0.00    +0.215 C 
ATOM     12  O   UNL     1       5.487  -5.368  -3.966  0.00  0.00    -0.276 OA
ATOM     13  N   UNL     1       7.681  -5.257  -3.659  0.00  0.00    -0.329 N 
ATOM     14  H   UNL     1       8.424  -4.945  -3.118  0.00  0.00    +0.145 HD
ATOM     15  H   UNL     1       7.850  -5.769  -4.465  0.00  0.00    +0.145 HD
ENDBRANCH   8  11
ENDBRANCH   1   2
BRANCH   1  16
ATOM     16  C   UNL     1       3.649   2.178  -0.011  0.00  0.00    +0.011 C 
ATOM     17  C   UNL     1       3.050   3.512  -0.459  0.00  0.00    +0.014 C 
ATOM     18  C   UNL     1       2.299   2.207  -0.730  0.00  0.00    +0.014 C 
BRANCH  16  21
ATOM     19  C   UNL     1       2.443   1.449   3.491  0.00  0.00    +0.001 A 
ATOM     20  C   UNL     1       2.446   1.729   2.137  0.00  0.00    +0.004 A 
ATOM     21  C   UNL     1       3.645   1.873   1.464  0.00  0.00    -0.039 A 
ATOM     22  C   UNL     1       4.841   1.736   2.145  0.00  0.00    +0.016 A 
ATOM     23  C   UNL     1       4.837   1.456   3.499  0.00  0.00    +0.055 A 
ATOM     24  C   UNL     1       3.638   1.311   4.171  0.00  0.00    +0.012 A 
BRANCH  23  25
ATOM     25  C   UNL     1       6.140   1.306   4.240  0.00  0.00    +0.417 C 
ATOM     26  F   UNL     1       6.483   2.526   4.833  0.00  0.00    -0.166 F 
ATOM     27  F   UNL     1       6.003   0.328   5.232  0.00  0.00    -0.166 F 
ATOM     28  F   UNL     1       7.145   0.923   3.345  0.00  0.00    -0.166 F 
ENDBRANCH  23  25
ENDBRANCH  16  21
ENDBRANCH   1  16
TORSDOF 5
