REMARK  Name = ZINC57837227
REMARK  5 active torsions:
REMARK  status: ('A' for Active; 'I' for Inactive)
REMARK    1  A    between atoms: C_6  and  C_7
REMARK    2  A    between atoms: C_10  and  C_23
REMARK    3  A    between atoms: N_13  and  C_14
REMARK    4  A    between atoms: C_14  and  C_15
REMARK    5  A    between atoms: C_15  and  C_16
REMARK                            x       y       z     vdW  Elec       q    Type
REMARK                         _______ _______ _______ _____ _____    ______ ____
ROOT
ATOM      1  C   UNL     1      -1.261  -0.797   0.227  0.00  0.00    +0.052 A 
ATOM      2  C   UNL     1      -2.461  -0.121   0.347  0.00  0.00    +0.028 A 
ATOM      3  C   UNL     1      -3.659  -0.793   0.139  0.00  0.00    +0.026 A 
ATOM      4  C   UNL     1      -3.629  -2.149  -0.190  0.00  0.00    +0.116 A 
ATOM      5  C   UNL     1      -2.378  -2.806  -0.304  0.00  0.00    +0.269 A 
ATOM      6  O   UNL     1      -2.336  -3.990  -0.591  0.00  0.00    -0.266 OA
ATOM      7  N   UNL     1      -1.236  -2.123  -0.101  0.00  0.00    -0.307 N 
ENDROOT
BRANCH   1  13
ATOM      8  C   UNL     1       0.250   0.555   1.672  0.00  0.00    +0.013 A 
ATOM      9  C   UNL     1       1.437   1.226   1.875  0.00  0.00    +0.039 A 
ATOM     10  C   UNL     1       2.389   1.274   0.868  0.00  0.00    +0.123 A 
ATOM     11  C   UNL     1       2.153   0.650  -0.348  0.00  0.00    +0.039 A 
ATOM     12  C   UNL     1       0.970  -0.024  -0.561  0.00  0.00    +0.013 A 
ATOM     13  C   UNL     1       0.007  -0.077   0.450  0.00  0.00    -0.001 A 
ATOM     14  F   UNL     1       3.550   1.934   1.071  0.00  0.00    -0.205 F 
ENDBRANCH   1  13
BRANCH   4  15
ATOM     15  C   UNL     1      -4.848  -2.868  -0.410  0.00  0.00    +0.105 C 
ATOM     16  N   UNL     1      -5.815  -3.438  -0.584  0.00  0.00    -0.191 NA
ENDBRANCH   4  15
BRANCH   7  17
ATOM     17  C   UNL     1       0.051  -2.811  -0.227  0.00  0.00    +0.124 C 
BRANCH  17  18
ATOM     18  C   UNL     1       0.518  -3.277   1.153  0.00  0.00    +0.006 C 
BRANCH  18  19
ATOM     19  C   UNL     1       1.862  -3.996   1.021  0.00  0.00    -0.070 C 
ATOM     20  C   UNL     1       2.390  -4.350   2.413  0.00  0.00    -0.016 C 
ATOM     21  C   UNL     1       3.735  -5.069   2.276  0.00  0.00    -0.003 C 
ATOM     22  C   UNL     1       3.553  -6.306   1.393  0.00  0.00    -0.019 C 
ATOM     23  C   UNL     1       2.982  -5.880   0.038  0.00  0.00    -0.082 C 
ATOM     24  N   UNL     1       1.684  -5.223   0.236  0.00  0.00    +0.381 N 
ATOM     25  H   UNL     1       1.062  -5.848   0.726  0.00  0.00    -0.086 HD
ATOM     26  H   UNL     1       1.286  -4.992  -0.662  0.00  0.00    -0.086 HD
ENDBRANCH  18  19
ENDBRANCH  17  18
ENDBRANCH   7  17
TORSDOF 5
