REMARK  Name = ZINC42028149
REMARK  5 active torsions:
REMARK  status: ('A' for Active; 'I' for Inactive)
REMARK    1  A    between atoms: C_1  and  C_2
REMARK    2  A    between atoms: C_5  and  N_9
REMARK    3  A    between atoms: C_10  and  C_14
REMARK    4  A    between atoms: C_18  and  N_21
REMARK    5  A    between atoms: C_19  and  C_20
REMARK                            x       y       z     vdW  Elec       q    Type
REMARK                         _______ _______ _______ _____ _____    ______ ____
ROOT
ATOM      1  N   UNL     1       0.835  -4.467  -0.006  0.00  0.00    -0.191 N 
ATOM      2  C   UNL     1       0.162  -5.008   1.050  0.00  0.00    +0.187 A 
ATOM      3  N   UNL     1      -0.614  -5.955   0.565  0.00  0.00    -0.108 NA
ATOM      4  N   UNL     1      -0.475  -6.043  -0.708  0.00  0.00    -0.022 NA
ATOM      5  N   UNL     1       0.378  -5.175  -1.132  0.00  0.00    -0.039 NA
ENDROOT
BRANCH   1  10
ATOM      6  C   UNL     1       4.636  -0.253   0.112  0.00  0.00    +0.044 C 
ATOM      7  C   UNL     1       3.626  -1.371   0.080  0.00  0.00    -0.049 A 
ATOM      8  C   UNL     1       3.997  -2.646   0.466  0.00  0.00    +0.005 A 
ATOM      9  C   UNL     1       3.074  -3.674   0.439  0.00  0.00    +0.029 A 
ATOM     10  C   UNL     1       1.773  -3.426   0.023  0.00  0.00    +0.088 A 
ATOM     11  C   UNL     1       1.403  -2.144  -0.363  0.00  0.00    +0.067 A 
ATOM     12  C   UNL     1       2.329  -1.119  -0.328  0.00  0.00    +0.025 A 
ATOM     13 CL   UNL     1      -0.223  -1.828  -0.884  0.00  0.00    -0.081 Cl
ENDBRANCH   1  10
BRANCH   2  14
ATOM     14  C   UNL     1       0.282  -4.607   2.470  0.00  0.00    +0.026 A 
ATOM     15  C   UNL     1       0.185  -3.262   2.828  0.00  0.00    +0.012 A 
ATOM     16  C   UNL     1       0.297  -2.891   4.152  0.00  0.00    +0.002 A 
ATOM     17  C   UNL     1       0.506  -3.848   5.128  0.00  0.00    +0.023 A 
ATOM     18  C   UNL     1       0.604  -5.190   4.781  0.00  0.00    +0.028 A 
ATOM     19  C   UNL     1       0.487  -5.573   3.454  0.00  0.00    -0.019 A 
ATOM     20  C   UNL     1       0.587  -7.028   3.075  0.00  0.00    +0.046 C 
BRANCH  18  21
ATOM     21  N   UNL     1       0.816  -6.153   5.770  0.00  0.00    -0.358 N 
ATOM     22  H   UNL     1       0.894  -5.885   6.699  0.00  0.00    +0.142 HD
ATOM     23  H   UNL     1       0.884  -7.090   5.528  0.00  0.00    +0.142 HD
ENDBRANCH  18  21
ENDBRANCH   2  14
TORSDOF 3
