REMARK  Name = ZINC41036918
REMARK  5 active torsions:
REMARK  status: ('A' for Active; 'I' for Inactive)
REMARK    1  A    between atoms: C_1  and  C_2
REMARK    2  A    between atoms: C_7  and  C_9
REMARK    3  A    between atoms: C_7  and  N_19
REMARK    4  A    between atoms: C_9  and  O_11
REMARK    5  A    between atoms: O_11  and  C_12
REMARK                            x       y       z     vdW  Elec       q    Type
REMARK                         _______ _______ _______ _____ _____    ______ ____
ROOT
ATOM      1  C   UNL     1       3.458   0.443   2.413  0.00  0.00    +0.007 C 
ATOM      2  C   UNL     1       2.443  -0.207   1.470  0.00  0.00    -0.015 C 
ATOM      3  C   UNL     1       1.378   0.820   1.082  0.00  0.00    +0.003 C 
ATOM      4  C   UNL     1       0.363   0.170   0.139  0.00  0.00    -0.001 C 
ATOM      5  C   UNL     1      -0.303  -1.014   0.844  0.00  0.00    -0.002 C 
ATOM      6  C   UNL     1       0.763  -2.041   1.233  0.00  0.00    +0.029 C 
ATOM      7  C   UNL     1       1.778  -1.391   2.176  0.00  0.00    +0.001 C 
ENDROOT
BRANCH   6   8
ATOM      8  N   UNL     1       0.124  -3.177   1.910  0.00  0.00    +0.389 N 
ATOM      9  H   UNL     1      -0.545  -3.606   1.289  0.00  0.00    -0.088 HD
ATOM     10  H   UNL     1       0.827  -3.854   2.167  0.00  0.00    -0.088 HD
ATOM     11  H   UNL     1      -0.348  -2.852   2.740  0.00  0.00    -0.088 HD
ENDBRANCH   6   8
BRANCH   6  12
ATOM     12  C   UNL     1       1.468  -2.527  -0.007  0.00  0.00    +0.296 C 
ATOM     13  O   UNL     1       1.432  -1.869  -1.019  0.00  0.00    -0.252 OA
BRANCH  12  14
ATOM     14  O   UNL     1       2.136  -3.691   0.014  0.00  0.00    -0.462 OA
BRANCH  14  15
ATOM     15  C   UNL     1       2.781  -4.090  -1.197  0.00  0.00    +0.176 C 
ATOM     16  C   UNL     1       1.774  -4.870  -2.066  0.00  0.00    +0.044 C 
ATOM     17  C   UNL     1       2.252  -4.842  -3.493  0.00  0.00    +0.004 C 
ATOM     18  C   UNL     1       3.090  -6.083  -3.858  0.00  0.00    +0.000 C 
ATOM     19  C   UNL     1       4.074  -6.487  -2.744  0.00  0.00    +0.000 C 
ATOM     20  C   UNL     1       4.755  -5.301  -2.118  0.00  0.00    +0.004 C 
ATOM     21  C   UNL     1       3.957  -4.881  -0.866  0.00  0.00    +0.044 C 
ENDBRANCH  14  15
ENDBRANCH  12  14
ENDBRANCH   6  12
TORSDOF 4
