REMARK  Name = ZINC39686473
REMARK  8 active torsions:
REMARK  status: ('A' for Active; 'I' for Inactive)
REMARK    1  A    between atoms: C_1  and  C_2
REMARK    2  A    between atoms: C_2  and  C_4
REMARK    3  A    between atoms: C_2  and  N_13
REMARK    4  A    between atoms: C_4  and  C_5
REMARK    5  A    between atoms: C_10  and  O_11
REMARK    6  A    between atoms: O_11  and  C_12
REMARK    7  A    between atoms: C_14  and  C_16
REMARK    8  A    between atoms: C_27  and  C_29
REMARK                            x       y       z     vdW  Elec       q    Type
REMARK                         _______ _______ _______ _____ _____    ______ ____
ROOT
ATOM      1  C   UNL     1      -1.629  -1.694   1.766  0.00  0.00    +0.100 C 
ATOM      2  C   UNL     1      -3.030  -1.593   1.123  0.00  0.00    +0.121 C 
ATOM      3  N   UNL     1      -2.984  -2.528  -0.025  0.00  0.00    -0.296 N 
ATOM      4  C   UNL     1      -2.216  -3.692   0.478  0.00  0.00    +0.115 C 
ATOM      5  C   UNL     1      -1.100  -3.075   1.344  0.00  0.00    -0.004 C 
ATOM      6  C   UNL     1      -0.845  -3.942   2.573  0.00  0.00    -0.010 C 
ATOM      7  C   UNL     1      -0.264  -5.288   2.131  0.00  0.00    -0.082 C 
ATOM      8  N   UNL     1       0.987  -5.066   1.395  0.00  0.00    +0.379 N 
ATOM      9  C   UNL     1       0.717  -4.310   0.166  0.00  0.00    -0.082 C 
ATOM     10  C   UNL     1       0.178  -2.923   0.525  0.00  0.00    -0.010 C 
ATOM     11  C   UNL     1      -3.519  -2.358  -1.251  0.00  0.00    +0.247 C 
ATOM     12  O   UNL     1      -3.519  -3.277  -2.046  0.00  0.00    -0.270 OA
ATOM     13  H   UNL     1       1.628  -4.545   1.975  0.00  0.00    -0.086 HD
ATOM     14  H   UNL     1       1.399  -5.956   1.158  0.00  0.00    -0.086 HD
ENDROOT
BRANCH  11  15
ATOM     15  C   UNL     1      -4.106  -1.054  -1.627  0.00  0.00    +0.040 A 
ATOM     16  C   UNL     1      -3.277   0.008  -1.989  0.00  0.00    +0.033 A 
ATOM     17  C   UNL     1      -3.831   1.224  -2.340  0.00  0.00    +0.043 A 
ATOM     18  C   UNL     1      -5.205   1.389  -2.333  0.00  0.00    +0.040 A 
ATOM     19  C   UNL     1      -6.033   0.339  -1.974  0.00  0.00    +0.043 A 
ATOM     20  C   UNL     1      -5.491  -0.883  -1.628  0.00  0.00    +0.033 A 
ATOM     21 CL   UNL     1      -7.755   0.556  -1.968  0.00  0.00    -0.083 Cl
ATOM     22 CL   UNL     1      -2.801   2.547  -2.791  0.00  0.00    -0.083 Cl
ENDBRANCH  11  15
BRANCH   1  24
ATOM     23  N   UNL     1       0.286  -0.146   1.999  0.00  0.00    -0.312 N 
ATOM     24  C   UNL     1      -0.731  -0.605   1.241  0.00  0.00    +0.218 C 
ATOM     25  O   UNL     1      -0.921  -0.141   0.137  0.00  0.00    -0.275 OA
ATOM     26  H   UNL     1       0.484  -0.566   2.850  0.00  0.00    +0.149 HD
BRANCH  23  28
ATOM     27  C   UNL     1       2.303   0.471   0.761  0.00  0.00    +0.028 C 
ATOM     28  C   UNL     1       1.090   0.988   1.536  0.00  0.00    +0.074 C 
BRANCH  28  29
ATOM     29  C   UNL     1       1.565   1.802   2.742  0.00  0.00    +0.060 C 
BRANCH  29  30
ATOM     30  C   UNL     1       2.538   0.983   3.549  0.00  0.00    -0.004 A 
ATOM     31  C   UNL     1       2.140   0.414   4.744  0.00  0.00    +0.007 A 
ATOM     32  C   UNL     1       3.033  -0.337   5.485  0.00  0.00    +0.000 A 
ATOM     33  C   UNL     1       4.327  -0.522   5.032  0.00  0.00    +0.004 A 
ATOM     34  C   UNL     1       4.730   0.044   3.839  0.00  0.00    +0.046 A 
ATOM     35  C   UNL     1       3.834   0.794   3.090  0.00  0.00    +0.123 A 
BRANCH  35  36
ATOM     36  O   UNL     1       4.226   1.347   1.913  0.00  0.00    -0.495 OA
ATOM     37  C   UNL     1       5.607   1.224   1.566  0.00  0.00    +0.277 C 
ENDBRANCH  35  36
ENDBRANCH  29  30
ENDBRANCH  28  29
ENDBRANCH  23  28
ENDBRANCH   1  24
TORSDOF 6
