REMARK  Name = ZINC15708298
REMARK  8 active torsions:
REMARK  status: ('A' for Active; 'I' for Inactive)
REMARK    1  A    between atoms: C_1  and  O_2
REMARK    2  A    between atoms: O_2  and  C_3
REMARK    3  A    between atoms: C_3  and  C_4
REMARK    4  A    between atoms: N_6  and  C_7
REMARK    5  A    between atoms: C_16  and  C_19
REMARK    6  A    between atoms: C_19  and  C_20
REMARK    7  A    between atoms: C_20  and  C_21
REMARK    8  A    between atoms: N_23  and  C_24
REMARK                            x       y       z     vdW  Elec       q    Type
REMARK                         _______ _______ _______ _____ _____    ______ ____
ROOT
ATOM      1  C   UNL     1      -1.377   1.819   3.415  0.00  0.00    +0.055 C 
ATOM      2  C   UNL     1      -2.626   1.456   2.569  0.00  0.00    +0.014 C 
ATOM      3  C   UNL     1      -2.043   0.929   1.258  0.00  0.00    +0.021 C 
ATOM      4  C   UNL     1      -2.836   1.228   0.028  0.00  0.00    +0.200 C 
ATOM      5  O   UNL     1      -4.046   1.285   0.077  0.00  0.00    -0.278 OA
ATOM      6  N   UNL     1      -2.189   1.432  -1.136  0.00  0.00    -0.318 N 
ATOM      7  C   UNL     1      -0.741   1.509  -1.275  0.00  0.00    +0.089 C 
ATOM      8  C   UNL     1      -0.012   1.085   0.009  0.00  0.00    -0.050 C 
ATOM      9  C   UNL     1      -0.167   1.545   2.478  0.00  0.00    -0.055 C 
ATOM     10  H   UNL     1      -2.725   1.536  -1.937  0.00  0.00    +0.149 HD
ATOM     11  N   UNL     1      -0.815   1.654   1.142  0.00  0.00    +0.391 N 
ATOM     12  H   UNL     1      -1.003   2.643   0.941  0.00  0.00    -0.080 HD
ENDROOT
BRANCH   1  15
ATOM     13  C   UNL     1      -0.757   3.650   4.899  0.00  0.00    +0.239 C 
ATOM     14  O   UNL     1      -0.135   2.855   5.571  0.00  0.00    -0.273 OA
ATOM     15  N   UNL     1      -1.414   3.232   3.798  0.00  0.00    -0.312 N 
ATOM     16  H   UNL     1      -1.912   3.868   3.260  0.00  0.00    +0.149 HD
BRANCH  13  17
ATOM     17  C   UNL     1      -0.795   5.104   5.293  0.00  0.00    +0.255 C 
BRANCH  17  19
ATOM     18  C   UNL     1      -0.000   6.646   6.946  0.00  0.00    +0.194 C 
ATOM     19  O   UNL     1      -0.029   5.295   6.484  0.00  0.00    -0.374 OA
ENDBRANCH  17  19
ENDBRANCH  13  17
ENDBRANCH   1  15
BRANCH   8  20
ATOM     20  C   UNL     1       1.419   1.625  -0.003  0.00  0.00    -0.005 C 
BRANCH  20  21
ATOM     21  C   UNL     1       2.206   0.961  -1.135  0.00  0.00    +0.094 C 
BRANCH  21  22
ATOM     22  C   UNL     1       3.646   1.399  -1.069  0.00  0.00    +0.213 C 
ATOM     23  O   UNL     1       4.008   2.167  -0.203  0.00  0.00    -0.276 OA
ATOM     24  N   UNL     1       4.532   0.938  -1.974  0.00  0.00    -0.312 N 
ATOM     25  H   UNL     1       4.243   0.324  -2.667  0.00  0.00    +0.149 HD
BRANCH  24  26
ATOM     26  C   UNL     1       5.933   1.363  -1.911  0.00  0.00    +0.073 C 
ATOM     27  C   UNL     1       6.617   1.740  -3.227  0.00  0.00    +0.024 C 
ATOM     28  C   UNL     1       6.982   0.432  -2.521  0.00  0.00    +0.024 C 
ENDBRANCH  24  26
ENDBRANCH  21  22
ENDBRANCH  20  21
ENDBRANCH   8  20
TORSDOF 7
