REMARK  Name = ZINC29480621
REMARK  6 active torsions:
REMARK  status: ('A' for Active; 'I' for Inactive)
REMARK    1  A    between atoms: C_1  and  C_2
REMARK    2  A    between atoms: C_15  and  C_17
REMARK    3  A    between atoms: C_17  and  S_18
REMARK    4  A    between atoms: S_18  and  C_19
REMARK    5  A    between atoms: N_20  and  C_21
REMARK    6  A    between atoms: C_21  and  C_22
REMARK                            x       y       z     vdW  Elec       q    Type
REMARK                         _______ _______ _______ _____ _____    ______ ____
ROOT
ATOM      1  C   UNL     1      -1.260   6.167   2.348  0.00  0.00    +0.029 C 
ATOM      2  C   UNL     1      -0.036   6.109   1.432  0.00  0.00    +0.087 C 
ATOM      3  C   UNL     1       1.098   5.372   2.145  0.00  0.00    +0.118 C 
ATOM      4  C   UNL     1       2.151   4.957   1.151  0.00  0.00    +0.219 C 
ATOM      5  O   UNL     1       3.196   5.569   1.089  0.00  0.00    -0.275 OA
ATOM      6  N   UNL     1       1.938   3.907   0.329  0.00  0.00    -0.284 N 
ATOM      7  C   UNL     1       0.701   3.253   0.320  0.00  0.00    +0.055 A 
ATOM      8  C   UNL     1       0.627   1.872   0.389  0.00  0.00    +0.025 A 
ATOM      9  C   UNL     1      -0.604   1.245   0.334  0.00  0.00    +0.002 A 
ATOM     10  C   UNL     1      -1.761   1.992   0.205  0.00  0.00    +0.002 A 
ATOM     11  C   UNL     1      -1.697   3.372   0.150  0.00  0.00    +0.025 A 
ATOM     12  C   UNL     1      -0.468   4.008   0.213  0.00  0.00    +0.058 A 
ATOM     13  N   UNL     1      -0.386   5.407   0.196  0.00  0.00    -0.266 N 
ATOM     14  C   UNL     1      -0.624   6.095  -0.939  0.00  0.00    +0.230 C 
ATOM     15  O   UNL     1      -0.549   7.305  -0.942  0.00  0.00    -0.274 OA
ATOM     16  H   UNL     1       2.741   3.560  -0.339  0.00  0.00    +0.155 HD
ENDROOT
BRANCH  14  17
ATOM     17  C   UNL     1      -0.984   5.359  -2.204  0.00  0.00    +0.173 C 
BRANCH  17  18
ATOM     18  S   UNL     1      -1.241   6.550  -3.542  0.00  0.00    -0.084 S 
BRANCH  18  19
ATOM     19  C   UNL     1      -1.636   5.449  -4.860  0.00  0.00    +0.126 C 
ATOM     20  N   UNL     1      -1.664   4.162  -4.649  0.00  0.00    -0.365 N 
ATOM     21  N   UNL     1      -1.916   5.946  -6.112  0.00  0.00    -0.339 N 
ATOM     22  H   UNL     1      -2.163   5.259  -6.934  0.00  0.00    +0.144 HD
ATOM     23  H   UNL     1      -1.893   7.032  -6.290  0.00  0.00    +0.144 HD
ATOM     24  H   UNL     1      -1.499   3.768  -3.635  0.00  0.00    +0.161 HD
BRANCH  20  25
ATOM     25  C   UNL     1      -1.914   3.242  -5.761  0.00  0.00    +0.146 C 
BRANCH  25  26
ATOM     26  C   UNL     1      -0.667   2.392  -6.011  0.00  0.00    +0.137 C 
ATOM     27  C   UNL     1      -0.917   1.426  -7.184  0.00  0.00    +0.035 C 
ATOM     28  C   UNL     1       0.183   1.785  -8.213  0.00  0.00    +0.031 C 
ATOM     29  C   UNL     1       1.236   2.497  -7.326  0.00  0.00    +0.160 C 
ATOM     30  O   UNL     1       0.436   3.238  -6.377  0.00  0.00    -0.375 OA
ENDBRANCH  25  26
ENDBRANCH  20  25
ENDBRANCH  18  19
ENDBRANCH  17  18
ENDBRANCH  14  17
TORSDOF 5
