REMARK  Name = ZINC08535506
REMARK  4 active torsions:
REMARK  status: ('A' for Active; 'I' for Inactive)
REMARK    1  A    between atoms: C_1  and  C_2
REMARK    2  A    between atoms: C_5  and  C_21
REMARK    3  A    between atoms: C_10  and  C_13
REMARK    4  A    between atoms: N_19  and  C_20
REMARK                            x       y       z     vdW  Elec       q    Type
REMARK                         _______ _______ _______ _____ _____    ______ ____
ROOT
ATOM      1  C   UNL     1       0.845   1.867  -0.129  0.00  0.00    +0.030 C 
ATOM      2  C   UNL     1       0.855   0.340  -0.236  0.00  0.00    +0.079 C 
ATOM      3  C   UNL     1       1.764  -0.078  -1.393  0.00  0.00    +0.057 C 
ATOM      4  C   UNL     1       1.820  -1.611  -1.479  0.00  0.00    +0.201 C 
ATOM      5  N   UNL     1       2.181  -2.109  -0.147  0.00  0.00    -0.226 N 
ATOM      6  C   UNL     1       1.936  -1.386   1.013  0.00  0.00    +0.124 C 
ATOM      7  N   UNL     1       1.336  -0.230   1.028  0.00  0.00    -0.369 N 
ATOM      8  C   UNL     1       2.471  -2.188   2.118  0.00  0.00    +0.073 C 
ATOM      9  C   UNL     1       2.976  -3.329   1.571  0.00  0.00    +0.103 C 
ATOM     10  N   UNL     1       2.797  -3.300   0.215  0.00  0.00    -0.269 N 
ATOM     11  H   UNL     1       3.061  -4.004  -0.399  0.00  0.00    +0.170 HD
ATOM     12  H   UNL     1       1.209   0.247   1.863  0.00  0.00    +0.161 HD
ENDROOT
BRANCH   8  13
ATOM     13  C   UNL     1       2.465  -1.827   3.549  0.00  0.00    +0.167 A 
ATOM     14  N   UNL     1       2.064  -0.689   4.047  0.00  0.00    -0.153 NA
ATOM     15  N   UNL     1       2.218  -0.746   5.439  0.00  0.00    -0.254 N 
ATOM     16  H   UNL     1       2.000  -0.042   6.070  0.00  0.00    +0.191 HD
ATOM     17  C   UNL     1       2.724  -1.960   5.742  0.00  0.00    +0.176 A 
ATOM     18  S   UNL     1       3.098  -2.535   7.310  0.00  0.00    -0.011 S 
ATOM     19  N   UNL     1       2.876  -2.639   4.588  0.00  0.00    -0.306 N 
ATOM     20  C   UNL     1       3.393  -4.003   4.457  0.00  0.00    +0.153 C 
ENDBRANCH   8  13
BRANCH   4  21
ATOM     21  C   UNL     1       2.877  -2.037  -2.500  0.00  0.00    +0.410 C 
ATOM     22  F   UNL     1       4.128  -1.551  -2.106  0.00  0.00    -0.169 F 
ATOM     23  F   UNL     1       2.921  -3.434  -2.572  0.00  0.00    -0.169 F 
ATOM     24  F   UNL     1       2.549  -1.516  -3.756  0.00  0.00    -0.169 F 
ENDBRANCH   4  21
TORSDOF 2
