REMARK  Name = ZINC59891399
REMARK  11 active torsions:
REMARK  status: ('A' for Active; 'I' for Inactive)
REMARK    1  A    between atoms: C_1  and  C_2
REMARK    2  A    between atoms: C_2  and  C_3
REMARK    3  A    between atoms: C_6  and  C_18
REMARK    4  A    between atoms: C_8  and  S_9
REMARK    5  A    between atoms: S_9  and  N_12
REMARK    6  A    between atoms: N_20  and  C_21
REMARK    7  A    between atoms: C_21  and  C_22
REMARK    8  A    between atoms: C_22  and  N_30
REMARK    9  A    between atoms: C_26  and  C_29
REMARK   10  A    between atoms: N_30  and  C_31
REMARK   11  A    between atoms: N_30  and  C_32
REMARK                            x       y       z     vdW  Elec       q    Type
REMARK                         _______ _______ _______ _____ _____    ______ ____
ROOT
ATOM      1  C   UNL     1       0.736  -0.693  -1.365  0.00  0.00    -0.021 A 
ATOM      2  C   UNL     1      -0.074  -1.090  -2.414  0.00  0.00    +0.006 A 
ATOM      3  C   UNL     1       0.463  -1.773  -3.485  0.00  0.00    +0.013 A 
ATOM      4  C   UNL     1       1.828  -2.063  -3.510  0.00  0.00    +0.039 A 
ATOM      5  C   UNL     1       2.640  -1.660  -2.449  0.00  0.00    +0.041 A 
ATOM      6  C   UNL     1       2.091  -0.973  -1.386  0.00  0.00    +0.109 A 
ENDROOT
BRANCH   4   7
ATOM      7  C   UNL     1       2.411  -2.795  -4.654  0.00  0.00    +0.244 C 
ATOM      8  O   UNL     1       3.600  -3.047  -4.673  0.00  0.00    -0.270 OA
ATOM      9  N   UNL     1       1.624  -3.184  -5.677  0.00  0.00    -0.313 N 
ATOM     10  H   UNL     1       0.675  -2.983  -5.662  0.00  0.00    +0.149 HD
BRANCH   9  11
ATOM     11  C   UNL     1       2.201  -3.909  -6.811  0.00  0.00    +0.092 C 
BRANCH  11  12
ATOM     12  C   UNL     1       1.118  -4.156  -7.864  0.00  0.00    -0.050 C 
ATOM     13  C   UNL     1       0.543  -2.817  -8.328  0.00  0.00    -0.010 C 
ATOM     14  C   UNL     1      -0.539  -3.064  -9.380  0.00  0.00    -0.001 C 
ATOM     15  C   UNL     1      -1.656  -3.915  -8.772  0.00  0.00    +0.003 C 
ATOM     16  C   UNL     1      -1.081  -5.254  -8.307  0.00  0.00    -0.015 C 
ATOM     17  C   UNL     1       0.002  -5.007  -7.255  0.00  0.00    -0.007 C 
ATOM     18  C   UNL     1      -2.198  -6.105  -7.699  0.00  0.00    +0.007 C 
BRANCH  12  19
ATOM     19  N   UNL     1       1.703  -4.863  -9.011  0.00  0.00    +0.381 N 
ATOM     20  C   UNL     1       2.800  -4.063  -9.572  0.00  0.00    -0.096 C 
ATOM     21  C   UNL     1       2.221  -6.165  -8.572  0.00  0.00    -0.096 C 
ATOM     22  H   UNL     1       0.995  -5.003  -9.716  0.00  0.00    -0.082 HD
ENDBRANCH  12  19
ENDBRANCH  11  12
ENDBRANCH   9  11
ENDBRANCH   4   7
BRANCH   6  23
ATOM     23  S   UNL     1       3.116  -0.457  -0.049  0.00  0.00    +0.061 S 
ATOM     24  O   UNL     1       3.398   0.919  -0.261  0.00  0.00    -0.153 OA
ATOM     25  O   UNL     1       2.502  -0.934   1.141  0.00  0.00    -0.153 OA
BRANCH  23  26
ATOM     26  N   UNL     1       4.555  -1.264  -0.195  0.00  0.00    -0.172 NA
ATOM     27  C   UNL     1       4.716  -2.627   0.334  0.00  0.00    +0.137 C 
ATOM     28  C   UNL     1       5.308  -3.508  -0.772  0.00  0.00    +0.177 C 
ATOM     29  O   UNL     1       6.486  -2.885  -1.291  0.00  0.00    -0.377 OA
ATOM     30  C   UNL     1       6.253  -1.616  -1.907  0.00  0.00    +0.177 C 
ATOM     31  C   UNL     1       5.708  -0.640  -0.864  0.00  0.00    +0.137 C 
ENDBRANCH  23  26
ENDBRANCH   6  23
BRANCH   1  33
ATOM     32  C   UNL     1       0.324   1.558  -0.409  0.00  0.00    +0.009 C 
ATOM     33  C   UNL     1       0.142   0.053  -0.199  0.00  0.00    +0.034 C 
ENDBRANCH   1  33
TORSDOF 7
