REMARK  Name = ZINC01155598
REMARK  10 active torsions:
REMARK  status: ('A' for Active; 'I' for Inactive)
REMARK    1  A    between atoms: C_8  and  C_10
REMARK    2  A    between atoms: C_15  and  O_28
REMARK    3  A    between atoms: C_16  and  C_21
REMARK    4  A    between atoms: C_21  and  N_49
REMARK    5  A    between atoms: C_22  and  C_23
REMARK    6  A    between atoms: C_22  and  N_49
REMARK    7  A    between atoms: C_23  and  O_24
REMARK    8  A    between atoms: C_25  and  C_26
REMARK    9  A    between atoms: C_25  and  N_49
REMARK   10  A    between atoms: C_26  and  O_27
REMARK                            x       y       z     vdW  Elec       q    Type
REMARK                         _______ _______ _______ _____ _____    ______ ____
ROOT
ATOM      1  C   UNL     1       4.566  -0.767   1.786  0.00  0.00    +0.092 A 
ATOM      2  C   UNL     1       3.708  -1.852   1.779  0.00  0.00    +0.029 A 
ATOM      3  C   UNL     1       2.387  -1.673   1.299  0.00  0.00    +0.019 A 
ATOM      4  C   UNL     1       1.492  -2.754   1.279  0.00  0.00    +0.015 A 
ATOM      5  C   UNL     1       0.222  -2.578   0.817  0.00  0.00    +0.046 A 
ATOM      6  C   UNL     1      -0.197  -1.329   0.362  0.00  0.00    +0.122 A 
ATOM      7  C   UNL     1       0.672  -0.250   0.374  0.00  0.00    +0.020 A 
ATOM      8  C   UNL     1       1.970  -0.411   0.837  0.00  0.00    +0.144 A 
ATOM      9  O   UNL     1       2.814   0.644   0.851  0.00  0.00    -0.421 OA
ATOM     10  C   UNL     1       4.076   0.526   1.297  0.00  0.00    +0.347 A 
ATOM     11  O   UNL     1       4.814   1.493   1.294  0.00  0.00    -0.244 OA
ENDROOT
BRANCH   1  19
ATOM     12  C   UNL     1      10.410   0.177   3.470  0.00  0.00    +0.002 A 
ATOM     13  C   UNL     1      10.593  -1.141   3.865  0.00  0.00    +0.001 A 
ATOM     14  C   UNL     1       9.545  -2.035   3.746  0.00  0.00    +0.017 A 
ATOM     15  C   UNL     1       8.343  -1.604   3.241  0.00  0.00    +0.040 A 
ATOM     16  C   UNL     1       8.126  -0.267   2.830  0.00  0.00    +0.079 A 
ATOM     17  C   UNL     1       9.225   0.615   2.968  0.00  0.00    +0.029 A 
ATOM     18  N   UNL     1       6.895   0.005   2.356  0.00  0.00    -0.239 NA
ATOM     19  C   UNL     1       5.949  -0.908   2.277  0.00  0.00    +0.116 A 
ATOM     20  S   UNL     1       6.768  -2.360   2.922  0.00  0.00    -0.067 S 
ENDBRANCH   1  19
BRANCH   6  21
ATOM     21  O   UNL     1      -1.464  -1.168  -0.096  0.00  0.00    -0.506 OA
ATOM     22  H   UNL     1      -1.579  -1.405  -1.026  0.00  0.00    +0.292 HD
ENDBRANCH   6  21
BRANCH   7  23
ATOM     23  C   UNL     1       0.208   1.097  -0.120  0.00  0.00    -0.035 C 
BRANCH  23  24
ATOM     24  N   UNL     1      -0.180   1.920   1.044  0.00  0.00    +0.385 N 
ATOM     25  H   UNL     1       0.522   1.805   1.784  0.00  0.00    -0.081 HD
BRANCH  24  26
ATOM     26  C   UNL     1      -0.241   3.345   0.657  0.00  0.00    -0.050 C 
BRANCH  26  27
ATOM     27  C   UNL     1      -0.529   4.186   1.903  0.00  0.00    +0.137 C 
BRANCH  27  28
ATOM     28  O   UNL     1       0.564   4.075   2.816  0.00  0.00    -0.397 OA
ATOM     29  H   UNL     1       0.449   4.583   3.630  0.00  0.00    +0.209 HD
ENDBRANCH  27  28
ENDBRANCH  26  27
ENDBRANCH  24  26
BRANCH  24  30
ATOM     30  C   UNL     1      -1.495   1.481   1.558  0.00  0.00    -0.050 C 
BRANCH  30  31
ATOM     31  C   UNL     1      -2.602   1.817   0.556  0.00  0.00    +0.137 C 
BRANCH  31  32
ATOM     32  O   UNL     1      -2.431   1.030  -0.624  0.00  0.00    -0.397 OA
ATOM     33  H   UNL     1      -3.052   1.245  -1.333  0.00  0.00    +0.209 HD
ENDBRANCH  31  32
ENDBRANCH  30  31
ENDBRANCH  24  30
ENDBRANCH  23  24
ENDBRANCH   7  23
TORSDOF 10
