REMARK  Name = ZINC62320721
REMARK  11 active torsions:
REMARK  status: ('A' for Active; 'I' for Inactive)
REMARK    1  A    between atoms: C_1  and  C_2
REMARK    2  A    between atoms: C_2  and  C_3
REMARK    3  A    between atoms: C_2  and  C_4
REMARK    4  A    between atoms: C_4  and  C_5
REMARK    5  A    between atoms: C_5  and  N_6
REMARK    6  A    between atoms: C_8  and  C_18
REMARK    7  A    between atoms: C_16  and  N_17
REMARK    8  A    between atoms: N_20  and  C_21
REMARK    9  A    between atoms: C_21  and  C_22
REMARK   10  A    between atoms: C_21  and  C_23
REMARK   11  A    between atoms: C_21  and  C_24
REMARK                            x       y       z     vdW  Elec       q    Type
REMARK                         _______ _______ _______ _____ _____    ______ ____
ROOT
ATOM      1  N   UNL     1      -2.494  -2.484  -0.259  0.00  0.00    -0.346 N 
ATOM      2  C   UNL     1      -2.890  -2.778   0.988  0.00  0.00    +0.103 A 
ATOM      3  C   UNL     1      -4.141  -3.290   1.259  0.00  0.00    +0.100 A 
ATOM      4  C   UNL     1      -5.073  -3.522   0.143  0.00  0.00    +0.203 A 
ATOM      5  O   UNL     1      -6.190  -3.973   0.331  0.00  0.00    -0.286 OA
ATOM      6  C   UNL     1      -4.600  -3.187  -1.209  0.00  0.00    +0.066 A 
ATOM      7  C   UNL     1      -3.303  -2.664  -1.360  0.00  0.00    +0.055 A 
ATOM      8  C   UNL     1      -2.846  -2.338  -2.633  0.00  0.00    +0.026 A 
ATOM      9  C   UNL     1      -3.662  -2.522  -3.731  0.00  0.00    +0.004 A 
ATOM     10  C   UNL     1      -4.941  -3.030  -3.588  0.00  0.00    +0.023 A 
ATOM     11  C   UNL     1      -5.418  -3.375  -2.332  0.00  0.00    +0.037 A 
ENDROOT
BRANCH   3  12
ATOM     12  C   UNL     1      -4.538  -3.601   2.641  0.00  0.00    +0.250 C 
ATOM     13  O   UNL     1      -3.726  -3.507   3.543  0.00  0.00    -0.270 OA
ATOM     14  N   UNL     1      -5.800  -3.989   2.909  0.00  0.00    -0.306 N 
ATOM     15  H   UNL     1      -6.428  -4.131   2.183  0.00  0.00    +0.150 HD
BRANCH  14  16
ATOM     16  C   UNL     1      -6.225  -4.194   4.296  0.00  0.00    +0.026 C 
ATOM     17  C   UNL     1      -6.066  -2.888   5.077  0.00  0.00    +0.031 C 
ATOM     18  C   UNL     1      -7.692  -4.628   4.321  0.00  0.00    +0.031 C 
ATOM     19  C   UNL     1      -5.361  -5.281   4.938  0.00  0.00    +0.031 C 
ENDBRANCH  14  16
ENDBRANCH   3  12
BRANCH  11  20
ATOM     20  N   UNL     1      -6.702  -3.885  -2.186  0.00  0.00    -0.357 N 
ATOM     21  H   UNL     1      -7.066  -4.036  -1.299  0.00  0.00    +0.142 HD
ATOM     22  H   UNL     1      -7.235  -4.091  -2.970  0.00  0.00    +0.142 HD
ENDBRANCH  11  20
BRANCH   1  23
ATOM     23  C   UNL     1      -1.148  -1.943  -0.458  0.00  0.00    +0.122 C 
BRANCH  23  24
ATOM     24  C   UNL     1      -1.193  -0.416  -0.368  0.00  0.00    +0.024 C 
BRANCH  24  26
ATOM     25  C   UNL     1       0.149   1.677  -0.612  0.00  0.00    +0.007 C 
ATOM     26  C   UNL     1       0.213   0.149  -0.577  0.00  0.00    -0.016 C 
ATOM     27  C   UNL     1       1.118  -0.297   0.574  0.00  0.00    +0.007 C 
ENDBRANCH  24  26
ENDBRANCH  23  24
ENDBRANCH   1  23
TORSDOF 6
