REMARK  Name = ZINC42364568
REMARK  7 active torsions:
REMARK  status: ('A' for Active; 'I' for Inactive)
REMARK    1  A    between atoms: C_1  and  N_2
REMARK    2  A    between atoms: N_2  and  C_3
REMARK    3  A    between atoms: C_3  and  C_4
REMARK    4  A    between atoms: C_6  and  C_9
REMARK    5  A    between atoms: C_10  and  C_11
REMARK    6  A    between atoms: C_11  and  N_12
REMARK    7  A    between atoms: C_13  and  C_15
REMARK                            x       y       z     vdW  Elec       q    Type
REMARK                         _______ _______ _______ _____ _____    ______ ____
ROOT
ATOM      1  C   UNL     1       0.252  -0.764   1.246  0.00  0.00    +0.143 C 
ENDROOT
BRANCH   1   2
ATOM      2  C   UNL     1      -1.105  -0.916   1.885  0.00  0.00    -0.022 A 
ATOM      3  C   UNL     1      -1.570   0.034   2.766  0.00  0.00    +0.029 A 
ATOM      4  C   UNL     1      -2.810  -0.139   3.327  0.00  0.00    +0.062 A 
ATOM      5  S   UNL     1      -3.333  -1.680   2.593  0.00  0.00    -0.088 S 
ATOM      6  C   UNL     1      -1.885  -1.988   1.594  0.00  0.00    +0.051 A 
BRANCH   4   7
ATOM      7  C   UNL     1      -3.503   0.698   4.259  0.00  0.00    -0.061 C 
ATOM      8  C   UNL     1      -4.072   1.384   5.023  0.00  0.00    -0.116 C 
BRANCH   8   9
ATOM      9  C   UNL     1      -4.785   2.245   5.981  0.00  0.00    +0.005 C 
BRANCH   9  10
ATOM     10  N   UNL     1      -6.090   1.649   6.297  0.00  0.00    +0.385 N 
ATOM     11  H   UNL     1      -6.579   2.239   6.954  0.00  0.00    -0.089 HD
ATOM     12  H   UNL     1      -6.635   1.563   5.452  0.00  0.00    -0.089 HD
ATOM     13  H   UNL     1      -5.953   0.735   6.703  0.00  0.00    -0.089 HD
ENDBRANCH   9  10
ENDBRANCH   8   9
ENDBRANCH   4   7
ENDBRANCH   1   2
BRANCH   1  15
ATOM     14  C   UNL     1       0.230   1.444  -0.004  0.00  0.00    +0.132 C 
ATOM     15  N   UNL     1       0.120  -0.017  -0.007  0.00  0.00    -0.296 N 
ATOM     16  C   UNL     1      -0.102  -0.673  -1.163  0.00  0.00    +0.250 C 
ATOM     17  O   UNL     1      -0.283  -1.875  -1.155  0.00  0.00    -0.270 OA
BRANCH  16  18
ATOM     18  C   UNL     1      -0.124   0.067  -2.439  0.00  0.00    +0.072 A 
ATOM     19  C   UNL     1      -1.360   0.414  -3.043  0.00  0.00    +0.023 A 
ATOM     20  C   UNL     1      -1.348   1.097  -4.218  0.00  0.00    +0.093 A 
ATOM     21  C   UNL     1      -0.114   1.440  -4.804  0.00  0.00    +0.337 A 
ATOM     22  O   UNL     1      -0.093   2.053  -5.857  0.00  0.00    -0.245 OA
ATOM     23  O   UNL     1       1.042   1.098  -4.209  0.00  0.00    -0.430 OA
ATOM     24  C   UNL     1       1.054   0.431  -3.050  0.00  0.00    +0.212 A 
ENDBRANCH  16  18
ENDBRANCH   1  15
TORSDOF 6
