REMARK  Name = ZINC45368682
REMARK  5 active torsions:
REMARK  status: ('A' for Active; 'I' for Inactive)
REMARK    1  A    between atoms: C_4  and  N_7
REMARK    2  A    between atoms: N_10  and  C_13
REMARK    3  A    between atoms: C_13  and  C_14
REMARK    4  A    between atoms: C_14  and  C_16
REMARK    5  A    between atoms: C_14  and  N_19
REMARK                            x       y       z     vdW  Elec       q    Type
REMARK                         _______ _______ _______ _____ _____    ______ ____
ROOT
ATOM      1  N   UNL     1       3.584  -0.445   0.256  0.00  0.00    -0.327 N 
ATOM      2  C   UNL     1       4.854   0.294   0.199  0.00  0.00    +0.120 C 
ATOM      3  C   UNL     1       5.812  -0.304   1.235  0.00  0.00    +0.103 C 
ATOM      4  N   UNL     1       5.926  -1.752   1.013  0.00  0.00    -0.300 NA
ATOM      5  C   UNL     1       4.636  -2.425   1.215  0.00  0.00    +0.103 C 
ATOM      6  C   UNL     1       3.630  -1.914   0.185  0.00  0.00    +0.120 C 
ENDROOT
BRANCH   1  10
ATOM      7  C   UNL     1      -0.044   1.564   0.626  0.00  0.00    +0.000 A 
ATOM      8  C   UNL     1       1.145   2.267   0.699  0.00  0.00    +0.002 A 
ATOM      9  C   UNL     1       2.350   1.604   0.577  0.00  0.00    +0.023 A 
ATOM     10  C   UNL     1       2.367   0.229   0.381  0.00  0.00    +0.030 A 
ATOM     11  C   UNL     1       1.171  -0.475   0.308  0.00  0.00    +0.023 A 
ATOM     12  C   UNL     1      -0.030   0.195   0.431  0.00  0.00    +0.002 A 
ENDBRANCH   1  10
BRANCH   4  13
ATOM     13  C   UNL     1       6.965  -2.336   1.872  0.00  0.00    +0.077 C 
BRANCH  13  14
ATOM     14  C   UNL     1       8.337  -1.814   1.441  0.00  0.00    +0.027 C 
BRANCH  14  15
ATOM     15  C   UNL     1       9.410  -2.488   2.256  0.00  0.00    +0.197 C 
ATOM     16  O   UNL     1      10.034  -3.417   1.788  0.00  0.00    -0.278 OA
ATOM     17  N   UNL     1       9.676  -2.058   3.506  0.00  0.00    -0.331 N 
ATOM     18  H   UNL     1       9.177  -1.315   3.880  0.00  0.00    +0.145 HD
ATOM     19  H   UNL     1      10.367  -2.492   4.031  0.00  0.00    +0.145 HD
ENDBRANCH  14  15
BRANCH  14  20
ATOM     20  N   UNL     1       8.547  -2.107   0.017  0.00  0.00    +0.387 N 
ATOM     21  H   UNL     1       8.581  -3.106  -0.119  0.00  0.00    -0.089 HD
ATOM     22  H   UNL     1       7.787  -1.720  -0.522  0.00  0.00    -0.089 HD
ATOM     23  H   UNL     1       9.417  -1.696  -0.286  0.00  0.00    -0.089 HD
ENDBRANCH  14  20
ENDBRANCH  13  14
ENDBRANCH   4  13
TORSDOF 5
