REMARK  Name = ZINC00527155
REMARK  7 active torsions:
REMARK  status: ('A' for Active; 'I' for Inactive)
REMARK    1  A    between atoms: C_1  and  C_2
REMARK    2  A    between atoms: C_2  and  C_4
REMARK    3  A    between atoms: C_5  and  C_21
REMARK    4  A    between atoms: C_7  and  N_20
REMARK    5  A    between atoms: C_8  and  C_18
REMARK    6  A    between atoms: C_9  and  C_11
REMARK    7  A    between atoms: C_14  and  O_17
REMARK                            x       y       z     vdW  Elec       q    Type
REMARK                         _______ _______ _______ _____ _____    ______ ____
ROOT
ATOM      1  C   UNL     1      -1.262  -0.759  -0.423  0.00  0.00    +0.050 C 
ATOM      2  C   UNL     1      -1.174  -2.077  -0.096  0.00  0.00    +0.145 C 
ATOM      3  O   UNL     1      -2.244  -2.768   0.337  0.00  0.00    -0.440 OA
ATOM      4  C   UNL     1      -3.320  -2.111   0.807  0.00  0.00    +0.199 C 
ATOM      5  C   UNL     1      -3.532  -0.802   0.533  0.00  0.00    +0.098 C 
ATOM      6  C   UNL     1      -2.566  -0.019  -0.310  0.00  0.00    +0.101 C 
ENDROOT
BRANCH   6   7
ATOM      7  C   UNL     1      -3.152   0.176  -1.684  0.00  0.00    -0.034 A 
ATOM      8  C   UNL     1      -3.462  -0.923  -2.464  0.00  0.00    +0.008 A 
ATOM      9  C   UNL     1      -3.998  -0.748  -3.725  0.00  0.00    +0.046 A 
ATOM     10  C   UNL     1      -4.228   0.532  -4.208  0.00  0.00    +0.117 A 
ATOM     11  C   UNL     1      -3.917   1.633  -3.423  0.00  0.00    +0.046 A 
ATOM     12  C   UNL     1      -3.385   1.452  -2.161  0.00  0.00    +0.008 A 
BRANCH  10  13
ATOM     13  O   UNL     1      -4.755   0.708  -5.448  0.00  0.00    -0.507 OA
ATOM     14  H   UNL     1      -5.721   0.743  -5.463  0.00  0.00    +0.292 HD
ENDBRANCH  10  13
ENDBRANCH   6   7
BRANCH   2  15
ATOM     15  C   UNL     1       0.125  -2.764  -0.216  0.00  0.00    +0.018 A 
ATOM     16  C   UNL     1       1.189  -2.406   0.617  0.00  0.00    +0.011 A 
ATOM     17  C   UNL     1       2.401  -3.054   0.499  0.00  0.00    +0.001 A 
ATOM     18  C   UNL     1       2.566  -4.054  -0.443  0.00  0.00    +0.000 A 
ATOM     19  C   UNL     1       1.517  -4.413  -1.272  0.00  0.00    +0.001 A 
ATOM     20  C   UNL     1       0.298  -3.779  -1.161  0.00  0.00    +0.011 A 
ENDBRANCH   2  15
BRANCH   1  22
ATOM     21  C   UNL     1      -0.168   1.408  -1.093  0.00  0.00    +0.091 C 
ATOM     22  C   UNL     1      -0.120  -0.081  -0.867  0.00  0.00    +0.161 C 
ATOM     23  O   UNL     1       0.910  -0.694  -1.071  0.00  0.00    -0.293 OA
ENDBRANCH   1  22
BRANCH   4  24
ATOM     24  N   UNL     1      -4.227  -2.786   1.585  0.00  0.00    -0.328 N 
ATOM     25  H   UNL     1      -4.088  -3.724   1.790  0.00  0.00    +0.145 HD
ATOM     26  H   UNL     1      -5.008  -2.325   1.931  0.00  0.00    +0.145 HD
ENDBRANCH   4  24
BRANCH   5  27
ATOM     27  C   UNL     1      -4.694  -0.151   1.060  0.00  0.00    +0.101 C 
ATOM     28  N   UNL     1      -5.615   0.365   1.478  0.00  0.00    -0.191 NA
ENDBRANCH   5  27
TORSDOF 6
