REMARK  Name = ZINC31315078
REMARK  6 active torsions:
REMARK  status: ('A' for Active; 'I' for Inactive)
REMARK    1  A    between atoms: C_3  and  N_21
REMARK    2  A    between atoms: C_6  and  C_7
REMARK    3  A    between atoms: C_7  and  N_8
REMARK    4  A    between atoms: C_9  and  C_11
REMARK    5  A    between atoms: C_11  and  N_12
REMARK    6  A    between atoms: C_13  and  C_15
REMARK                            x       y       z     vdW  Elec       q    Type
REMARK                         _______ _______ _______ _____ _____    ______ ____
ROOT
ATOM      1  N   UNL     1      -0.011   0.966   0.007  0.00  0.00    -0.310 N 
ATOM      2  C   UNL     1       1.147   1.655   0.000  0.00  0.00    +0.230 C 
ATOM      3  O   UNL     1       1.130   2.868   0.007  0.00  0.00    -0.274 OA
ATOM      4  H   UNL     1       0.004  -0.134   0.006  0.00  0.00    +0.149 HD
ENDROOT
BRANCH   1   5
ATOM      5  C   UNL     1      -1.290   1.681   0.017  0.00  0.00    +0.141 C 
BRANCH   5  11
ATOM      6  C   UNL     1      -2.943   0.217   1.216  0.00  0.00    +0.010 A 
ATOM      7  C   UNL     1      -3.982  -0.696   1.171  0.00  0.00    +0.042 A 
ATOM      8  C   UNL     1      -4.466  -1.110  -0.065  0.00  0.00    +0.099 A 
ATOM      9  N   UNL     1      -3.942  -0.639  -1.186  0.00  0.00    -0.349 N 
ATOM     10  C   UNL     1      -2.955   0.237  -1.174  0.00  0.00    +0.089 A 
ATOM     11  C   UNL     1      -2.422   0.686   0.017  0.00  0.00    -0.014 A 
ATOM     12  H   UNL     1      -4.329  -0.977  -2.159  0.00  0.00    +0.167 HD
BRANCH   8  13
ATOM     13  N   UNL     1      -5.510  -2.026  -0.124  0.00  0.00    -0.317 N 
ATOM     14  C   UNL     1      -6.739  -1.474   0.499  0.00  0.00    +0.106 C 
ATOM     15  C   UNL     1      -7.867  -2.347  -0.106  0.00  0.00    +0.020 C 
ATOM     16  C   UNL     1      -7.391  -2.566  -1.561  0.00  0.00    +0.020 C 
ATOM     17  C   UNL     1      -5.870  -2.329  -1.526  0.00  0.00    +0.106 C 
ENDBRANCH   8  13
ENDBRANCH   5  11
ENDBRANCH   1   5
BRANCH   2  18
ATOM     18  C   UNL     1       2.462   0.920  -0.017  0.00  0.00    +0.200 C 
BRANCH  18  19
ATOM     19  N   UNL     1       3.562   1.887  -0.022  0.00  0.00    -0.300 N 
ATOM     20  C   UNL     1       4.839   1.455  -0.036  0.00  0.00    +0.280 C 
ATOM     21  O   UNL     1       5.078   0.262  -0.045  0.00  0.00    -0.267 OA
ATOM     22  H   UNL     1       3.347   2.966  -0.014  0.00  0.00    +0.150 HD
BRANCH  20  23
ATOM     23  C   UNL     1       5.940   2.422  -0.042  0.00  0.00    +0.191 A 
ATOM     24  C   UNL     1       7.272   2.122  -0.056  0.00  0.00    +0.056 A 
ATOM     25  C   UNL     1       7.962   3.344  -0.056  0.00  0.00    +0.058 A 
ATOM     26  C   UNL     1       7.032   4.326  -0.042  0.00  0.00    +0.171 A 
ATOM     27  O   UNL     1       5.815   3.766  -0.039  0.00  0.00    -0.444 OA
ATOM     28 BR   UNL     1       7.390   6.183  -0.035  0.00  0.00    -0.008 Br
ENDBRANCH  20  23
ENDBRANCH  18  19
ENDBRANCH   2  18
TORSDOF 6
