REMARK  Name = ZINC05433818
REMARK  7 active torsions:
REMARK  status: ('A' for Active; 'I' for Inactive)
REMARK    1  A    between atoms: C_1  and  C_2
REMARK    2  A    between atoms: C_2  and  C_3
REMARK    3  A    between atoms: C_2  and  N_4
REMARK    4  A    between atoms: C_11  and  C_14
REMARK    5  A    between atoms: N_16  and  C_17
REMARK    6  A    between atoms: C_25  and  C_27
REMARK    7  A    between atoms: C_27  and  N_54
REMARK                            x       y       z     vdW  Elec       q    Type
REMARK                         _______ _______ _______ _____ _____    ______ ____
ROOT
ATOM      1  N   UNL     1       4.157   5.294   1.338  0.00  0.00    -0.297 N 
ATOM      2  C   UNL     1       2.899   4.808   1.341  0.00  0.00    +0.303 C 
ATOM      3  O   UNL     1       1.953   5.571   1.359  0.00  0.00    -0.253 OA
ATOM      4  N   UNL     1       2.691   3.477   1.323  0.00  0.00    -0.282 N 
ATOM      5  C   UNL     1       3.821   2.542   1.412  0.00  0.00    +0.128 C 
ATOM      6  C   UNL     1       3.767   1.591   0.209  0.00  0.00    +0.127 C 
ATOM      7  N   UNL     1       2.406   1.048   0.101  0.00  0.00    -0.288 N 
ATOM      8  C   UNL     1       1.276   1.983   0.012  0.00  0.00    +0.179 C 
ATOM      9  C   UNL     1       1.330   2.934   1.214  0.00  0.00    +0.141 C 
ATOM     10  C   UNL     1       2.198  -0.283   0.083  0.00  0.00    +0.199 C 
ATOM     11  O   UNL     1       1.083  -0.720  -0.112  0.00  0.00    -0.278 OA
ATOM     12  H   UNL     1       4.911   4.687   1.397  0.00  0.00    +0.150 HD
ENDROOT
BRANCH   8  13
ATOM     13  C   UNL     1      -0.020   1.214   0.033  0.00  0.00    +0.236 C 
ATOM     14  O   UNL     1      -0.784   1.287  -0.906  0.00  0.00    -0.274 OA
ATOM     15  N   UNL     1      -0.332   0.449   1.098  0.00  0.00    -0.302 N 
ATOM     16  H   UNL     1       0.279   0.391   1.849  0.00  0.00    +0.150 HD
BRANCH  15  17
ATOM     17  C   UNL     1      -1.595  -0.294   1.121  0.00  0.00    +0.159 C 
ATOM     18  C   UNL     1      -1.456  -1.503   2.050  0.00  0.00    +0.033 C 
ATOM     19  C   UNL     1      -2.849  -2.103   2.276  0.00  0.00    +0.021 C 
ATOM     20  C   UNL     1      -3.684  -1.109   3.084  0.00  0.00    +0.104 C 
ATOM     21  N   UNL     1      -3.632   0.215   2.476  0.00  0.00    -0.314 N 
ATOM     22  C   UNL     1      -2.693   0.605   1.613  0.00  0.00    +0.233 C 
ATOM     23  O   UNL     1      -2.729   1.745   1.203  0.00  0.00    -0.274 OA
ATOM     24  H   UNL     1      -4.324   0.852   2.714  0.00  0.00    +0.149 HD
ENDBRANCH  15  17
ENDBRANCH   8  13
BRANCH   1  26
ATOM     25  C   UNL     1       4.304   7.357   2.643  0.00  0.00    +0.027 C 
ATOM     26  C   UNL     1       4.384   6.738   1.246  0.00  0.00    +0.068 C 
ATOM     27  C   UNL     1       5.769   7.000   0.651  0.00  0.00    +0.027 C 
ENDBRANCH   1  26
BRANCH  10  28
ATOM     28  C   UNL     1       3.350  -1.229   0.304  0.00  0.00    +0.011 C 
BRANCH  28  31
ATOM     29  H   UNL     1       3.621  -3.268   0.383  0.00  0.00    -0.089 HD
ATOM     30  H   UNL     1       2.121  -2.769   0.899  0.00  0.00    -0.089 HD
ATOM     31  N   UNL     1       2.858  -2.615   0.213  0.00  0.00    +0.384 N 
ATOM     32  H   UNL     1       2.480  -2.778  -0.727  0.00  0.00    -0.089 HD
ENDBRANCH  28  31
ENDBRANCH  10  28
TORSDOF 5
