REMARK  Name = ZINC32088857
REMARK  13 active torsions:
REMARK  status: ('A' for Active; 'I' for Inactive)
REMARK    1  A    between atoms: C_1  and  C_2
REMARK    2  A    between atoms: C_2  and  C_3
REMARK    3  A    between atoms: C_2  and  C_4
REMARK    4  A    between atoms: C_7  and  O_10
REMARK    5  A    between atoms: O_10  and  C_11
REMARK    6  A    between atoms: C_14  and  C_17
REMARK    7  A    between atoms: C_17  and  C_19
REMARK    8  A    between atoms: C_17  and  N_21
REMARK    9  A    between atoms: C_19  and  N_20
REMARK   10  A    between atoms: N_21  and  C_22
REMARK   11  A    between atoms: N_21  and  C_23
REMARK   12  A    between atoms: C_23  and  C_24
REMARK   13  A    between atoms: C_24  and  O_25
REMARK                            x       y       z     vdW  Elec       q    Type
REMARK                         _______ _______ _______ _____ _____    ______ ____
ROOT
ATOM      1  C   UNL     1       2.037   0.983   4.088  0.00  0.00    +0.128 A 
ATOM      2  C   UNL     1       0.911   0.189   3.924  0.00  0.00    +0.046 A 
ATOM      3  C   UNL     1       0.061   0.410   2.857  0.00  0.00    +0.009 A 
ATOM      4  C   UNL     1       0.331   1.422   1.955  0.00  0.00    -0.032 A 
ATOM      5  C   UNL     1       1.455   2.212   2.113  0.00  0.00    +0.009 A 
ATOM      6  C   UNL     1       2.306   1.998   3.180  0.00  0.00    +0.046 A 
ENDROOT
BRANCH   1   7
ATOM      7  O   UNL     1       2.875   0.768   5.136  0.00  0.00    -0.456 OA
BRANCH   7  11
ATOM      8  C   UNL     1       5.192  -2.645   5.094  0.00  0.00    -0.045 A 
ATOM      9  C   UNL     1       5.255  -1.781   6.172  0.00  0.00    +0.007 A 
ATOM     10  C   UNL     1       4.481  -0.637   6.188  0.00  0.00    +0.046 A 
ATOM     11  C   UNL     1       3.638  -0.356   5.122  0.00  0.00    +0.128 A 
ATOM     12  C   UNL     1       3.572  -1.228   4.045  0.00  0.00    +0.046 A 
ATOM     13  C   UNL     1       4.353  -2.367   4.031  0.00  0.00    +0.007 A 
BRANCH   8  15
ATOM     14  C   UNL     1       5.134  -5.122   4.990  0.00  0.00    +0.012 C 
ATOM     15  C   UNL     1       6.039  -3.891   5.079  0.00  0.00    +0.013 C 
ATOM     16  C   UNL     1       6.974  -3.857   3.868  0.00  0.00    +0.012 C 
ENDBRANCH   8  15
ENDBRANCH   7  11
ENDBRANCH   1   7
BRANCH   4  17
ATOM     17  C   UNL     1      -0.598   1.661   0.793  0.00  0.00    +0.069 C 
BRANCH  17  18
ATOM     18  N   UNL     1      -0.757   3.107   0.582  0.00  0.00    -0.298 NA
ATOM     19  C   UNL     1      -1.170   3.777   1.823  0.00  0.00    +0.105 C 
BRANCH  18  20
ATOM     20  C   UNL     1      -1.708   3.379  -0.505  0.00  0.00    +0.112 C 
BRANCH  20  21
ATOM     21  C   UNL     1      -1.554   4.830  -0.965  0.00  0.00    +0.171 C 
BRANCH  21  22
ATOM     22  O   UNL     1      -0.259   5.012  -1.540  0.00  0.00    -0.394 OA
ATOM     23  H   UNL     1       0.036   5.998  -1.930  0.00  0.00    +0.209 HD
ENDBRANCH  21  22
ENDBRANCH  20  21
ENDBRANCH  18  20
ENDBRANCH  17  18
BRANCH  17  24
ATOM     24  C   UNL     1      -0.012   1.024  -0.469  0.00  0.00    -0.063 C 
BRANCH  24  25
ATOM     25  N   UNL     1       0.111  -0.427  -0.273  0.00  0.00    +0.379 N 
ATOM     26  H   UNL     1       0.533  -0.885  -1.179  0.00  0.00    -0.090 HD
ATOM     27  H   UNL     1      -0.882  -0.855  -0.073  0.00  0.00    -0.090 HD
ATOM     28  H   UNL     1       0.775  -0.626   0.582  0.00  0.00    -0.090 HD
ENDBRANCH  24  25
ENDBRANCH  17  24
ENDBRANCH   4  17
TORSDOF 10
