REMARK  Name = ZINC16613176
REMARK  10 active torsions:
REMARK  status: ('A' for Active; 'I' for Inactive)
REMARK    1  A    between atoms: C_1  and  O_2
REMARK    2  A    between atoms: O_2  and  C_3
REMARK    3  A    between atoms: C_3  and  C_4
REMARK    4  A    between atoms: C_4  and  C_5
REMARK    5  A    between atoms: C_5  and  N_6
REMARK    6  A    between atoms: C_7  and  C_9
REMARK    7  A    between atoms: C_9  and  N_10
REMARK    8  A    between atoms: N_12  and  C_33
REMARK    9  A    between atoms: N_23  and  C_24
REMARK   10  A    between atoms: C_27  and  N_30
REMARK                            x       y       z     vdW  Elec       q    Type
REMARK                         _______ _______ _______ _____ _____    ______ ____
ROOT
ATOM      1  N   UNL     1       4.671   4.390   0.447  0.00  0.00    -0.275 N 
ATOM      2  C   UNL     1       5.118   3.529  -0.656  0.00  0.00    +0.217 C 
ATOM      3  N   UNL     1       4.005   3.499  -1.634  0.00  0.00    -0.300 N 
ATOM      4  C   UNL     1       2.816   3.758  -0.795  0.00  0.00    +0.115 C 
ATOM      5  C   UNL     1       3.330   4.532   0.394  0.00  0.00    +0.241 C 
ATOM      6  O   UNL     1       2.654   5.174   1.170  0.00  0.00    -0.273 OA
ATOM      7  C   UNL     1       2.198   2.438  -0.342  0.00  0.00    +0.054 C 
ATOM      8  C   UNL     1       1.000   2.724   0.569  0.00  0.00    +0.112 C 
ATOM      9  N   UNL     1       0.078   3.627  -0.133  0.00  0.00    -0.285 N 
ATOM     10  C   UNL     1       0.598   4.890  -0.674  0.00  0.00    +0.112 C 
ATOM     11  C   UNL     1       1.799   4.590  -1.571  0.00  0.00    +0.054 C 
ATOM     12  C   UNL     1      -1.221   3.301  -0.283  0.00  0.00    +0.306 C 
ATOM     13  O   UNL     1      -1.615   2.201   0.057  0.00  0.00    -0.252 OA
ATOM     14  N   UNL     1      -2.083   4.190  -0.814  0.00  0.00    -0.269 N 
ATOM     15  H   UNL     1      -1.755   5.034  -1.163  0.00  0.00    +0.156 HD
ENDROOT
BRANCH  14  16
ATOM     16  C   UNL     1      -3.450   3.897  -0.863  0.00  0.00    +0.035 A 
ATOM     17  C   UNL     1      -3.877   2.576  -0.911  0.00  0.00    +0.025 A 
ATOM     18  C   UNL     1      -5.228   2.290  -0.954  0.00  0.00    +0.034 A 
ATOM     19  C   UNL     1      -6.154   3.317  -0.960  0.00  0.00    +0.126 A 
ATOM     20  C   UNL     1      -5.732   4.633  -0.917  0.00  0.00    +0.034 A 
ATOM     21  C   UNL     1      -4.383   4.926  -0.868  0.00  0.00    +0.025 A 
BRANCH  19  22
ATOM     22  N   UNL     1      -7.600   3.007  -1.012  0.00  0.00    +0.056 N 
ATOM     23  O   UNL     1      -8.417   3.910  -1.017  0.00  0.00    -0.126 OA
ATOM     24  O   UNL     1      -7.974   1.848  -1.050  0.00  0.00    -0.126 OA
ENDBRANCH  19  22
ENDBRANCH  14  16
BRANCH   3  25
ATOM     25  C   UNL     1       3.918   2.252  -2.255  0.00  0.00    +0.032 A 
ATOM     26  C   UNL     1       5.010   1.393  -2.249  0.00  0.00    +0.023 A 
ATOM     27  C   UNL     1       4.918   0.158  -2.861  0.00  0.00    +0.002 A 
ATOM     28  C   UNL     1       3.745  -0.220  -3.488  0.00  0.00    +0.000 A 
ATOM     29  C   UNL     1       2.658   0.635  -3.500  0.00  0.00    +0.002 A 
ATOM     30  C   UNL     1       2.741   1.869  -2.886  0.00  0.00    +0.023 A 
ENDBRANCH   3  25
BRANCH   1  31
ATOM     31  C   UNL     1       5.547   5.000   1.450  0.00  0.00    +0.205 C 
BRANCH  31  33
ATOM     32  N   UNL     1       6.458   4.421   3.675  0.00  0.00    -0.314 N 
ATOM     33  C   UNL     1       5.693   4.067   2.624  0.00  0.00    +0.230 C 
ATOM     34  O   UNL     1       5.122   2.997   2.623  0.00  0.00    -0.274 OA
ATOM     35  H   UNL     1       6.915   5.277   3.676  0.00  0.00    +0.149 HD
BRANCH  32  36
ATOM     36  C   UNL     1       6.600   3.514   4.817  0.00  0.00    +0.106 C 
BRANCH  36  37
ATOM     37  C   UNL     1       7.515   4.152   5.864  0.00  0.00    +0.047 C 
BRANCH  37  38
ATOM     38  C   UNL     1       7.663   3.204   7.056  0.00  0.00    +0.161 C 
BRANCH  38  40
ATOM     39  C   UNL     1       8.723   2.992   9.196  0.00  0.00    +0.193 C 
ATOM     40  O   UNL     1       8.518   3.800   8.035  0.00  0.00    -0.383 OA
ENDBRANCH  38  40
ENDBRANCH  37  38
ENDBRANCH  36  37
ENDBRANCH  32  36
ENDBRANCH  31  33
ENDBRANCH   1  31
TORSDOF 9
