REMARK  Name = ZINC58092163
REMARK  9 active torsions:
REMARK  status: ('A' for Active; 'I' for Inactive)
REMARK    1  A    between atoms: C_1  and  C_2
REMARK    2  A    between atoms: C_2  and  C_3
REMARK    3  A    between atoms: C_3  and  N_4
REMARK    4  A    between atoms: N_7  and  C_8
REMARK    5  A    between atoms: C_8  and  C_9
REMARK    6  A    between atoms: C_8  and  C_10
REMARK    7  A    between atoms: C_8  and  C_11
REMARK    8  A    between atoms: N_13  and  C_14
REMARK    9  A    between atoms: C_14  and  C_15
REMARK                            x       y       z     vdW  Elec       q    Type
REMARK                         _______ _______ _______ _____ _____    ______ ____
ROOT
ATOM      1  C   UNL     1       1.835  -6.235  -3.204  0.00  0.00    +0.236 C 
ATOM      2  O   UNL     1       1.690  -7.000  -4.134  0.00  0.00    -0.273 OA
ATOM      3  N   UNL     1       1.906  -6.711  -1.945  0.00  0.00    -0.309 N 
ATOM      4  H   UNL     1       2.022  -6.099  -1.201  0.00  0.00    +0.149 HD
ENDROOT
BRANCH   1   5
ATOM      5  C   UNL     1       1.935  -4.753  -3.456  0.00  0.00    +0.106 C 
ATOM      6  C   UNL     1       1.234  -4.411  -4.772  0.00  0.00    +0.041 C 
ATOM      7  C   UNL     1       3.409  -4.349  -3.543  0.00  0.00    +0.041 C 
BRANCH   5  11
ATOM      8  N   UNL     1       0.672  -2.010  -1.359  0.00  0.00    -0.299 N 
ATOM      9  C   UNL     1       1.262  -2.679  -2.369  0.00  0.00    +0.300 C 
ATOM     10  O   UNL     1       1.766  -2.067  -3.291  0.00  0.00    -0.253 OA
ATOM     11  N   UNL     1       1.294  -4.026  -2.358  0.00  0.00    -0.286 N 
ATOM     12  H   UNL     1       0.270  -2.498  -0.623  0.00  0.00    +0.150 HD
ATOM     13  H   UNL     1       0.892  -4.514  -1.622  0.00  0.00    +0.151 HD
BRANCH   8  14
ATOM     14  C   UNL     1       0.637  -0.545  -1.371  0.00  0.00    +0.105 C 
BRANCH  14  16
ATOM     15  C   UNL     1      -0.121   1.488  -0.133  0.00  0.00    +0.005 C 
ATOM     16  C   UNL     1      -0.085  -0.042  -0.120  0.00  0.00    +0.015 C 
ENDBRANCH  14  16
ENDBRANCH   8  14
ENDBRANCH   5  11
ENDBRANCH   1   5
BRANCH   3  17
ATOM     17  C   UNL     1       1.808  -8.152  -1.700  0.00  0.00    +0.139 C 
BRANCH  17  18
ATOM     18  C   UNL     1       1.916  -8.418  -0.220  0.00  0.00    -0.026 A 
ATOM     19  C   UNL     1       3.152  -8.636   0.374  0.00  0.00    +0.023 A 
ATOM     20  C   UNL     1       3.217  -8.876   1.732  0.00  0.00    +0.084 A 
ATOM     21  N   UNL     1       2.122  -8.902   2.467  0.00  0.00    -0.350 N 
ATOM     22  C   UNL     1       0.925  -8.699   1.938  0.00  0.00    +0.099 A 
ATOM     23  C   UNL     1       0.787  -8.445   0.578  0.00  0.00    +0.047 A 
ATOM     24  N   UNL     1      -0.202  -8.735   2.751  0.00  0.00    -0.312 N 
ATOM     25  C   UNL     1      -1.530  -8.392   2.219  0.00  0.00    +0.134 C 
ATOM     26  C   UNL     1      -2.506  -9.513   2.597  0.00  0.00    +0.178 C 
ATOM     27  O   UNL     1      -2.428  -9.750   4.004  0.00  0.00    -0.377 OA
ATOM     28  C   UNL     1      -1.148 -10.203   4.451  0.00  0.00    +0.178 C 
ATOM     29  C   UNL     1      -0.103  -9.123   4.167  0.00  0.00    +0.134 C 
ATOM     30  H   UNL     1       2.196  -9.073   3.419  0.00  0.00    +0.166 HD
ENDBRANCH  17  18
ENDBRANCH   3  17
TORSDOF 6
