REMARK  Name = ZINC13567628
REMARK  4 active torsions:
REMARK  status: ('A' for Active; 'I' for Inactive)
REMARK    1  A    between atoms: C_1  and  N_2
REMARK    2  A    between atoms: C_12  and  C_30
REMARK    3  A    between atoms: C_13  and  N_29
REMARK    4  A    between atoms: N_14  and  C_22
REMARK                            x       y       z     vdW  Elec       q    Type
REMARK                         _______ _______ _______ _____ _____    ______ ____
ROOT
ATOM      1  C   UNL     1      -0.871   6.335   0.473  0.00  0.00    +0.138 C 
ATOM      2  N   UNL     1       0.192   5.328   0.504  0.00  0.00    -0.273 N 
ATOM      3  C   UNL     1       0.012   4.028   0.941  0.00  0.00    +0.041 A 
ATOM      4  C   UNL     1      -1.141   3.406   1.422  0.00  0.00    +0.024 A 
ATOM      5  C   UNL     1      -1.036   2.074   1.791  0.00  0.00    +0.002 A 
ATOM      6  C   UNL     1       0.156   1.383   1.702  0.00  0.00    +0.000 A 
ATOM      7  C   UNL     1       1.312   1.991   1.225  0.00  0.00    +0.007 A 
ATOM      8  C   UNL     1       1.213   3.314   0.850  0.00  0.00    -0.001 A 
ATOM      9  C   UNL     1       2.230   4.267   0.300  0.00  0.00    +0.141 C 
ATOM     10  C   UNL     1       1.461   5.559   0.110  0.00  0.00    +0.240 C 
ATOM     11  O   UNL     1       1.903   6.604  -0.317  0.00  0.00    -0.274 OA
ATOM     12  C   UNL     1       2.754   3.785  -1.019  0.00  0.00    +0.089 C 
ATOM     13  C   UNL     1       4.004   3.263  -1.126  0.00  0.00    +0.108 C 
ATOM     14  N   UNL     1       4.812   3.175  -0.015  0.00  0.00    -0.260 N 
ATOM     15  C   UNL     1       4.561   3.935   1.096  0.00  0.00    +0.025 C 
ATOM     16  C   UNL     1       3.342   4.485   1.292  0.00  0.00    +0.037 C 
ATOM     17  C   UNL     1       3.079   5.277   2.423  0.00  0.00    +0.162 C 
ATOM     18  O   UNL     1       1.970   5.750   2.574  0.00  0.00    -0.292 OA
ATOM     19  C   UNL     1       4.144   5.551   3.450  0.00  0.00    +0.080 C 
ATOM     20  C   UNL     1       5.516   5.501   2.771  0.00  0.00    +0.014 C 
ATOM     21  C   UNL     1       5.674   4.138   2.094  0.00  0.00    +0.052 C 
ENDROOT
BRANCH  14  22
ATOM     22  C   UNL     1       5.904   2.299  -0.022  0.00  0.00    +0.040 A 
ATOM     23  C   UNL     1       5.766   1.011   0.478  0.00  0.00    +0.025 A 
ATOM     24  C   UNL     1       6.844   0.147   0.466  0.00  0.00    +0.022 A 
ATOM     25  C   UNL     1       8.063   0.567  -0.035  0.00  0.00    +0.041 A 
ATOM     26  C   UNL     1       8.205   1.852  -0.530  0.00  0.00    +0.022 A 
ATOM     27  C   UNL     1       7.130   2.718  -0.525  0.00  0.00    +0.025 A 
ATOM     28 CL   UNL     1       9.417  -0.519  -0.043  0.00  0.00    -0.084 Cl
ENDBRANCH  14  22
BRANCH  13  29
ATOM     29  N   UNL     1       4.462   2.822  -2.345  0.00  0.00    -0.345 N 
ATOM     30  H   UNL     1       3.864   2.803  -3.109  0.00  0.00    +0.144 HD
ATOM     31  H   UNL     1       5.382   2.531  -2.441  0.00  0.00    +0.144 HD
ENDBRANCH  13  29
BRANCH  12  32
ATOM     32  C   UNL     1       1.926   3.877  -2.184  0.00  0.00    +0.100 C 
ATOM     33  N   UNL     1       1.268   3.950  -3.108  0.00  0.00    -0.191 NA
ENDBRANCH  12  32
TORSDOF 3
