REMARK  Name = ZINC67647277
REMARK  9 active torsions:
REMARK  status: ('A' for Active; 'I' for Inactive)
REMARK    1  A    between atoms: C_1  and  C_2
REMARK    2  A    between atoms: C_2  and  C_3
REMARK    3  A    between atoms: C_3  and  C_4
REMARK    4  A    between atoms: C_4  and  C_5
REMARK    5  A    between atoms: C_8  and  N_11
REMARK    6  A    between atoms: N_14  and  C_15
REMARK    7  A    between atoms: N_18  and  C_21
REMARK    8  A    between atoms: C_21  and  C_22
REMARK    9  A    between atoms: N_24  and  C_25
REMARK                            x       y       z     vdW  Elec       q    Type
REMARK                         _______ _______ _______ _____ _____    ______ ____
ROOT
ATOM      1  N   UNL     1       4.189  -4.698  -2.621  0.00  0.00    -0.297 N 
ATOM      2  C   UNL     1       4.687  -5.949  -2.670  0.00  0.00    +0.300 C 
ATOM      3  O   UNL     1       4.607  -6.595  -3.697  0.00  0.00    -0.253 OA
ATOM      4  N   UNL     1       5.272  -6.485  -1.581  0.00  0.00    -0.297 N 
ATOM      5  H   UNL     1       4.253  -4.182  -1.802  0.00  0.00    +0.151 HD
ATOM      6  H   UNL     1       5.336  -5.969  -0.762  0.00  0.00    +0.151 HD
ENDROOT
BRANCH   4   7
ATOM      7  C   UNL     1       5.813  -7.845  -1.634  0.00  0.00    +0.071 C 
ATOM      8  C   UNL     1       4.698  -8.852  -1.336  0.00  0.00    +0.004 C 
ATOM      9  C   UNL     1       5.285 -10.264  -1.315  0.00  0.00    -0.076 C 
ATOM     10  N   UNL     1       6.317 -10.354  -0.275  0.00  0.00    +0.385 N 
ATOM     11  C   UNL     1       7.424  -9.443  -0.592  0.00  0.00    -0.076 C 
ATOM     12  C   UNL     1       6.919  -7.998  -0.586  0.00  0.00    +0.004 C 
ATOM     13  H   UNL     1       5.918 -10.099   0.616  0.00  0.00    -0.081 HD
BRANCH  10  14
ATOM     14  C   UNL     1       6.823 -11.731  -0.206  0.00  0.00    +0.019 C 
BRANCH  14  15
ATOM     15  C   UNL     1       7.793 -11.853   0.941  0.00  0.00    +0.196 C 
ATOM     16  O   UNL     1       8.038 -10.888   1.633  0.00  0.00    -0.278 OA
ATOM     17  N   UNL     1       8.387 -13.035   1.198  0.00  0.00    -0.320 N 
ATOM     18  C   UNL     1       9.329 -13.154   2.313  0.00  0.00    +0.128 C 
ATOM     19  H   UNL     1       8.190 -13.807   0.645  0.00  0.00    +0.148 HD
ENDBRANCH  14  15
ENDBRANCH  10  14
ENDBRANCH   4   7
BRANCH   1  23
ATOM     20  C   UNL     1       1.455  -2.521  -2.524  0.00  0.00    -0.011 C 
ATOM     21  C   UNL     1       2.924  -2.096  -2.474  0.00  0.00    +0.005 C 
ATOM     22  C   UNL     1       3.640  -2.590  -3.733  0.00  0.00    +0.022 C 
ATOM     23  C   UNL     1       3.553  -4.115  -3.805  0.00  0.00    +0.074 C 
ATOM     24  C   UNL     1       2.083  -4.540  -3.855  0.00  0.00    +0.022 C 
ATOM     25  C   UNL     1       1.367  -4.046  -2.596  0.00  0.00    +0.005 C 
BRANCH  20  26
ATOM     26  C   UNL     1       0.739  -2.027  -1.265  0.00  0.00    +0.003 C 
BRANCH  26  27
ATOM     27  C   UNL     1       0.718  -0.497  -1.257  0.00  0.00    +0.000 C 
BRANCH  27  29
ATOM     28  C   UNL     1      -0.019   1.526   0.010  0.00  0.00    +0.004 C 
ATOM     29  C   UNL     1       0.002  -0.004   0.002  0.00  0.00    -0.003 C 
ENDBRANCH  27  29
ENDBRANCH  26  27
ENDBRANCH  20  26
ENDBRANCH   1  23
TORSDOF 7
