REMARK  Name = ZINC37072812
REMARK  8 active torsions:
REMARK  status: ('A' for Active; 'I' for Inactive)
REMARK    1  A    between atoms: C_1  and  C_2
REMARK    2  A    between atoms: C_2  and  C_4
REMARK    3  A    between atoms: C_2  and  N_13
REMARK    4  A    between atoms: N_13  and  C_14
REMARK    5  A    between atoms: C_14  and  C_16
REMARK    6  A    between atoms: C_14  and  C_21
REMARK    7  A    between atoms: C_21  and  C_22
REMARK    8  A    between atoms: C_21  and  C_23
REMARK                            x       y       z     vdW  Elec       q    Type
REMARK                         _______ _______ _______ _____ _____    ______ ____
ROOT
ATOM      1  N   UNL     1       0.713  -0.491   1.192  0.00  0.00    +0.388 N 
ATOM      2  H   UNL     1       0.798  -1.495   1.145  0.00  0.00    -0.084 HD
ATOM      3  H   UNL     1       1.632  -0.076   1.228  0.00  0.00    -0.084 HD
ENDROOT
BRANCH   1   5
ATOM      4  C   UNL     1      -0.019   1.526   0.010  0.00  0.00    -0.009 C 
ATOM      5  C   UNL     1       0.002  -0.004   0.002  0.00  0.00    -0.043 C 
BRANCH   5   6
ATOM      6  C   UNL     1       0.707  -0.490  -1.238  0.00  0.00    -0.058 A 
ATOM      7  C   UNL     1       2.089  -0.510  -1.282  0.00  0.00    +0.006 A 
ATOM      8  C   UNL     1       2.741  -0.956  -2.417  0.00  0.00    +0.050 A 
ATOM      9  C   UNL     1       2.010  -1.383  -3.514  0.00  0.00    +0.166 A 
ATOM     10  C   UNL     1       0.618  -1.362  -3.469  0.00  0.00    +0.166 A 
ATOM     11  C   UNL     1      -0.028  -0.920  -2.326  0.00  0.00    +0.051 A 
ATOM     12  O   UNL     1       0.136  -1.827  -4.659  0.00  0.00    -0.453 OA
ATOM     13  C   UNL     1       1.241  -1.746  -5.579  0.00  0.00    +0.466 C 
ATOM     14  O   UNL     1       2.400  -1.860  -4.732  0.00  0.00    -0.453 OA
ENDBRANCH   5   6
ENDBRANCH   1   5
BRANCH   1  15
ATOM     15  C   UNL     1      -0.040  -0.119   2.398  0.00  0.00    -0.031 C 
BRANCH  15  16
ATOM     16  C   UNL     1       0.748  -0.509   3.622  0.00  0.00    -0.024 A 
ATOM     17  C   UNL     1       0.902   0.164   4.788  0.00  0.00    +0.009 A 
ATOM     18  C   UNL     1       1.680  -0.393   5.786  0.00  0.00    +0.008 A 
ATOM     19  C   UNL     1       2.265  -1.596   5.569  0.00  0.00    +0.045 A 
ATOM     20  S   UNL     1       1.713  -1.982   3.915  0.00  0.00    -0.103 S 
ENDBRANCH  15  16
BRANCH  15  21
ATOM     21  C   UNL     1      -1.385  -0.847   2.404  0.00  0.00    -0.027 C 
ATOM     22  C   UNL     1      -1.150  -2.354   2.523  0.00  0.00    +0.006 C 
ATOM     23  C   UNL     1      -2.220  -0.366   3.593  0.00  0.00    +0.006 C 
ENDBRANCH  15  21
ENDBRANCH   1  15
TORSDOF 5
