REMARK  Name = ZINC60208783
REMARK  10 active torsions:
REMARK  status: ('A' for Active; 'I' for Inactive)
REMARK    1  A    between atoms: C_1  and  C_2
REMARK    2  A    between atoms: C_2  and  C_3
REMARK    3  A    between atoms: C_2  and  C_4
REMARK    4  A    between atoms: C_6  and  C_17
REMARK    5  A    between atoms: C_7  and  N_9
REMARK    6  A    between atoms: N_9  and  N_10
REMARK    7  A    between atoms: C_11  and  C_13
REMARK    8  A    between atoms: C_13  and  C_14
REMARK    9  A    between atoms: C_13  and  C_15
REMARK   10  A    between atoms: C_13  and  C_16
REMARK                            x       y       z     vdW  Elec       q    Type
REMARK                         _______ _______ _______ _____ _____    ______ ____
ROOT
ATOM      1  C   UNL     1       0.707  -0.490  -1.238  0.00  0.00    +0.202 A 
ATOM      2  N   UNL     1       0.340  -0.232  -2.455  0.00  0.00    -0.200 NA
ATOM      3  C   UNL     1       1.213  -0.835  -3.312  0.00  0.00    +0.202 A 
ATOM      4  C   UNL     1       2.152  -1.487  -2.530  0.00  0.00    +0.241 A 
ATOM      5  O   UNL     1       1.814  -1.250  -1.249  0.00  0.00    -0.423 OA
ENDROOT
BRANCH   1   7
ATOM      6  C   UNL     1      -0.019   1.526   0.010  0.00  0.00    +0.017 C 
ATOM      7  C   UNL     1       0.002  -0.004   0.002  0.00  0.00    +0.069 C 
ATOM      8  C   UNL     1      -1.433  -0.534   0.013  0.00  0.00    +0.017 C 
ENDBRANCH   1   7
BRANCH   4   9
ATOM      9  N   UNL     1       3.225  -2.229  -2.977  0.00  0.00    -0.232 N 
ATOM     10  H   UNL     1       3.380  -2.333  -3.929  0.00  0.00    +0.173 HD
BRANCH   9  11
ATOM     11  N   UNL     1       4.092  -2.832  -2.056  0.00  0.00    -0.234 N 
ATOM     12  C   UNL     1       5.141  -3.557  -2.493  0.00  0.00    +0.234 C 
ATOM     13  O   UNL     1       5.334  -3.687  -3.683  0.00  0.00    -0.274 OA
ATOM     14  H   UNL     1       3.937  -2.727  -1.105  0.00  0.00    +0.173 HD
BRANCH  12  15
ATOM     15  C   UNL     1       6.073  -4.205  -1.503  0.00  0.00    +0.040 C 
ATOM     16  C   UNL     1       7.170  -4.962  -2.255  0.00  0.00    +0.020 C 
ATOM     17  C   UNL     1       6.710  -3.129  -0.621  0.00  0.00    +0.020 C 
ATOM     18  C   UNL     1       5.287  -5.183  -0.627  0.00  0.00    +0.020 C 
ENDBRANCH  12  15
ENDBRANCH   9  11
ENDBRANCH   4   9
BRANCH   3  19
ATOM     19  C   UNL     1       1.168  -0.799  -4.742  0.00  0.00    +0.124 C 
ATOM     20  N   UNL     1       1.133  -0.772  -5.878  0.00  0.00    -0.189 NA
ENDBRANCH   3  19
TORSDOF 5
