REMARK  Name = ZINC45167927
REMARK  6 active torsions:
REMARK  status: ('A' for Active; 'I' for Inactive)
REMARK    1  A    between atoms: C_1  and  C_2
REMARK    2  A    between atoms: C_3  and  C_9
REMARK    3  A    between atoms: C_4  and  C_8
REMARK    4  A    between atoms: N_5  and  C_7
REMARK    5  A    between atoms: C_12  and  C_14
REMARK    6  A    between atoms: C_14  and  N_20
REMARK                            x       y       z     vdW  Elec       q    Type
REMARK                         _______ _______ _______ _____ _____    ______ ____
ROOT
ATOM      1  C   UNL     1      -0.282  -0.700  -2.624  0.00  0.00    +0.082 A 
ATOM      2  C   UNL     1      -0.309  -1.709  -3.547  0.00  0.00    +0.075 A 
ATOM      3  S   UNL     1      -0.530  -0.774  -5.051  0.00  0.00    -0.081 S 
ATOM      4  C   UNL     1      -0.565   0.764  -4.369  0.00  0.00    +0.068 A 
ATOM      5  N   UNL     1      -0.421   0.532  -3.090  0.00  0.00    -0.245 NA
ENDROOT
BRANCH   1   8
ATOM      6  C   UNL     1       1.885  -2.623  -1.337  0.00  0.00    +0.068 C 
ATOM      7  C   UNL     1       0.846  -1.824  -0.593  0.00  0.00    +0.069 A 
ATOM      8  C   UNL     1      -0.113  -0.972  -1.173  0.00  0.00    +0.044 A 
ATOM      9  C   UNL     1      -0.858  -0.442  -0.162  0.00  0.00    +0.045 A 
ATOM     10  N   UNL     1      -0.385  -0.942   1.000  0.00  0.00    -0.271 N 
ATOM     11  N   UNL     1       0.676  -1.806   0.703  0.00  0.00    -0.176 NA
ATOM     12  C   UNL     1      -0.895  -0.636   2.338  0.00  0.00    +0.172 C 
ATOM     13  C   UNL     1      -2.003   0.526  -0.313  0.00  0.00    +0.066 C 
ENDBRANCH   1   8
BRANCH   4  14
ATOM     14  C   UNL     1      -0.728   2.091  -5.065  0.00  0.00    -0.021 C 
ATOM     15  C   UNL     1       0.551   2.914  -4.898  0.00  0.00    -0.006 C 
ATOM     16  C   UNL     1       0.385   4.261  -5.605  0.00  0.00    -0.001 C 
ATOM     17  C   UNL     1       0.120   4.027  -7.093  0.00  0.00    -0.000 C 
ATOM     18  C   UNL     1      -1.159   3.203  -7.260  0.00  0.00    -0.001 C 
ATOM     19  C   UNL     1      -0.993   1.856  -6.553  0.00  0.00    -0.006 C 
BRANCH  14  20
ATOM     20  N   UNL     1      -1.859   2.818  -4.474  0.00  0.00    +0.386 N 
ATOM     21  H   UNL     1      -1.684   2.972  -3.493  0.00  0.00    -0.089 HD
ATOM     22  H   UNL     1      -1.968   3.706  -4.940  0.00  0.00    -0.089 HD
ATOM     23  H   UNL     1      -2.702   2.274  -4.584  0.00  0.00    -0.089 HD
ENDBRANCH  14  20
ENDBRANCH   4  14
TORSDOF 3
