REMARK  Name = ZINC18142686
REMARK  7 active torsions:
REMARK  status: ('A' for Active; 'I' for Inactive)
REMARK    1  A    between atoms: C_1  and  C_2
REMARK    2  A    between atoms: C_5  and  N_9
REMARK    3  A    between atoms: C_6  and  C_8
REMARK    4  A    between atoms: N_9  and  C_10
REMARK    5  A    between atoms: C_10  and  N_12
REMARK    6  A    between atoms: C_15  and  C_18
REMARK    7  A    between atoms: C_15  and  N_21
REMARK                            x       y       z     vdW  Elec       q    Type
REMARK                         _______ _______ _______ _____ _____    ______ ____
ROOT
ATOM      1  N   UNL     1       0.284  -6.098  -0.847  0.00  0.00    -0.313 N 
ATOM      2  C   UNL     1       0.051  -6.969   0.313  0.00  0.00    +0.106 C 
ATOM      3  C   UNL     1       0.980  -8.183   0.213  0.00  0.00    +0.016 C 
ATOM      4  C   UNL     1       0.773  -8.868  -1.139  0.00  0.00    +0.015 C 
ATOM      5  C   UNL     1       1.128  -7.895  -2.266  0.00  0.00    +0.016 C 
ATOM      6  C   UNL     1       0.195  -6.676  -2.194  0.00  0.00    +0.106 C 
ENDROOT
BRANCH   4   7
ATOM      7  N   UNL     1       1.639 -10.052  -1.225  0.00  0.00    +0.389 N 
ATOM      8  C   UNL     1       3.037  -9.650  -1.032  0.00  0.00    -0.077 C 
ATOM      9  C   UNL     1       3.934 -10.889  -1.040  0.00  0.00    -0.019 C 
ATOM     10  C   UNL     1       3.790 -11.609  -2.384  0.00  0.00    -0.004 C 
ATOM     11  C   UNL     1       2.316 -11.958  -2.609  0.00  0.00    -0.019 C 
ATOM     12  C   UNL     1       1.478 -10.679  -2.543  0.00  0.00    -0.077 C 
ATOM     13  H   UNL     1       1.378 -10.711  -0.507  0.00  0.00    -0.080 HD
ENDBRANCH   4   7
BRANCH   4  14
ATOM     14  C   UNL     1      -0.668  -9.289  -1.274  0.00  0.00    +0.200 C 
ATOM     15  O   UNL     1      -1.457  -8.572  -1.852  0.00  0.00    -0.278 OA
ATOM     16  N   UNL     1      -1.079 -10.462  -0.754  0.00  0.00    -0.330 N 
ATOM     17  H   UNL     1      -0.466 -11.002  -0.230  0.00  0.00    +0.145 HD
ATOM     18  H   UNL     1      -1.987 -10.767  -0.902  0.00  0.00    +0.145 HD
ENDBRANCH   4  14
BRANCH   1  19
ATOM     19  C   UNL     1       0.570  -4.792  -0.678  0.00  0.00    +0.137 C 
ATOM     20  S   UNL     1       0.688  -3.758  -2.038  0.00  0.00    -0.018 S 
BRANCH  19  21
ATOM     21  N   UNL     1       0.763  -4.299   0.562  0.00  0.00    -0.297 N 
ATOM     22  H   UNL     1       0.769  -4.896   1.326  0.00  0.00    +0.154 HD
BRANCH  21  27
ATOM     23  C   UNL     1       1.545   1.270   1.309  0.00  0.00    +0.044 C 
ATOM     24  C   UNL     1       1.338  -0.209   1.111  0.00  0.00    -0.050 A 
ATOM     25  C   UNL     1       2.042  -0.879   0.127  0.00  0.00    +0.005 A 
ATOM     26  C   UNL     1       1.855  -2.235  -0.057  0.00  0.00    +0.024 A 
ATOM     27  C   UNL     1       0.957  -2.926   0.746  0.00  0.00    +0.036 A 
ATOM     28  C   UNL     1       0.250  -2.250   1.733  0.00  0.00    -0.029 A 
ATOM     29  C   UNL     1       0.447  -0.895   1.916  0.00  0.00    +0.008 A 
ATOM     30  C   UNL     1      -0.725  -2.996   2.607  0.00  0.00    +0.045 C 
ENDBRANCH  21  27
ENDBRANCH  19  21
ENDBRANCH   1  19
TORSDOF 5
