REMARK  Name = ZINC30026003
REMARK  9 active torsions:
REMARK  status: ('A' for Active; 'I' for Inactive)
REMARK    1  A    between atoms: C_1  and  C_2
REMARK    2  A    between atoms: C_2  and  O_3
REMARK    3  A    between atoms: O_3  and  C_4
REMARK    4  A    between atoms: C_4  and  C_6
REMARK    5  A    between atoms: C_7  and  C_19
REMARK    6  A    between atoms: C_12  and  C_14
REMARK    7  A    between atoms: C_19  and  S_20
REMARK    8  A    between atoms: S_20  and  C_21
REMARK    9  A    between atoms: N_23  and  C_24
REMARK                            x       y       z     vdW  Elec       q    Type
REMARK                         _______ _______ _______ _____ _____    ______ ____
ROOT
ATOM      1  C   UNL     1       1.964  -2.373   1.310  0.00  0.00    +0.082 C 
ATOM      2  C   UNL     1       3.219  -2.391   1.809  0.00  0.00    +0.034 C 
ATOM      3  N   UNL     1       4.305  -2.257   0.991  0.00  0.00    -0.272 N 
ATOM      4  C   UNL     1       4.220  -2.102  -0.337  0.00  0.00    +0.304 C 
ATOM      5  O   UNL     1       5.243  -1.990  -0.982  0.00  0.00    -0.252 OA
ATOM      6  N   UNL     1       3.036  -2.065  -0.980  0.00  0.00    -0.285 N 
ATOM      7  C   UNL     1       1.802  -2.201  -0.187  0.00  0.00    +0.179 C 
ATOM      8  H   UNL     1       5.319  -2.272   1.416  0.00  0.00    +0.156 HD
ATOM      9  H   UNL     1       2.977  -1.938  -2.071  0.00  0.00    +0.151 HD
ENDROOT
BRANCH   7  10
ATOM     10  C   UNL     1       0.960  -0.975  -0.425  0.00  0.00    +0.130 A 
ATOM     11  C   UNL     1      -0.377  -0.956  -0.573  0.00  0.00    +0.047 A 
ATOM     12  C   UNL     1      -0.748   0.393  -0.775  0.00  0.00    +0.041 A 
ATOM     13  C   UNL     1       0.385   1.118  -0.737  0.00  0.00    +0.195 A 
ATOM     14  O   UNL     1       1.416   0.284  -0.525  0.00  0.00    -0.466 OA
ENDBRANCH   7  10
BRANCH   1  15
ATOM     15  C   UNL     1       0.839  -2.511   2.156  0.00  0.00    +0.339 C 
ATOM     16  O   UNL     1       0.993  -2.779   3.333  0.00  0.00    -0.245 OA
BRANCH  15  17
ATOM     17  O   UNL     1      -0.404  -2.346   1.658  0.00  0.00    -0.462 OA
BRANCH  17  19
ATOM     18  C   UNL     1      -2.814  -2.278   1.829  0.00  0.00    +0.048 C 
ATOM     19  C   UNL     1      -1.494  -2.500   2.570  0.00  0.00    +0.229 C 
ENDBRANCH  17  19
ENDBRANCH  15  17
ENDBRANCH   1  15
BRANCH   2  20
ATOM     20  C   UNL     1       3.426  -2.560   3.292  0.00  0.00    +0.128 C 
BRANCH  20  21
ATOM     21  S   UNL     1       3.621  -4.318   3.677  0.00  0.00    -0.087 S 
BRANCH  21  22
ATOM     22  C   UNL     1       3.840  -4.226   5.423  0.00  0.00    +0.126 C 
ATOM     23  N   UNL     1       3.821  -3.068   6.022  0.00  0.00    -0.382 N 
ATOM     24  N   UNL     1       4.030  -5.376   6.154  0.00  0.00    -0.323 N 
ATOM     25  H   UNL     1       3.958  -3.011   7.112  0.00  0.00    +0.158 HD
ATOM     26  H   UNL     1       4.046  -6.353   5.648  0.00  0.00    +0.148 HD
ATOM     27  H   UNL     1       3.669  -2.149   5.438  0.00  0.00    +0.158 HD
BRANCH  24  28
ATOM     28  C   UNL     1       4.212  -5.300   7.605  0.00  0.00    +0.072 C 
ATOM     29  C   UNL     1       5.313  -6.162   8.226  0.00  0.00    +0.024 C 
ATOM     30  C   UNL     1       3.842  -6.535   8.429  0.00  0.00    +0.024 C 
ENDBRANCH  24  28
ENDBRANCH  21  22
ENDBRANCH  20  21
ENDBRANCH   2  20
TORSDOF 8
