REMARK  Name = ZINC43285113
REMARK  7 active torsions:
REMARK  status: ('A' for Active; 'I' for Inactive)
REMARK    1  A    between atoms: C_1  and  C_2
REMARK    2  A    between atoms: C_2  and  C_3
REMARK    3  A    between atoms: C_3  and  C_5
REMARK    4  A    between atoms: C_3  and  N_22
REMARK    5  A    between atoms: C_5  and  C_7
REMARK    6  A    between atoms: C_5  and  N_13
REMARK    7  A    between atoms: C_17  and  C_19
REMARK                            x       y       z     vdW  Elec       q    Type
REMARK                         _______ _______ _______ _____ _____    ______ ____
ROOT
ATOM      1  C   UNL     1      -1.475  -2.169   0.145  0.00  0.00    -0.013 C 
ENDROOT
BRANCH   1   2
ATOM      2  C   UNL     1      -1.040  -2.892  -1.103  0.00  0.00    -0.021 A 
ATOM      3  C   UNL     1      -1.801  -3.477  -2.060  0.00  0.00    +0.025 A 
ATOM      4  C   UNL     1      -1.177  -4.090  -3.131  0.00  0.00    +0.025 A 
ATOM      5  C   UNL     1       0.178  -4.088  -3.191  0.00  0.00    +0.060 A 
ATOM      6  S   UNL     1       0.612  -3.193  -1.709  0.00  0.00    -0.102 S 
ATOM      7 BR   UNL     1      -2.197  -4.919  -4.490  0.00  0.00    -0.050 Br
ENDBRANCH   1   2
BRANCH   1   8
ATOM      8  N   UNL     1      -0.576  -2.518   1.253  0.00  0.00    +0.393 N 
ATOM      9  C   UNL     1      -0.486  -3.989   1.376  0.00  0.00    -0.077 C 
ATOM     10  C   UNL     1      -0.386  -4.254   2.899  0.00  0.00    -0.020 C 
ATOM     11  C   UNL     1      -1.334  -3.166   3.469  0.00  0.00    -0.008 C 
ATOM     12  C   UNL     1      -1.108  -1.974   2.515  0.00  0.00    +0.020 C 
ATOM     13  H   UNL     1       0.342  -2.137   1.079  0.00  0.00    -0.080 HD
BRANCH  12  14
ATOM     14  C   UNL     1      -2.415  -1.268   2.259  0.00  0.00    +0.197 C 
ATOM     15  O   UNL     1      -3.363  -1.887   1.823  0.00  0.00    -0.278 OA
ATOM     16  N   UNL     1      -2.530   0.050   2.514  0.00  0.00    -0.331 N 
ATOM     17  H   UNL     1      -1.772   0.545   2.862  0.00  0.00    +0.145 HD
ATOM     18  H   UNL     1      -3.372   0.504   2.348  0.00  0.00    +0.145 HD
ENDBRANCH  12  14
ENDBRANCH   1   8
BRANCH   1  19
ATOM     19  C   UNL     1      -1.424  -0.659  -0.096  0.00  0.00    +0.042 C 
BRANCH  19  20
ATOM     20  N   UNL     1      -2.323  -0.309  -1.204  0.00  0.00    -0.328 NA
ATOM     21  H   UNL     1      -2.356   0.690  -1.341  0.00  0.00    +0.118 HD
ATOM     22  H   UNL     1      -2.050  -0.782  -2.053  0.00  0.00    +0.118 HD
ENDBRANCH  19  20
BRANCH  19  24
ATOM     23  C   UNL     1       0.084   1.277  -0.568  0.00  0.00    +0.005 C 
ATOM     24  C   UNL     1       0.006  -0.247  -0.449  0.00  0.00    +0.014 C 
ENDBRANCH  19  24
ENDBRANCH   1  19
TORSDOF 6
