REMARK  Name = ZINC35696492
REMARK  7 active torsions:
REMARK  status: ('A' for Active; 'I' for Inactive)
REMARK    1  A    between atoms: C_1  and  C_2
REMARK    2  A    between atoms: C_5  and  N_17
REMARK    3  A    between atoms: C_6  and  O_8
REMARK    4  A    between atoms: O_8  and  C_9
REMARK    5  A    between atoms: C_9  and  C_10
REMARK    6  A    between atoms: C_13  and  C_16
REMARK    7  A    between atoms: N_14  and  C_15
REMARK                            x       y       z     vdW  Elec       q    Type
REMARK                         _______ _______ _______ _____ _____    ______ ____
ROOT
ATOM      1  C   UNL     1      -0.018   1.503   0.010  0.00  0.00    +0.044 C 
ATOM      2  C   UNL     1       0.002  -0.004   0.002  0.00  0.00    -0.047 A 
ATOM      3  C   UNL     1       0.006  -0.687  -1.200  0.00  0.00    +0.005 A 
ATOM      4  C   UNL     1       0.024  -2.069  -1.214  0.00  0.00    +0.026 A 
ATOM      5  C   UNL     1       0.039  -2.774  -0.019  0.00  0.00    +0.067 A 
ATOM      6  C   UNL     1       0.036  -2.085   1.192  0.00  0.00    +0.142 A 
ATOM      7  C   UNL     1       0.023  -0.700   1.197  0.00  0.00    +0.051 A 
ENDROOT
BRANCH   5   8
ATOM      8  N   UNL     1       0.057  -4.173  -0.030  0.00  0.00    -0.355 N 
ATOM      9  H   UNL     1       0.059  -4.652  -0.874  0.00  0.00    +0.142 HD
ATOM     10  H   UNL     1       0.068  -4.665   0.806  0.00  0.00    +0.142 HD
ENDBRANCH   5   8
BRANCH   6  11
ATOM     11  O   UNL     1       0.050  -2.771   2.366  0.00  0.00    -0.482 OA
BRANCH  11  12
ATOM     12  C   UNL     1       0.046  -1.998   3.569  0.00  0.00    +0.305 C 
BRANCH  12  13
ATOM     13  C   UNL     1       0.064  -2.922   4.759  0.00  0.00    +0.171 A 
ATOM     14  N   UNL     1      -0.979  -3.415   5.372  0.00  0.00    -0.131 NA
ATOM     15  N   UNL     1      -0.595  -4.164   6.344  0.00  0.00    -0.135 NA
ATOM     16  C   UNL     1       0.709  -4.184   6.396  0.00  0.00    +0.130 A 
ATOM     17  N   UNL     1       1.164  -3.401   5.388  0.00  0.00    -0.315 N 
ATOM     18  C   UNL     1       2.563  -3.124   5.050  0.00  0.00    +0.152 C 
ATOM     19  C   UNL     1       1.552  -4.942   7.388  0.00  0.00    +0.088 C 
ENDBRANCH  12  13
ENDBRANCH  11  12
ENDBRANCH   6  11
TORSDOF 4
