REMARK  Name = ZINC64871039
REMARK  7 active torsions:
REMARK  status: ('A' for Active; 'I' for Inactive)
REMARK    1  A    between atoms: C_1  and  C_2
REMARK    2  A    between atoms: C_2  and  O_3
REMARK    3  A    between atoms: O_3  and  C_4
REMARK    4  A    between atoms: C_7  and  C_10
REMARK    5  A    between atoms: C_13  and  C_17
REMARK    6  A    between atoms: N_27  and  C_30
REMARK    7  A    between atoms: C_30  and  C_31
REMARK                            x       y       z     vdW  Elec       q    Type
REMARK                         _______ _______ _______ _____ _____    ______ ____
ROOT
ATOM      1  C   UNL     1      -3.811  -8.817  -1.083  0.00  0.00    -0.000 A 
ATOM      2  C   UNL     1      -4.306  -8.850   0.212  0.00  0.00    +0.008 A 
ATOM      3  C   UNL     1      -5.137  -9.874   0.616  0.00  0.00    +0.016 A 
ATOM      4  C   UNL     1      -5.476 -10.879  -0.288  0.00  0.00    +0.063 A 
ATOM      5  C   UNL     1      -4.974 -10.844  -1.600  0.00  0.00    +0.056 A 
ATOM      6  C   UNL     1      -4.144  -9.803  -1.989  0.00  0.00    +0.034 A 
ATOM      7  N   UNL     1      -5.330 -11.858  -2.478  0.00  0.00    -0.307 N 
ATOM      8  H   UNL     1      -4.990 -11.847  -3.387  0.00  0.00    +0.170 HD
ATOM      9  C   UNL     1      -6.140 -12.854  -2.082  0.00  0.00    +0.330 A 
ATOM     10  O   UNL     1      -6.427 -13.723  -2.882  0.00  0.00    -0.246 OA
ATOM     11  N   UNL     1      -6.645 -12.931  -0.841  0.00  0.00    -0.256 N 
ATOM     12  C   UNL     1      -6.361 -11.995   0.091  0.00  0.00    +0.265 A 
ATOM     13  O   UNL     1      -6.822 -12.072   1.213  0.00  0.00    -0.267 OA
ENDROOT
BRANCH   1  16
ATOM     14  C   UNL     1      -2.001  -6.092  -0.011  0.00  0.00    +0.180 C 
ATOM     15  N   UNL     1      -3.232  -6.468  -0.745  0.00  0.00    -0.265 NA
ATOM     16  C   UNL     1      -2.904  -7.690  -1.506  0.00  0.00    +0.242 C 
ATOM     17  O   UNL     1      -1.535  -8.021  -1.210  0.00  0.00    -0.274 OA
ATOM     18  N   UNL     1      -0.913  -6.745  -0.788  0.00  0.00    -0.177 NA
ATOM     19  H   UNL     1      -3.997  -6.634  -0.107  0.00  0.00    +0.127 HD
ATOM     20  H   UNL     1      -0.103  -6.908  -0.210  0.00  0.00    +0.156 HD
BRANCH  14  24
ATOM     21  C   UNL     1      -1.498  -1.848   0.006  0.00  0.00    +0.121 A 
ATOM     22  C   UNL     1      -0.388  -2.679  -0.003  0.00  0.00    +0.046 A 
ATOM     23  C   UNL     1      -0.553  -4.051  -0.008  0.00  0.00    +0.010 A 
ATOM     24  C   UNL     1      -1.823  -4.596  -0.005  0.00  0.00    -0.014 A 
ATOM     25  C   UNL     1      -2.932  -3.769   0.004  0.00  0.00    +0.010 A 
ATOM     26  C   UNL     1      -2.772  -2.397   0.016  0.00  0.00    +0.046 A 
BRANCH  21  27
ATOM     27  O   UNL     1      -1.339  -0.499   0.012  0.00  0.00    -0.492 OA
BRANCH  27  29
ATOM     28  C   UNL     1      -0.019   1.526   0.010  0.00  0.00    +0.048 C 
ATOM     29  C   UNL     1       0.002  -0.004   0.002  0.00  0.00    +0.225 C 
ENDBRANCH  27  29
ENDBRANCH  21  27
ENDBRANCH  14  24
ENDBRANCH   1  16
BRANCH  11  30
ATOM     30  C   UNL     1      -7.521 -14.052  -0.490  0.00  0.00    +0.165 C 
BRANCH  30  31
ATOM     31  C   UNL     1      -6.691 -15.191   0.044  0.00  0.00    -0.024 A 
ATOM     32  C   UNL     1      -6.192 -16.145  -0.823  0.00  0.00    +0.009 A 
ATOM     33  C   UNL     1      -5.430 -17.192  -0.338  0.00  0.00    +0.050 A 
ATOM     34  C   UNL     1      -5.164 -17.286   1.018  0.00  0.00    +0.166 A 
ATOM     35  C   UNL     1      -5.667 -16.324   1.891  0.00  0.00    +0.167 A 
ATOM     36  C   UNL     1      -6.425 -15.275   1.398  0.00  0.00    +0.055 A 
ATOM     37  O   UNL     1      -5.271 -16.637   3.159  0.00  0.00    -0.453 OA
ATOM     38  C   UNL     1      -4.866 -18.018   3.107  0.00  0.00    +0.466 C 
ATOM     39  O   UNL     1      -4.453 -18.201   1.740  0.00  0.00    -0.453 OA
ENDBRANCH  30  31
ENDBRANCH  11  30
TORSDOF 6
