REMARK  Name = ZINC13500517
REMARK  12 active torsions:
REMARK  status: ('A' for Active; 'I' for Inactive)
REMARK    1  A    between atoms: C_1  and  C_2
REMARK    2  A    between atoms: C_2  and  C_3
REMARK    3  A    between atoms: C_2  and  C_4
REMARK    4  A    between atoms: C_4  and  C_6
REMARK    5  A    between atoms: C_4  and  N_73
REMARK    6  A    between atoms: N_10  and  C_11
REMARK    7  A    between atoms: C_11  and  C_12
REMARK    8  A    between atoms: C_18  and  C_19
REMARK    9  A    between atoms: C_18  and  N_73
REMARK   10  A    between atoms: C_19  and  C_20
REMARK   11  A    between atoms: C_26  and  C_27
REMARK   12  A    between atoms: C_26  and  N_73
REMARK                            x       y       z     vdW  Elec       q    Type
REMARK                         _______ _______ _______ _____ _____    ______ ____
ROOT
ATOM      1  N   UNL     1       4.660  -1.013   2.165  0.00  0.00    +0.390 N 
ATOM      2  H   UNL     1       4.862  -0.281   2.857  0.00  0.00    -0.080 HD
ENDROOT
BRANCH   1   3
ATOM      3  C   UNL     1       5.933  -1.626   1.729  0.00  0.00    +0.006 C 
BRANCH   3   4
ATOM      4  C   UNL     1       6.762  -1.938   2.948  0.00  0.00    +0.138 A 
ATOM      5  N   UNL     1       7.035  -1.124   3.938  0.00  0.00    -0.115 NA
ATOM      6  N   UNL     1       7.767  -1.760   4.786  0.00  0.00    -0.023 NA
ATOM      7  N   UNL     1       7.974  -2.957   4.359  0.00  0.00    -0.044 NA
ATOM      8  N   UNL     1       7.371  -3.105   3.228  0.00  0.00    -0.228 N 
BRANCH   8   9
ATOM      9  C   UNL     1       7.351  -4.317   2.405  0.00  0.00    +0.178 C 
BRANCH   9  10
ATOM     10  C   UNL     1       8.600  -4.353   1.521  0.00  0.00    +0.140 C 
ATOM     11  C   UNL     1       8.597  -5.636   0.663  0.00  0.00    +0.035 C 
ATOM     12  C   UNL     1      10.094  -6.050   0.684  0.00  0.00    +0.031 C 
ATOM     13  C   UNL     1      10.504  -5.599   2.108  0.00  0.00    +0.160 C 
ATOM     14  O   UNL     1       9.774  -4.383   2.341  0.00  0.00    -0.375 OA
ENDBRANCH   9  10
ENDBRANCH   8   9
ENDBRANCH   3   4
BRANCH   3  16
ATOM     15  C   UNL     1       6.966   0.647   1.623  0.00  0.00    +0.006 C 
ATOM     16  C   UNL     1       6.687  -0.637   0.838  0.00  0.00    -0.024 C 
ATOM     17  C   UNL     1       8.012  -1.260   0.393  0.00  0.00    +0.006 C 
ENDBRANCH   3  16
ENDBRANCH   1   3
BRANCH   1  18
ATOM     18  C   UNL     1       3.793  -2.036   2.787  0.00  0.00    -0.073 C 
BRANCH  18  19
ATOM     19  C   UNL     1       4.354  -2.381   4.168  0.00  0.00    +0.016 C 
BRANCH  19  20
ATOM     20  C   UNL     1       3.400  -3.305   4.880  0.00  0.00    -0.049 A 
ATOM     21  C   UNL     1       2.398  -2.783   5.678  0.00  0.00    +0.003 A 
ATOM     22  C   UNL     1       1.521  -3.630   6.328  0.00  0.00    +0.000 A 
ATOM     23  C   UNL     1       1.650  -4.999   6.188  0.00  0.00    +0.000 A 
ATOM     24  C   UNL     1       2.654  -5.521   5.394  0.00  0.00    +0.000 A 
ATOM     25  C   UNL     1       3.529  -4.674   4.740  0.00  0.00    +0.003 A 
ENDBRANCH  19  20
ENDBRANCH  18  19
ENDBRANCH   1  18
BRANCH   1  26
ATOM     26  C   UNL     1       3.971  -0.402   1.008  0.00  0.00    -0.037 C 
BRANCH  26  27
ATOM     27  C   UNL     1       2.777   0.371   1.505  0.00  0.00    +0.001 A 
ATOM     28  C   UNL     1       2.890   1.700   1.758  0.00  0.00    +0.017 A 
ATOM     29  C   UNL     1       1.714   2.422   2.240  0.00  0.00    +0.002 A 
ATOM     30  C   UNL     1       1.772   3.794   2.517  0.00  0.00    +0.059 A 
ATOM     31  C   UNL     1       0.647   4.448   2.970  0.00  0.00    +0.167 A 
ATOM     32  C   UNL     1      -0.551   3.745   3.154  0.00  0.00    +0.168 A 
ATOM     33  C   UNL     1      -0.616   2.390   2.889  0.00  0.00    +0.075 A 
ATOM     34  C   UNL     1       0.508   1.718   2.425  0.00  0.00    +0.053 A 
ATOM     35  N   UNL     1       0.460   0.367   2.148  0.00  0.00    -0.322 N 
ATOM     36  H   UNL     1      -0.370  -0.118   2.275  0.00  0.00    +0.169 HD
ATOM     37  C   UNL     1       1.548  -0.288   1.706  0.00  0.00    +0.251 A 
ATOM     38  O   UNL     1       1.468  -1.482   1.471  0.00  0.00    -0.268 OA
ATOM     39  O   UNL     1      -1.498   4.618   3.605  0.00  0.00    -0.453 OA
ATOM     40  C   UNL     1      -0.990   5.930   3.303  0.00  0.00    +0.466 C 
ATOM     41  O   UNL     1       0.440   5.755   3.307  0.00  0.00    -0.453 OA
ENDBRANCH  26  27
ENDBRANCH   1  26
TORSDOF 10
