REMARK  Name = ZINC03816551
REMARK  5 active torsions:
REMARK  status: ('A' for Active; 'I' for Inactive)
REMARK    1  A    between atoms: C_7  and  C_22
REMARK    2  A    between atoms: N_9  and  S_10
REMARK    3  A    between atoms: S_10  and  C_13
REMARK    4  A    between atoms: C_22  and  C_23
REMARK    5  A    between atoms: C_23  and  N_37
REMARK                            x       y       z     vdW  Elec       q    Type
REMARK                         _______ _______ _______ _____ _____    ______ ____
ROOT
ATOM      1  C   UNL     1       1.687   1.984   0.468  0.00  0.00    +0.001 A 
ATOM      2  C   UNL     1       0.439   1.374   0.479  0.00  0.00    +0.002 A 
ATOM      3  C   UNL     1       0.324   0.008   0.341  0.00  0.00    +0.028 A 
ATOM      4  C   UNL     1       1.467  -0.770   0.187  0.00  0.00    +0.073 A 
ATOM      5  C   UNL     1       2.728  -0.147   0.176  0.00  0.00    +0.005 A 
ATOM      6  C   UNL     1       2.822   1.239   0.318  0.00  0.00    +0.010 A 
ATOM      7  C   UNL     1       3.708  -1.222   0.001  0.00  0.00    -0.022 A 
ATOM      8  C   UNL     1       3.020  -2.371  -0.080  0.00  0.00    +0.116 A 
ATOM      9  N   UNL     1       1.679  -2.121   0.030  0.00  0.00    -0.217 N 
ENDROOT
BRANCH   9  10
ATOM     10  S   UNL     1       0.489  -3.272  -0.019  0.00  0.00    +0.103 S 
ATOM     11  O   UNL     1      -0.493  -2.801  -0.931  0.00  0.00    -0.146 OA
ATOM     12  O   UNL     1       1.142  -4.524  -0.181  0.00  0.00    -0.146 OA
BRANCH  10  13
ATOM     13  C   UNL     1      -0.271  -3.303   1.570  0.00  0.00    +0.224 A 
ATOM     14  C   UNL     1       0.212  -3.907   2.669  0.00  0.00    +0.176 A 
ATOM     15  N   UNL     1      -0.650  -3.704   3.677  0.00  0.00    -0.208 NA
ATOM     16  C   UNL     1      -1.655  -3.002   3.239  0.00  0.00    +0.180 A 
ATOM     17  N   UNL     1      -1.485  -2.710   1.912  0.00  0.00    -0.276 N 
ATOM     18  C   UNL     1      -2.473  -1.966   1.304  0.00  0.00    +0.102 A 
ATOM     19  C   UNL     1      -3.540  -1.559   1.991  0.00  0.00    +0.067 A 
ATOM     20  S   UNL     1      -3.209  -2.225   3.615  0.00  0.00    -0.058 S 
ATOM     21 CL   UNL     1       1.700  -4.796   2.768  0.00  0.00    -0.058 Cl
ENDBRANCH  10  13
ENDBRANCH   9  10
BRANCH   7  22
ATOM     22  C   UNL     1       5.205  -1.066  -0.074  0.00  0.00    +0.018 C 
BRANCH  22  23
ATOM     23  C   UNL     1       5.787  -1.042   1.341  0.00  0.00    -0.082 C 
BRANCH  23  26
ATOM     24  H   UNL     1       7.498  -0.065   0.745  0.00  0.00    -0.090 HD
ATOM     25  H   UNL     1       7.654  -0.871   2.191  0.00  0.00    -0.090 HD
ATOM     26  N   UNL     1       7.252  -0.911   1.256  0.00  0.00    +0.378 N 
ATOM     27  H   UNL     1       7.635  -1.725   0.761  0.00  0.00    -0.090 HD
ENDBRANCH  23  26
ENDBRANCH  22  23
ENDBRANCH   7  22
TORSDOF 5
