REMARK  Name = ZINC56710379
REMARK  3 active torsions:
REMARK  status: ('A' for Active; 'I' for Inactive)
REMARK    1  A    between atoms: C_5  and  C_7
REMARK    2  A    between atoms: C_9  and  C_19
REMARK    3  A    between atoms: C_14  and  C_15
REMARK                            x       y       z     vdW  Elec       q    Type
REMARK                         _______ _______ _______ _____ _____    ______ ____
ROOT
ATOM      1  C   UNL     1       1.016  -2.211   0.115  0.00  0.00    +0.064 C 
ATOM      2  C   UNL     1       0.385  -2.707  -1.192  0.00  0.00    +0.135 C 
ATOM      3  C   UNL     1      -1.070  -2.317  -1.211  0.00  0.00    +0.066 C 
ATOM      4  N   UNL     1      -1.765  -2.177  -0.084  0.00  0.00    -0.302 N 
ATOM      5  C   UNL     1      -1.251  -2.359   1.101  0.00  0.00    +0.079 C 
ATOM      6  C   UNL     1       0.191  -2.754   1.287  0.00  0.00    +0.159 C 
ATOM      7  N   UNL     1      -2.032  -2.188   2.190  0.00  0.00    -0.349 N 
ATOM      8  S   UNL     1      -1.845  -2.048  -2.714  0.00  0.00    -0.039 S 
ATOM      9  H   UNL     1      -2.962  -1.933   2.085  0.00  0.00    +0.143 HD
ATOM     10  H   UNL     1      -1.662  -2.320   3.077  0.00  0.00    +0.143 HD
ATOM     11  H   UNL     1      -2.700  -1.928  -0.148  0.00  0.00    +0.153 HD
ENDROOT
BRANCH   1  16
ATOM     12  C   UNL     1      -0.181   1.366  -0.045  0.00  0.00    +0.000 A 
ATOM     13  C   UNL     1       0.990   2.061   0.193  0.00  0.00    +0.003 A 
ATOM     14  C   UNL     1       2.171   1.375   0.406  0.00  0.00    +0.038 A 
ATOM     15  C   UNL     1       2.180  -0.009   0.382  0.00  0.00    +0.127 A 
ATOM     16  C   UNL     1       1.007  -0.705   0.143  0.00  0.00    -0.006 A 
ATOM     17  C   UNL     1      -0.172  -0.016  -0.070  0.00  0.00    +0.007 A 
ATOM     18  F   UNL     1       3.334  -0.681   0.589  0.00  0.00    -0.205 F 
ENDBRANCH   1  16
BRANCH   2  19
ATOM     19  C   UNL     1       0.508  -4.207  -1.274  0.00  0.00    +0.220 C 
ATOM     20  O   UNL     1      -0.487  -4.899  -1.258  0.00  0.00    -0.275 OA
ATOM     21  N   UNL     1       1.725  -4.779  -1.365  0.00  0.00    -0.329 N 
ATOM     22  H   UNL     1       2.522  -4.225  -1.378  0.00  0.00    +0.145 HD
ATOM     23  H   UNL     1       1.805  -5.744  -1.419  0.00  0.00    +0.145 HD
ENDBRANCH   2  19
BRANCH   6  24
ATOM     24  C   UNL     1       0.297  -4.222   1.325  0.00  0.00    +0.074 C 
ATOM     25  N   UNL     1       0.379  -5.355   1.355  0.00  0.00    -0.196 NA
ENDBRANCH   6  24
TORSDOF 3
