REMARK  Name = ZINC44913871
REMARK  5 active torsions:
REMARK  status: ('A' for Active; 'I' for Inactive)
REMARK    1  A    between atoms: N_9  and  C_11
REMARK    2  A    between atoms: C_11  and  C_12
REMARK    3  A    between atoms: C_12  and  C_14
REMARK    4  A    between atoms: C_12  and  O_24
REMARK    5  A    between atoms: C_14  and  N_15
REMARK                            x       y       z     vdW  Elec       q    Type
REMARK                         _______ _______ _______ _____ _____    ______ ____
ROOT
ATOM      1  C   UNL     1       5.908  -2.179   1.160  0.00  0.00    +0.115 C 
ENDROOT
BRANCH   1   2
ATOM      2  O   UNL     1       5.521  -2.425   2.513  0.00  0.00    -0.392 OA
ATOM      3  H   UNL     1       5.441  -3.363   2.735  0.00  0.00    +0.210 HD
ENDBRANCH   1   2
BRANCH   1   4
ATOM      4  C   UNL     1       4.866  -2.780   0.214  0.00  0.00    -0.045 C 
BRANCH   4  13
ATOM      5  C   UNL     1      -0.017   1.376   0.010  0.00  0.00    +0.000 A 
ATOM      6  C   UNL     1       1.173   2.080   0.002  0.00  0.00    +0.000 A 
ATOM      7  C   UNL     1       2.375   1.401  -0.015  0.00  0.00    +0.002 A 
ATOM      8  C   UNL     1       2.395   0.014  -0.023  0.00  0.00    -0.061 A 
ATOM      9  C   UNL     1       1.208  -0.687  -0.013  0.00  0.00    -0.048 A 
ATOM     10  C   UNL     1       0.002  -0.004   0.002  0.00  0.00    +0.004 A 
ATOM     11  C   UNL     1       1.186  -2.194  -0.014  0.00  0.00    +0.017 C 
ATOM     12  C   UNL     1       2.554  -2.732  -0.434  0.00  0.00    -0.074 C 
ATOM     13  N   UNL     1       3.587  -2.079   0.386  0.00  0.00    +0.384 N 
ATOM     14  C   UNL     1       3.728  -0.686  -0.046  0.00  0.00    -0.043 C 
ATOM     15  H   UNL     1       3.313  -2.106   1.357  0.00  0.00    -0.081 HD
ENDBRANCH   4  13
ENDBRANCH   1   4
BRANCH   1  16
ATOM     16  C   UNL     1       7.270  -2.822   0.894  0.00  0.00    +0.132 C 
BRANCH  16  17
ATOM     17  N   UNL     1       8.267  -2.247   1.800  0.00  0.00    -0.327 N 
ATOM     18  C   UNL     1       9.583  -2.677   1.744  0.00  0.00    +0.125 A 
ATOM     19  C   UNL     1       9.971  -3.653   0.826  0.00  0.00    +0.083 A 
ATOM     20  C   UNL     1      11.295  -4.051   0.806  0.00  0.00    +0.136 A 
ATOM     21  N   UNL     1      12.151  -3.498   1.654  0.00  0.00    -0.203 NA
ATOM     22  C   UNL     1      11.754  -2.573   2.515  0.00  0.00    +0.216 A 
ATOM     23  N   UNL     1      10.496  -2.161   2.562  0.00  0.00    -0.200 NA
ATOM     24  N   UNL     1      12.678  -2.019   3.384  0.00  0.00    -0.327 N 
ATOM     25 CL   UNL     1      11.831  -5.263  -0.316  0.00  0.00    -0.062 Cl
ATOM     26  H   UNL     1       8.006  -1.565   2.438  0.00  0.00    +0.148 HD
ATOM     27  H   UNL     1      13.603  -2.310   3.358  0.00  0.00    +0.145 HD
ATOM     28  H   UNL     1      12.400  -1.341   4.020  0.00  0.00    +0.145 HD
ENDBRANCH  16  17
ENDBRANCH   1  16
TORSDOF 5
