REMARK  Name = ZINC49591099
REMARK  7 active torsions:
REMARK  status: ('A' for Active; 'I' for Inactive)
REMARK    1  A    between atoms: C_1  and  C_2
REMARK    2  A    between atoms: C_2  and  C_4
REMARK    3  A    between atoms: C_2  and  N_15
REMARK    4  A    between atoms: C_8  and  C_10
REMARK    5  A    between atoms: C_11  and  C_12
REMARK    6  A    between atoms: C_12  and  C_13
REMARK    7  A    between atoms: C_13  and  O_14
REMARK                            x       y       z     vdW  Elec       q    Type
REMARK                         _______ _______ _______ _____ _____    ______ ____
ROOT
ATOM      1  C   UNL     1      -1.433  -0.432   0.172  0.00  0.00    -0.026 A 
ATOM      2  C   UNL     1      -2.318  -0.315  -0.886  0.00  0.00    +0.005 A 
ATOM      3  C   UNL     1      -3.636  -0.706  -0.738  0.00  0.00    +0.002 A 
ATOM      4  C   UNL     1      -4.078  -1.216   0.466  0.00  0.00    +0.017 A 
ATOM      5  C   UNL     1      -3.190  -1.337   1.536  0.00  0.00    +0.025 A 
ATOM      6  C   UNL     1      -1.860  -0.945   1.379  0.00  0.00    +0.022 A 
ENDROOT
BRANCH   1   8
ATOM      7  C   UNL     1       0.603   0.320   1.371  0.00  0.00    +0.033 C 
ATOM      8  C   UNL     1       0.002  -0.004   0.002  0.00  0.00    +0.111 C 
BRANCH   8   9
ATOM      9  N   UNL     1       0.059   1.186  -0.850  0.00  0.00    -0.231 N 
ATOM     10  C   UNL     1      -0.616   2.293  -0.489  0.00  0.00    +0.248 C 
ATOM     11  O   UNL     1      -1.276   2.291   0.528  0.00  0.00    -0.273 OA
ATOM     12  C   UNL     1      -0.557   3.534  -1.342  0.00  0.00    +0.256 C 
ATOM     13  O   UNL     1      -0.313   3.159  -2.701  0.00  0.00    -0.361 OA
ATOM     14  C   UNL     1       0.873   2.375  -2.865  0.00  0.00    +0.256 C 
ATOM     15  C   UNL     1       0.791   1.158  -1.979  0.00  0.00    +0.248 C 
ATOM     16  O   UNL     1       1.383   0.147  -2.288  0.00  0.00    -0.273 OA
ENDBRANCH   8   9
ENDBRANCH   1   8
BRANCH   5  17
ATOM     17  C   UNL     1      -3.642  -1.865   2.788  0.00  0.00    -0.066 C 
ATOM     18  C   UNL     1      -4.012  -2.298   3.814  0.00  0.00    -0.095 C 
BRANCH  18  19
ATOM     19  C   UNL     1      -4.476  -2.840   5.102  0.00  0.00    +0.117 C 
BRANCH  19  20
ATOM     20  C   UNL     1      -3.312  -2.864   6.094  0.00  0.00    +0.168 C 
BRANCH  20  21
ATOM     21  O   UNL     1      -3.762  -3.391   7.344  0.00  0.00    -0.394 OA
ATOM     22  H   UNL     1      -3.075  -3.436   8.023  0.00  0.00    +0.209 HD
ENDBRANCH  20  21
ENDBRANCH  19  20
ENDBRANCH  18  19
ENDBRANCH   5  17
TORSDOF 6
