REMARK  Name = ZINC36470961
REMARK  6 active torsions:
REMARK  status: ('A' for Active; 'I' for Inactive)
REMARK    1  A    between atoms: C_1  and  C_2
REMARK    2  A    between atoms: C_2  and  C_4
REMARK    3  A    between atoms: C_2  and  N_28
REMARK    4  A    between atoms: C_4  and  N_5
REMARK    5  A    between atoms: C_6  and  C_22
REMARK    6  A    between atoms: C_9  and  C_16
REMARK                            x       y       z     vdW  Elec       q    Type
REMARK                         _______ _______ _______ _____ _____    ______ ____
ROOT
ATOM      1  N   UNL     1      -1.522  -1.907  -0.150  0.00  0.00    -0.287 N 
ATOM      2  C   UNL     1      -1.433  -3.085  -1.020  0.00  0.00    +0.141 C 
ATOM      3  C   UNL     1      -1.349  -4.279  -0.109  0.00  0.00    +0.035 A 
ATOM      4  C   UNL     1      -1.251  -5.629   0.008  0.00  0.00    +0.072 A 
ATOM      5  N   UNL     1      -1.235  -5.906   1.345  0.00  0.00    -0.276 N 
ATOM      6  N   UNL     1      -1.317  -4.815   2.019  0.00  0.00    -0.168 NA
ATOM      7  H   UNL     1      -1.171  -6.794   1.729  0.00  0.00    +0.189 HD
ATOM      8  C   UNL     1      -1.390  -3.776   1.211  0.00  0.00    +0.153 A 
ATOM      9  C   UNL     1      -1.492  -2.308   1.133  0.00  0.00    +0.268 C 
ATOM     10  O   UNL     1      -1.544  -1.564   2.093  0.00  0.00    -0.268 OA
ENDROOT
BRANCH   4  11
ATOM     11  C   UNL     1      -1.176  -6.609  -1.099  0.00  0.00    +0.000 A 
ATOM     12  C   UNL     1      -2.032  -6.495  -2.194  0.00  0.00    +0.010 A 
ATOM     13  C   UNL     1      -1.956  -7.411  -3.223  0.00  0.00    +0.001 A 
ATOM     14  C   UNL     1      -1.035  -8.441  -3.170  0.00  0.00    +0.000 A 
ATOM     15  C   UNL     1      -0.183  -8.560  -2.086  0.00  0.00    +0.001 A 
ATOM     16  C   UNL     1      -0.245  -7.646  -1.054  0.00  0.00    +0.010 A 
ENDBRANCH   4  11
BRANCH   2  17
ATOM     17  C   UNL     1      -0.198  -3.001  -1.880  0.00  0.00    -0.022 A 
ATOM     18  C   UNL     1       1.015  -2.654  -1.315  0.00  0.00    +0.006 A 
ATOM     19  C   UNL     1       2.148  -2.577  -2.104  0.00  0.00    +0.000 A 
ATOM     20  C   UNL     1       2.068  -2.848  -3.457  0.00  0.00    +0.000 A 
ATOM     21  C   UNL     1       0.855  -3.196  -4.022  0.00  0.00    +0.000 A 
ATOM     22  C   UNL     1      -0.277  -3.277  -3.232  0.00  0.00    +0.006 A 
ENDBRANCH   2  17
BRANCH   1  23
ATOM     23  C   UNL     1      -1.620  -0.518  -0.605  0.00  0.00    +0.092 C 
BRANCH  23  25
ATOM     24  C   UNL     1      -3.199   1.332  -1.178  0.00  0.00    -0.013 C 
ATOM     25  C   UNL     1      -3.090  -0.093  -0.631  0.00  0.00    -0.061 C 
BRANCH  25  26
ATOM     26  N   UNL     1      -3.849  -1.008  -1.493  0.00  0.00    +0.381 N 
ATOM     27  H   UNL     1      -3.413  -1.054  -2.402  0.00  0.00    -0.090 HD
ATOM     28  H   UNL     1      -3.862  -1.928  -1.079  0.00  0.00    -0.090 HD
ATOM     29  H   UNL     1      -4.795  -0.670  -1.592  0.00  0.00    -0.090 HD
ENDBRANCH  25  26
ENDBRANCH  23  25
ENDBRANCH   1  23
TORSDOF 5
