REMARK  Name = ZINC41063374
REMARK  8 active torsions:
REMARK  status: ('A' for Active; 'I' for Inactive)
REMARK    1  A    between atoms: C_1  and  C_2
REMARK    2  A    between atoms: C_2  and  C_3
REMARK    3  A    between atoms: C_3  and  N_4
REMARK    4  A    between atoms: C_5  and  N_21
REMARK    5  A    between atoms: C_6  and  N_13
REMARK    6  A    between atoms: N_13  and  C_14
REMARK    7  A    between atoms: C_14  and  C_15
REMARK    8  A    between atoms: C_15  and  N_16
REMARK                            x       y       z     vdW  Elec       q    Type
REMARK                         _______ _______ _______ _____ _____    ______ ____
ROOT
ATOM      1  N   UNL     1       0.762  -1.976   1.234  0.00  0.00    -0.281 N 
ATOM      2  C   UNL     1      -0.260  -2.677   1.832  0.00  0.00    +0.127 A 
ATOM      3  C   UNL     1      -0.233  -4.045   1.818  0.00  0.00    +0.131 A 
ATOM      4  C   UNL     1       0.843  -4.700   1.192  0.00  0.00    +0.277 A 
ATOM      5  O   UNL     1       0.890  -5.918   1.167  0.00  0.00    -0.266 OA
ATOM      6  N   UNL     1       1.822  -3.972   0.619  0.00  0.00    -0.273 N 
ATOM      7  H   UNL     1       2.564  -4.422   0.186  0.00  0.00    +0.173 HD
ATOM      8  C   UNL     1       1.776  -2.628   0.636  0.00  0.00    +0.331 A 
ATOM      9  O   UNL     1       2.669  -1.992   0.109  0.00  0.00    -0.246 OA
ENDROOT
BRANCH   2  10
ATOM     10  N   UNL     1      -1.300  -2.009   2.438  0.00  0.00    -0.343 N 
ATOM     11  H   UNL     1      -1.314  -1.039   2.445  0.00  0.00    +0.144 HD
ATOM     12  H   UNL     1      -2.017  -2.508   2.858  0.00  0.00    +0.144 HD
ENDBRANCH   2  10
BRANCH   3  13
ATOM     13  N   UNL     1      -1.270  -4.790   2.426  0.00  0.00    -0.335 N 
ATOM     14  H   UNL     1      -2.008  -4.331   2.857  0.00  0.00    +0.146 HD
BRANCH  13  15
ATOM     15  C   UNL     1      -1.229  -6.254   2.405  0.00  0.00    +0.123 C 
BRANCH  15  16
ATOM     16  C   UNL     1      -2.460  -6.809   3.126  0.00  0.00    +0.141 C 
BRANCH  16  17
ATOM     17  N   UNL     1      -2.419  -8.273   3.105  0.00  0.00    -0.337 N 
ATOM     18  C   UNL     1      -2.948  -9.087   2.139  0.00  0.00    +0.104 A 
ATOM     19  C   UNL     1      -2.686 -10.354   2.512  0.00  0.00    +0.101 A 
ATOM     20  N   UNL     1      -2.017 -10.316   3.673  0.00  0.00    -0.352 N 
ATOM     21  C   UNL     1      -1.849  -9.072   4.032  0.00  0.00    +0.173 A 
ATOM     22  H   UNL     1      -1.703 -11.090   4.167  0.00  0.00    +0.166 HD
ENDBRANCH  16  17
ENDBRANCH  15  16
ENDBRANCH  13  15
ENDBRANCH   3  13
BRANCH   1  23
ATOM     23  C   UNL     1       0.742  -0.511   1.242  0.00  0.00    +0.128 C 
BRANCH  23  25
ATOM     24  C   UNL     1      -0.019   1.526   0.010  0.00  0.00    +0.005 C 
ATOM     25  C   UNL     1       0.002  -0.004   0.002  0.00  0.00    +0.018 C 
ENDBRANCH  23  25
ENDBRANCH   1  23
TORSDOF 7
