REMARK  Name = ZINC41068982
REMARK  7 active torsions:
REMARK  status: ('A' for Active; 'I' for Inactive)
REMARK    1  A    between atoms: C_5  and  O_7
REMARK    2  A    between atoms: O_7  and  C_8
REMARK    3  A    between atoms: C_8  and  C_9
REMARK    4  A    between atoms: C_9  and  O_10
REMARK    5  A    between atoms: O_10  and  C_11
REMARK    6  A    between atoms: C_14  and  C_17
REMARK    7  A    between atoms: N_18  and  O_19
REMARK                            x       y       z     vdW  Elec       q    Type
REMARK                         _______ _______ _______ _____ _____    ______ ____
ROOT
ATOM      1  C   UNL     1       1.020  -5.958   1.342  0.00  0.00    +0.121 A 
ATOM      2  C   UNL     1       0.640  -6.872   0.368  0.00  0.00    +0.046 A 
ATOM      3  C   UNL     1       0.946  -8.208   0.517  0.00  0.00    +0.015 A 
ATOM      4  C   UNL     1       1.638  -8.641   1.649  0.00  0.00    +0.018 A 
ATOM      5  C   UNL     1       2.018  -7.720   2.626  0.00  0.00    +0.015 A 
ATOM      6  C   UNL     1       1.713  -6.385   2.467  0.00  0.00    +0.046 A 
ENDROOT
BRANCH   4   7
ATOM      7  C   UNL     1       1.967 -10.074   1.813  0.00  0.00    +0.162 C 
ATOM      8  N   UNL     1       2.114 -10.832   0.766  0.00  0.00    -0.072 NA
ATOM      9  N   UNL     1       2.119 -10.608   3.082  0.00  0.00    -0.340 N 
ATOM     10  H   UNL     1       2.009 -10.043   3.862  0.00  0.00    +0.144 HD
ATOM     11  H   UNL     1       2.335 -11.548   3.189  0.00  0.00    +0.144 HD
BRANCH   8  12
ATOM     12  O   UNL     1       2.096 -10.261  -0.530  0.00  0.00    -0.408 OA
ATOM     13  H   UNL     1       2.213 -10.902  -1.244  0.00  0.00    +0.328 HD
ENDBRANCH   8  12
ENDBRANCH   4   7
BRANCH   1  14
ATOM     14  O   UNL     1       0.717  -4.643   1.192  0.00  0.00    -0.489 OA
BRANCH  14  15
ATOM     15  C   UNL     1       0.002  -4.272   0.011  0.00  0.00    +0.270 C 
BRANCH  15  16
ATOM     16  C   UNL     1      -0.246  -2.763   0.017  0.00  0.00    +0.270 C 
BRANCH  16  17
ATOM     17  O   UNL     1       1.003  -2.074  -0.066  0.00  0.00    -0.487 OA
BRANCH  17  22
ATOM     18  C   UNL     1      -0.302   1.322  -0.005  0.00  0.00    +0.004 A 
ATOM     19  C   UNL     1       0.871   2.050  -0.083  0.00  0.00    +0.001 A 
ATOM     20  C   UNL     1       2.088   1.399  -0.155  0.00  0.00    +0.019 A 
ATOM     21  C   UNL     1       2.135   0.017  -0.149  0.00  0.00    +0.059 A 
ATOM     22  C   UNL     1       0.960  -0.716  -0.071  0.00  0.00    +0.135 A 
ATOM     23  C   UNL     1      -0.260  -0.059   0.001  0.00  0.00    +0.047 A 
ATOM     24 BR   UNL     1       3.801  -0.873  -0.249  0.00  0.00    -0.047 Br
ENDBRANCH  17  22
ENDBRANCH  16  17
ENDBRANCH  15  16
ENDBRANCH  14  15
ENDBRANCH   1  14
TORSDOF 7
