REMARK  Name = ZINC43799064
REMARK  3 active torsions:
REMARK  status: ('A' for Active; 'I' for Inactive)
REMARK    1  A    between atoms: C_6  and  C_7
REMARK    2  A    between atoms: C_7  and  N_8
REMARK    3  A    between atoms: C_14  and  C_16
REMARK                            x       y       z     vdW  Elec       q    Type
REMARK                         _______ _______ _______ _____ _____    ______ ____
ROOT
ATOM      1  C   UNL     1      -0.300   1.600   0.451  0.00  0.00    +0.024 C 
ATOM      2  C   UNL     1       1.131   2.101   0.229  0.00  0.00    +0.108 C 
ATOM      3  N   UNL     1       2.011   1.475   1.225  0.00  0.00    -0.299 N 
ATOM      4  C   UNL     1       2.010   0.011   1.347  0.00  0.00    +0.108 C 
ATOM      5  C   UNL     1       0.570  -0.466   1.557  0.00  0.00    +0.024 C 
ATOM      6  C   UNL     1      -0.311   0.070   0.426  0.00  0.00    +0.006 C 
ATOM      7  C   UNL     1       2.803   2.229   2.011  0.00  0.00    +0.243 C 
ATOM      8  O   UNL     1       3.454   1.710   2.894  0.00  0.00    -0.273 OA
ENDROOT
BRANCH   7   9
ATOM      9  C   UNL     1       2.882   3.719   1.794  0.00  0.00    +0.187 C 
ATOM     10  C   UNL     1       3.588   4.005   0.467  0.00  0.00    -0.041 C 
ATOM     11  N   UNL     1       3.715   5.458   0.286  0.00  0.00    +0.383 N 
ATOM     12  C   UNL     1       4.501   6.022   1.392  0.00  0.00    -0.054 C 
ATOM     13  C   UNL     1       3.793   5.731   2.718  0.00  0.00    +0.142 C 
ATOM     14  O   UNL     1       3.621   4.319   2.862  0.00  0.00    -0.371 OA
ATOM     15  H   UNL     1       4.180   5.649  -0.589  0.00  0.00    -0.086 HD
ATOM     16  H   UNL     1       2.797   5.878   0.278  0.00  0.00    -0.086 HD
ENDBRANCH   7   9
BRANCH   6  17
ATOM     17  C   UNL     1      -1.743  -0.433   0.613  0.00  0.00    +0.088 C 
BRANCH  17  18
ATOM     18  N   UNL     1      -1.772  -1.895   0.470  0.00  0.00    -0.298 NA
ATOM     19  C   UNL     1      -1.444  -2.296  -0.906  0.00  0.00    +0.112 C 
ATOM     20  C   UNL     1      -1.427  -3.824  -0.996  0.00  0.00    +0.175 C 
ATOM     21  O   UNL     1      -2.692  -4.336  -0.569  0.00  0.00    -0.377 OA
ATOM     22  C   UNL     1      -3.043  -3.965   0.767  0.00  0.00    +0.175 C 
ATOM     23  C   UNL     1      -3.076  -2.438   0.875  0.00  0.00    +0.112 C 
ENDBRANCH  17  18
ENDBRANCH   6  17
TORSDOF 3
