REMARK  Name = ZINC05191881
REMARK  10 active torsions:
REMARK  status: ('A' for Active; 'I' for Inactive)
REMARK    1  A    between atoms: C_1  and  O_2
REMARK    2  A    between atoms: O_2  and  C_3
REMARK    3  A    between atoms: C_6  and  C_11
REMARK    4  A    between atoms: C_8  and  O_9
REMARK    5  A    between atoms: O_9  and  C_10
REMARK    6  A    between atoms: C_16  and  O_30
REMARK    7  A    between atoms: C_22  and  N_29
REMARK    8  A    between atoms: N_23  and  C_26
REMARK    9  A    between atoms: C_26  and  C_27
REMARK   10  A    between atoms: C_27  and  O_28
REMARK                            x       y       z     vdW  Elec       q    Type
REMARK                         _______ _______ _______ _____ _____    ______ ____
ROOT
ATOM      1  C   UNL     1      -4.987  -2.627   0.035  0.00  0.00    +0.091 C 
ATOM      2  C   UNL     1      -5.745  -2.237   1.276  0.00  0.00    +0.007 A 
ATOM      3  C   UNL     1      -5.396  -2.808   2.489  0.00  0.00    +0.012 A 
ATOM      4  C   UNL     1      -6.075  -2.466   3.640  0.00  0.00    +0.046 A 
ATOM      5  C   UNL     1      -7.113  -1.546   3.586  0.00  0.00    +0.120 A 
ATOM      6  C   UNL     1      -7.464  -0.973   2.375  0.00  0.00    +0.092 A 
ATOM      7  C   UNL     1      -6.780  -1.318   1.216  0.00  0.00    +0.138 A 
ATOM      8  O   UNL     1      -7.141  -0.746   0.042  0.00  0.00    -0.437 OA
ATOM      9  C   UNL     1      -6.793  -1.321  -1.128  0.00  0.00    +0.229 A 
ATOM     10  C   UNL     1      -5.760  -2.236  -1.191  0.00  0.00    +0.064 A 
ATOM     11  C   UNL     1      -5.446  -2.794  -2.427  0.00  0.00    +0.107 A 
ATOM     12  N   UNL     1      -6.150  -2.426  -3.496  0.00  0.00    -0.318 N 
ATOM     13  C   UNL     1      -7.127  -1.549  -3.390  0.00  0.00    +0.204 A 
ATOM     14  N   UNL     1      -7.448  -1.008  -2.245  0.00  0.00    -0.202 NA
ENDROOT
BRANCH   1  18
ATOM     15  C   UNL     1      -1.201  -0.638   0.010  0.00  0.00    +0.162 A 
ATOM     16  C   UNL     1      -2.374   0.099   0.019  0.00  0.00    +0.050 A 
ATOM     17  C   UNL     1      -3.596  -0.546   0.027  0.00  0.00    +0.008 A 
ATOM     18  C   UNL     1      -3.652  -1.928   0.026  0.00  0.00    -0.032 A 
ATOM     19  C   UNL     1      -2.485  -2.669   0.017  0.00  0.00    +0.054 A 
ATOM     20  C   UNL     1      -1.257  -2.028   0.003  0.00  0.00    +0.162 A 
BRANCH  15  22
ATOM     21  C   UNL     1      -0.017   1.425   0.010  0.00  0.00    +0.277 C 
ATOM     22  O   UNL     1       0.002  -0.004   0.002  0.00  0.00    -0.491 OA
ENDBRANCH  15  22
BRANCH  20  23
ATOM     23  O   UNL     1      -0.108  -2.756  -0.012  0.00  0.00    -0.491 OA
ATOM     24  C   UNL     1      -0.242  -4.179  -0.018  0.00  0.00    +0.277 C 
ENDBRANCH  20  23
ENDBRANCH   1  18
BRANCH  11  25
ATOM     25  N   UNL     1      -4.418  -3.717  -2.542  0.00  0.00    -0.344 N 
ATOM     26  H   UNL     1      -3.911  -3.979  -1.758  0.00  0.00    +0.144 HD
ATOM     27  H   UNL     1      -4.206  -4.101  -3.407  0.00  0.00    +0.144 HD
ENDBRANCH  11  25
BRANCH   5  28
ATOM     28  O   UNL     1      -7.784  -1.208   4.718  0.00  0.00    -0.507 OA
ATOM     29  H   UNL     1      -7.405  -0.455   5.190  0.00  0.00    +0.292 HD
ENDBRANCH   5  28
BRANCH  12  30
ATOM     30  C   UNL     1      -5.833  -3.003  -4.805  0.00  0.00    +0.152 C 
BRANCH  30  31
ATOM     31  C   UNL     1      -6.562  -4.339  -4.963  0.00  0.00    +0.177 C 
BRANCH  31  32
ATOM     32  O   UNL     1      -6.253  -4.902  -6.240  0.00  0.00    -0.393 OA
ATOM     33  H   UNL     1      -6.682  -5.752  -6.409  0.00  0.00    +0.209 HD
ENDBRANCH  31  32
ENDBRANCH  30  31
ENDBRANCH  12  30
TORSDOF 8
