REMARK  Name = ZINC39388647
REMARK  4 active torsions:
REMARK  status: ('A' for Active; 'I' for Inactive)
REMARK    1  A    between atoms: C_5  and  C_7
REMARK    2  A    between atoms: C_7  and  N_8
REMARK    3  A    between atoms: C_16  and  C_17
REMARK    4  A    between atoms: C_16  and  C_19
REMARK                            x       y       z     vdW  Elec       q    Type
REMARK                         _______ _______ _______ _____ _____    ______ ____
ROOT
ATOM      1  N   UNL     1       1.488  -2.679   1.333  0.00  0.00    -0.262 N 
ATOM      2  C   UNL     1       2.756  -2.921   1.849  0.00  0.00    +0.045 A 
ATOM      3  C   UNL     1       4.022  -2.782   1.290  0.00  0.00    +0.024 A 
ATOM      4  C   UNL     1       5.145  -3.097   2.029  0.00  0.00    +0.002 A 
ATOM      5  C   UNL     1       5.028  -3.554   3.331  0.00  0.00    +0.001 A 
ATOM      6  C   UNL     1       3.780  -3.698   3.904  0.00  0.00    +0.010 A 
ATOM      7  C   UNL     1       2.642  -3.384   3.167  0.00  0.00    +0.010 A 
ATOM      8  C   UNL     1       1.195  -3.425   3.473  0.00  0.00    +0.063 C 
ATOM      9  C   UNL     1       0.604  -3.810   4.637  0.00  0.00    +0.084 C 
ATOM     10  C   UNL     1       0.530  -2.949   2.237  0.00  0.00    +0.253 C 
ATOM     11  O   UNL     1      -0.668  -2.827   2.069  0.00  0.00    -0.270 OA
ENDROOT
BRANCH   9  12
ATOM     12  C   UNL     1      -0.897  -3.785   4.764  0.00  0.00    +0.217 C 
ATOM     13  N   UNL     1      -1.294  -2.941   5.898  0.00  0.00    -0.359 N 
ATOM     14  C   UNL     1      -1.941  -3.695   6.739  0.00  0.00    +0.060 A 
ATOM     15  C   UNL     1      -2.574  -3.429   8.037  0.00  0.00    +0.027 A 
ATOM     16  C   UNL     1      -3.188  -4.431   8.697  0.00  0.00    +0.002 A 
ATOM     17  C   UNL     1      -3.252  -5.743   8.193  0.00  0.00    +0.002 A 
ATOM     18  C   UNL     1      -2.704  -6.095   7.012  0.00  0.00    +0.027 A 
ATOM     19  C   UNL     1      -2.009  -5.083   6.205  0.00  0.00    +0.060 A 
ATOM     20  N   UNL     1      -1.401  -5.133   5.055  0.00  0.00    -0.359 N 
ATOM     21  H   UNL     1      -1.107  -1.995   6.002  0.00  0.00    +0.162 HD
ATOM     22  H   UNL     1      -1.299  -5.918   4.493  0.00  0.00    +0.162 HD
ENDBRANCH   9  12
BRANCH   9  23
ATOM     23  C   UNL     1       1.409  -4.239   5.741  0.00  0.00    +0.100 C 
ATOM     24  N   UNL     1       2.047  -4.579   6.617  0.00  0.00    -0.191 NA
ENDBRANCH   9  23
BRANCH   1  25
ATOM     25  C   UNL     1       1.228  -2.186  -0.022  0.00  0.00    +0.152 C 
BRANCH  25  30
ATOM     26  C   UNL     1      -0.017   1.378   0.010  0.00  0.00    +0.000 A 
ATOM     27  C   UNL     1       1.171   2.087   0.002  0.00  0.00    +0.003 A 
ATOM     28  C   UNL     1       2.377   1.414  -0.013  0.00  0.00    +0.038 A 
ATOM     29  C   UNL     1       2.397   0.029  -0.021  0.00  0.00    +0.128 A 
ATOM     30  C   UNL     1       1.208  -0.679  -0.013  0.00  0.00    +0.005 A 
ATOM     31  C   UNL     1       0.002  -0.004   0.002  0.00  0.00    +0.008 A 
ATOM     32  F   UNL     1       3.577  -0.630  -0.036  0.00  0.00    -0.205 F 
ENDBRANCH  25  30
ENDBRANCH   1  25
TORSDOF 4
