REMARK  Name = ZINC53495930
REMARK  6 active torsions:
REMARK  status: ('A' for Active; 'I' for Inactive)
REMARK    1  A    between atoms: C_1  and  C_2
REMARK    2  A    between atoms: C_2  and  C_4
REMARK    3  A    between atoms: C_2  and  N_12
REMARK    4  A    between atoms: C_4  and  N_5
REMARK    5  A    between atoms: N_5  and  C_6
REMARK    6  A    between atoms: C_16  and  C_18
REMARK                            x       y       z     vdW  Elec       q    Type
REMARK                         _______ _______ _______ _____ _____    ______ ____
ROOT
ATOM      1  C   UNL     1      -0.227   1.477  -0.728  0.00  0.00    -0.015 C 
ATOM      2  C   UNL     1      -0.095   0.009  -0.317  0.00  0.00    -0.089 C 
ENDROOT
BRANCH   2   3
ATOM      3  N   UNL     1       0.775  -0.093   0.862  0.00  0.00    +0.382 N 
ATOM      4  C   UNL     1       0.083   0.469   2.042  0.00  0.00    -0.078 C 
ATOM      5  C   UNL     1      -0.554  -0.755   2.746  0.00  0.00    -0.020 C 
ATOM      6  C   UNL     1       0.534  -1.841   2.533  0.00  0.00    -0.017 C 
ATOM      7  C   UNL     1       1.085  -1.509   1.130  0.00  0.00    -0.065 C 
ATOM      8  H   UNL     1       1.631   0.417   0.699  0.00  0.00    -0.081 HD
BRANCH   7   9
ATOM      9  C   UNL     1       2.599  -1.726   1.101  0.00  0.00    -0.025 C 
ATOM     10  C   UNL     1       3.151  -1.412  -0.305  0.00  0.00    +0.002 C 
ATOM     11  C   UNL     1       4.264  -2.467  -0.521  0.00  0.00    +0.000 C 
ATOM     12  C   UNL     1       3.664  -3.735   0.135  0.00  0.00    +0.000 C 
ATOM     13  C   UNL     1       2.925  -3.204   1.381  0.00  0.00    +0.002 C 
ENDBRANCH   7   9
ENDBRANCH   2   3
BRANCH   2  14
ATOM     14  C   UNL     1      -1.478  -0.552   0.020  0.00  0.00    -0.098 C 
BRANCH  14  15
ATOM     15  N   UNL     1      -1.371  -1.995   0.276  0.00  0.00    +0.380 N 
ATOM     16  H   UNL     1      -0.912  -2.442  -0.503  0.00  0.00    -0.086 HD
ATOM     17  H   UNL     1      -0.834  -2.148   1.116  0.00  0.00    -0.086 HD
BRANCH  15  18
ATOM     18  C   UNL     1      -2.716  -2.563   0.443  0.00  0.00    -0.072 C 
ATOM     19  C   UNL     1      -3.357  -1.992   1.709  0.00  0.00    -0.016 C 
ATOM     20  C   UNL     1      -4.757  -2.584   1.883  0.00  0.00    -0.002 C 
ATOM     21  C   UNL     1      -4.656  -4.106   2.004  0.00  0.00    -0.000 C 
ATOM     22  C   UNL     1      -4.015  -4.677   0.737  0.00  0.00    -0.002 C 
ATOM     23  C   UNL     1      -2.615  -4.085   0.563  0.00  0.00    -0.016 C 
ENDBRANCH  15  18
ENDBRANCH  14  15
ENDBRANCH   2  14
TORSDOF 5
