REMARK  Name = ZINC11933068
REMARK  9 active torsions:
REMARK  status: ('A' for Active; 'I' for Inactive)
REMARK    1  A    between atoms: C_1  and  C_2
REMARK    2  A    between atoms: C_2  and  C_3
REMARK    3  A    between atoms: C_2  and  C_4
REMARK    4  A    between atoms: C_2  and  N_61
REMARK    5  A    between atoms: C_4  and  N_5
REMARK    6  A    between atoms: C_6  and  C_8
REMARK    7  A    between atoms: C_8  and  C_9
REMARK    8  A    between atoms: C_16  and  C_17
REMARK    9  A    between atoms: C_16  and  N_59
REMARK                            x       y       z     vdW  Elec       q    Type
REMARK                         _______ _______ _______ _____ _____    ______ ____
ROOT
ATOM      1  C   UNL     1       4.886   1.296  -1.865  0.00  0.00    +0.028 C 
ATOM      2  C   UNL     1       4.524   2.475  -1.006  0.00  0.00    +0.200 C 
ATOM      3  O   UNL     1       5.416   3.102  -0.475  0.00  0.00    -0.278 OA
ATOM      4  N   UNL     1       3.260   2.861  -0.803  0.00  0.00    -0.318 N 
ATOM      5  C   UNL     1       2.114   2.154  -1.367  0.00  0.00    +0.085 C 
ATOM      6  C   UNL     1       2.566   1.259  -2.523  0.00  0.00    -0.058 C 
ATOM      7  H   UNL     1       3.098   3.646  -0.257  0.00  0.00    +0.149 HD
ATOM      8  N   UNL     1       3.700   0.439  -2.050  0.00  0.00    +0.391 N 
ATOM      9  H   UNL     1       3.451   0.011  -1.151  0.00  0.00    -0.080 HD
ENDROOT
BRANCH   1  10
ATOM     10  C   UNL     1       5.984   0.483  -1.175  0.00  0.00    +0.089 C 
BRANCH  10  12
ATOM     11  N   UNL     1       6.250  -0.822   0.910  0.00  0.00    -0.317 N 
ATOM     12  C   UNL     1       5.484  -0.003   0.161  0.00  0.00    +0.212 C 
ATOM     13  O   UNL     1       4.393   0.342   0.563  0.00  0.00    -0.276 OA
ATOM     14  H   UNL     1       7.122  -1.098   0.588  0.00  0.00    +0.149 HD
BRANCH  11  15
ATOM     15  C   UNL     1       5.764  -1.294   2.209  0.00  0.00    +0.092 C 
BRANCH  15  17
ATOM     16  C   UNL     1       8.072  -1.192   3.162  0.00  0.00    -0.008 C 
ATOM     17  C   UNL     1       6.866  -2.097   2.904  0.00  0.00    -0.055 C 
ATOM     18  C   UNL     1       6.340  -2.639   4.234  0.00  0.00    -0.008 C 
BRANCH  17  24
ATOM     19  C   UNL     1       6.107  -4.025   1.649  0.00  0.00    -0.049 C 
ATOM     20  C   UNL     1       6.565  -5.144   0.709  0.00  0.00    +0.141 C 
ATOM     21  O   UNL     1       7.570  -5.925   1.360  0.00  0.00    -0.383 OA
ATOM     22  C   UNL     1       8.718  -5.171   1.758  0.00  0.00    +0.141 C 
ATOM     23  C   UNL     1       8.282  -4.053   2.709  0.00  0.00    -0.049 C 
ATOM     24  N   UNL     1       7.282  -3.209   2.022  0.00  0.00    +0.387 N 
ATOM     25  H   UNL     1       7.703  -2.820   1.170  0.00  0.00    -0.081 HD
ENDBRANCH  17  24
ENDBRANCH  15  17
ENDBRANCH  11  15
ENDBRANCH  10  12
ENDBRANCH   1  10
BRANCH   8  26
ATOM     26  C   UNL     1       3.996  -0.631  -3.029  0.00  0.00    -0.039 C 
BRANCH  26  27
ATOM     27  C   UNL     1       4.357  -0.033  -4.364  0.00  0.00    -0.026 A 
ATOM     28  C   UNL     1       3.383   0.145  -5.329  0.00  0.00    +0.005 A 
ATOM     29  C   UNL     1       3.713   0.694  -6.553  0.00  0.00    +0.003 A 
ATOM     30  C   UNL     1       5.018   1.067  -6.816  0.00  0.00    +0.041 A 
ATOM     31  C   UNL     1       5.995   0.890  -5.853  0.00  0.00    +0.159 A 
ATOM     32  C   UNL     1       5.664   0.339  -4.624  0.00  0.00    +0.160 A 
ATOM     33  F   UNL     1       6.617   0.165  -3.682  0.00  0.00    -0.202 F 
ATOM     34  F   UNL     1       7.271   1.254  -6.110  0.00  0.00    -0.202 F 
ENDBRANCH  26  27
ENDBRANCH   8  26
TORSDOF 7
