REMARK  Name = ZINC62245444
REMARK  6 active torsions:
REMARK  status: ('A' for Active; 'I' for Inactive)
REMARK    1  A    between atoms: C_1  and  C_2
REMARK    2  A    between atoms: C_2  and  C_3
REMARK    3  A    between atoms: C_6  and  N_9
REMARK    4  A    between atoms: C_10  and  C_16
REMARK    5  A    between atoms: C_11  and  C_14
REMARK    6  A    between atoms: C_14  and  N_15
REMARK                            x       y       z     vdW  Elec       q    Type
REMARK                         _______ _______ _______ _____ _____    ______ ____
ROOT
ATOM      1  N   UNL     1       2.522  -1.868   4.656  0.00  0.00    -0.212 N 
ATOM      2  C   UNL     1       2.353  -1.530   5.973  0.00  0.00    +0.096 A 
ATOM      3  C   UNL     1       3.362  -2.139   6.660  0.00  0.00    +0.074 A 
ATOM      4  N   UNL     1       4.117  -2.820   5.801  0.00  0.00    -0.135 NA
ATOM      5  N   UNL     1       3.655  -2.694   4.606  0.00  0.00    -0.060 NA
ENDROOT
BRANCH   2   6
ATOM      6  C   UNL     1       1.287  -0.675   6.539  0.00  0.00    +0.005 A 
ATOM      7  C   UNL     1       0.483  -1.151   7.575  0.00  0.00    +0.013 A 
ATOM      8  C   UNL     1      -0.510  -0.350   8.100  0.00  0.00    +0.042 A 
ATOM      9  C   UNL     1      -0.710   0.926   7.601  0.00  0.00    +0.158 A 
ATOM     10  C   UNL     1       0.086   1.406   6.570  0.00  0.00    +0.159 A 
ATOM     11  C   UNL     1       1.086   0.613   6.042  0.00  0.00    +0.051 A 
ATOM     12  F   UNL     1      -0.115   2.651   6.086  0.00  0.00    -0.202 F 
ATOM     13  F   UNL     1      -1.684   1.707   8.118  0.00  0.00    -0.202 F 
ENDBRANCH   2   6
BRANCH   1  17
ATOM     14  C   UNL     1       0.139  -0.693   1.445  0.00  0.00    -0.047 A 
ATOM     15  C   UNL     1       1.502  -0.849   1.272  0.00  0.00    +0.006 A 
ATOM     16  C   UNL     1       2.295  -1.238   2.334  0.00  0.00    +0.028 A 
ATOM     17  C   UNL     1       1.721  -1.473   3.576  0.00  0.00    +0.068 A 
ATOM     18  C   UNL     1       0.352  -1.315   3.747  0.00  0.00    +0.028 A 
ATOM     19  C   UNL     1      -0.434  -0.920   2.682  0.00  0.00    +0.006 A 
BRANCH  14  21
ATOM     20  C   UNL     1      -0.805   1.258   0.241  0.00  0.00    +0.009 C 
ATOM     21  C   UNL     1      -0.723  -0.269   0.283  0.00  0.00    +0.032 C 
ENDBRANCH  14  21
ENDBRANCH   1  17
BRANCH   3  22
ATOM     22  C   UNL     1       3.586  -2.053   8.148  0.00  0.00    -0.026 C 
BRANCH  22  23
ATOM     23  N   UNL     1       4.354  -0.840   8.458  0.00  0.00    +0.382 N 
ATOM     24  H   UNL     1       4.528  -0.797   9.451  0.00  0.00    -0.090 HD
ATOM     25  H   UNL     1       5.234  -0.863   7.964  0.00  0.00    -0.090 HD
ATOM     26  H   UNL     1       3.829  -0.027   8.173  0.00  0.00    -0.090 HD
ENDBRANCH  22  23
ENDBRANCH   3  22
TORSDOF 5
