REMARK  Name = ZINC33870849
REMARK  7 active torsions:
REMARK  status: ('A' for Active; 'I' for Inactive)
REMARK    1  A    between atoms: C_1  and  C_2
REMARK    2  A    between atoms: C_9  and  C_10
REMARK    3  A    between atoms: C_9  and  C_11
REMARK    4  A    between atoms: C_13  and  N_15
REMARK    5  A    between atoms: C_16  and  C_18
REMARK    6  A    between atoms: C_21  and  C_23
REMARK    7  A    between atoms: C_26  and  N_29
REMARK                            x       y       z     vdW  Elec       q    Type
REMARK                         _______ _______ _______ _____ _____    ______ ____
ROOT
ATOM      1  N   UNL     1      -0.765  -0.059   1.869  0.00  0.00    -0.307 N 
ATOM      2  C   UNL     1      -0.597   0.091   3.198  0.00  0.00    +0.266 C 
ATOM      3  O   UNL     1       0.521   0.207   3.660  0.00  0.00    -0.268 OA
ATOM      4  H   UNL     1      -1.658  -0.152   1.501  0.00  0.00    +0.149 HD
ENDROOT
BRANCH   1  14
ATOM      5  C   UNL     1       0.135   1.872  -0.579  0.00  0.00    +0.009 C 
ATOM      6  C   UNL     1      -0.026   0.357  -0.416  0.00  0.00    +0.010 C 
ATOM      7  C   UNL     1       0.720  -0.389  -1.521  0.00  0.00    -0.000 C 
ATOM      8  C   UNL     1       0.386  -1.900  -1.432  0.00  0.00    +0.008 C 
ATOM      9  C   UNL     1       1.514  -1.928  -0.380  0.00  0.00    -0.003 C 
ATOM     10  C   UNL     1       2.158  -0.800  -1.198  0.00  0.00    -0.029 C 
ATOM     11  C   UNL     1       3.001   0.189  -0.401  0.00  0.00    +0.011 C 
ATOM     12  C   UNL     1       2.932  -1.316  -2.427  0.00  0.00    +0.011 C 
ATOM     13  C   UNL     1       1.008  -1.485   0.992  0.00  0.00    +0.026 C 
ATOM     14  C   UNL     1       0.409  -0.083   0.975  0.00  0.00    +0.077 C 
ENDBRANCH   1  14
BRANCH   2  15
ATOM     15  C   UNL     1      -1.770   0.115   4.091  0.00  0.00    +0.164 A 
ATOM     16  C   UNL     1      -1.752   0.265   5.445  0.00  0.00    +0.230 A 
ATOM     17  O   UNL     1      -3.027   0.231   5.865  0.00  0.00    -0.443 OA
ATOM     18  C   UNL     1      -3.818   0.063   4.790  0.00  0.00    +0.228 A 
ATOM     19  N   UNL     1      -3.071  -0.002   3.717  0.00  0.00    -0.204 NA
BRANCH  18  20
ATOM     20  C   UNL     1      -5.293  -0.027   4.816  0.00  0.00    +0.037 A 
ATOM     21  C   UNL     1      -6.003  -0.209   3.628  0.00  0.00    +0.015 A 
ATOM     22  C   UNL     1      -7.378  -0.293   3.655  0.00  0.00    +0.023 A 
ATOM     23  C   UNL     1      -8.058  -0.197   4.864  0.00  0.00    +0.025 A 
ATOM     24  C   UNL     1      -7.353  -0.016   6.050  0.00  0.00    +0.023 A 
ATOM     25  C   UNL     1      -5.978   0.063   6.029  0.00  0.00    +0.015 A 
BRANCH  23  26
ATOM     26  N   UNL     1      -9.449  -0.283   4.889  0.00  0.00    -0.358 N 
ATOM     27  H   UNL     1      -9.942  -0.409   4.063  0.00  0.00    +0.142 HD
ATOM     28  H   UNL     1      -9.925  -0.216   5.732  0.00  0.00    +0.142 HD
ENDBRANCH  23  26
ENDBRANCH  18  20
ENDBRANCH   2  15
TORSDOF 4
