REMARK  Name = ZINC43407095
REMARK  2 active torsions:
REMARK  status: ('A' for Active; 'I' for Inactive)
REMARK    1  A    between atoms: C_6  and  C_7
REMARK    2  A    between atoms: C_14  and  C_16
REMARK                            x       y       z     vdW  Elec       q    Type
REMARK                         _______ _______ _______ _____ _____    ______ ____
ROOT
ATOM      1  C   UNL     1       1.423   1.212  -2.049  0.00  0.00    +0.027 A 
ATOM      2  C   UNL     1       1.235   2.033  -0.949  0.00  0.00    -0.025 A 
ATOM      3  C   UNL     1       1.079   1.472   0.306  0.00  0.00    +0.047 A 
ATOM      4  N   UNL     1       1.107   0.158   0.466  0.00  0.00    -0.235 NA
ATOM      5  C   UNL     1       1.282  -0.670  -0.548  0.00  0.00    +0.140 A 
ATOM      6  C   UNL     1       1.448  -0.173  -1.853  0.00  0.00    +0.092 A 
ATOM      7  N   UNL     1       1.304  -2.036  -0.325  0.00  0.00    -0.303 N 
ATOM      8  C   UNL     1       0.053  -2.805  -0.266  0.00  0.00    +0.107 C 
ATOM      9  C   UNL     1       0.022  -3.596   1.046  0.00  0.00    +0.019 C 
ATOM     10  C   UNL     1       1.289  -4.448   1.152  0.00  0.00    +0.004 C 
ATOM     11  C   UNL     1       2.519  -3.537   1.166  0.00  0.00    +0.032 C 
ATOM     12  C   UNL     1       2.578  -2.746  -0.149  0.00  0.00    +0.160 C 
ATOM     13  C   UNL     1       0.891   2.571   1.332  0.00  0.00    +0.056 C 
ATOM     14  C   UNL     1       1.385   3.860   0.642  0.00  0.00    +0.011 C 
ATOM     15  C   UNL     1       1.164   3.541  -0.852  0.00  0.00    +0.037 C 
ENDROOT
BRANCH  12  16
ATOM     16  C   UNL     1       3.707  -1.750  -0.091  0.00  0.00    +0.231 C 
ATOM     17  O   UNL     1       3.551  -0.688   0.473  0.00  0.00    -0.274 OA
ATOM     18  N   UNL     1       4.891  -2.039  -0.667  0.00  0.00    -0.328 N 
ATOM     19  H   UNL     1       5.016  -2.889  -1.119  0.00  0.00    +0.145 HD
ATOM     20  H   UNL     1       5.618  -1.398  -0.630  0.00  0.00    +0.145 HD
ENDBRANCH  12  16
BRANCH   6  21
ATOM     21  C   UNL     1       1.637  -1.064  -2.957  0.00  0.00    +0.103 C 
ATOM     22  N   UNL     1       1.788  -1.772  -3.833  0.00  0.00    -0.191 NA
ENDBRANCH   6  21
TORSDOF 2
