REMARK  Name = ZINC08996696
REMARK  7 active torsions:
REMARK  status: ('A' for Active; 'I' for Inactive)
REMARK    1  A    between atoms: C_1  and  S_2
REMARK    2  A    between atoms: S_2  and  C_3
REMARK    3  A    between atoms: C_3  and  C_4
REMARK    4  A    between atoms: C_4  and  C_5
REMARK    5  A    between atoms: C_5  and  C_7
REMARK    6  A    between atoms: C_5  and  N_23
REMARK    7  A    between atoms: C_24  and  C_26
REMARK                            x       y       z     vdW  Elec       q    Type
REMARK                         _______ _______ _______ _____ _____    ______ ____
ROOT
ATOM      1  C   UNL     1       3.420   5.674  -0.241  0.00  0.00    +0.236 C 
ATOM      2  O   UNL     1       4.022   6.378   0.542  0.00  0.00    -0.274 OA
ATOM      3  N   UNL     1       2.824   6.221  -1.319  0.00  0.00    -0.300 N 
ATOM      4  C   UNL     1       2.004   5.399  -2.219  0.00  0.00    +0.107 C 
ATOM      5  C   UNL     1       2.511   5.570  -3.650  0.00  0.00    +0.013 C 
ATOM      6  C   UNL     1       2.540   7.057  -4.005  0.00  0.00    -0.022 C 
ATOM      7  C   UNL     1       3.489   7.796  -3.061  0.00  0.00    +0.013 C 
ATOM      8  C   UNL     1       2.989   7.650  -1.621  0.00  0.00    +0.107 C 
ATOM      9  C   UNL     1       2.999   7.230  -5.428  0.00  0.00    +0.027 A 
ATOM     10  C   UNL     1       2.165   7.511  -6.456  0.00  0.00    +0.059 A 
ATOM     11  N   UNL     1       2.895   7.599  -7.567  0.00  0.00    -0.241 NA
ATOM     12  C   UNL     1       4.151   7.382  -7.273  0.00  0.00    +0.196 A 
ATOM     13  N   UNL     1       4.253   7.147  -5.944  0.00  0.00    -0.349 N 
ATOM     14  H   UNL     1       5.093   6.951  -5.438  0.00  0.00    +0.166 HD
ATOM     15  C   UNL     1       0.675   7.680  -6.283  0.00  0.00    +0.038 C 
ATOM     16  C   UNL     1       0.288   7.092  -4.919  0.00  0.00    -0.075 C 
ATOM     17  N   UNL     1       1.181   7.628  -3.871  0.00  0.00    +0.387 N 
ATOM     18  H   UNL     1       1.234   8.649  -3.961  0.00  0.00    -0.085 HD
ATOM     19  H   UNL     1       0.803   7.385  -2.948  0.00  0.00    -0.085 HD
ENDROOT
BRANCH   1  20
ATOM     20  C   UNL     1       3.338   4.187  -0.009  0.00  0.00    +0.160 C 
BRANCH  20  21
ATOM     21  N   UNL     1       4.453   3.764   0.843  0.00  0.00    -0.297 N 
ATOM     22  C   UNL     1       4.897   2.493   0.789  0.00  0.00    +0.280 C 
ATOM     23  O   UNL     1       4.372   1.696   0.034  0.00  0.00    -0.267 OA
ATOM     24  H   UNL     1       4.871   4.399   1.445  0.00  0.00    +0.150 HD
BRANCH  22  25
ATOM     25  C   UNL     1       6.013   2.069   1.642  0.00  0.00    +0.189 A 
ATOM     26  C   UNL     1       6.558   0.818   1.687  0.00  0.00    +0.054 A 
ATOM     27  C   UNL     1       7.594   0.864   2.633  0.00  0.00    +0.042 A 
ATOM     28  C   UNL     1       7.635   2.124   3.118  0.00  0.00    +0.196 A 
ATOM     29  O   UNL     1       6.684   2.849   2.514  0.00  0.00    -0.458 OA
ENDBRANCH  22  25
ENDBRANCH  20  21
BRANCH  20  30
ATOM     30  C   UNL     1       2.014   3.851   0.680  0.00  0.00    +0.042 C 
BRANCH  30  31
ATOM     31  C   UNL     1       1.867   2.332   0.788  0.00  0.00    +0.071 C 
BRANCH  31  33
ATOM     32  C   UNL     1       0.277   0.119   1.655  0.00  0.00    +0.084 C 
ATOM     33  S   UNL     1       0.297   1.933   1.605  0.00  0.00    -0.164 S 
ENDBRANCH  31  33
ENDBRANCH  30  31
ENDBRANCH  20  30
ENDBRANCH   1  20
TORSDOF 6
