REMARK  Name = ZINC39693387
REMARK  10 active torsions:
REMARK  status: ('A' for Active; 'I' for Inactive)
REMARK    1  A    between atoms: C_1  and  C_2
REMARK    2  A    between atoms: C_2  and  C_3
REMARK    3  A    between atoms: C_2  and  C_4
REMARK    4  A    between atoms: C_2  and  O_5
REMARK    5  A    between atoms: O_5  and  C_6
REMARK    6  A    between atoms: N_8  and  C_9
REMARK    7  A    between atoms: C_9  and  C_10
REMARK    8  A    between atoms: C_10  and  N_11
REMARK    9  A    between atoms: C_12  and  C_14
REMARK   10  A    between atoms: C_25  and  C_27
REMARK                            x       y       z     vdW  Elec       q    Type
REMARK                         _______ _______ _______ _____ _____    ______ ____
ROOT
ATOM      1  C   UNL     1       8.095  -0.218  -5.353  0.00  0.00    +0.100 C 
ATOM      2  C   UNL     1       8.950  -0.678  -4.151  0.00  0.00    +0.121 C 
ATOM      3  N   UNL     1       9.539  -1.968  -4.582  0.00  0.00    -0.296 N 
ATOM      4  C   UNL     1       9.883  -1.758  -6.009  0.00  0.00    +0.115 C 
ATOM      5  C   UNL     1       8.713  -0.926  -6.571  0.00  0.00    -0.004 C 
ATOM      6  C   UNL     1       9.229   0.102  -7.574  0.00  0.00    -0.010 C 
ATOM      7  C   UNL     1       9.786  -0.624  -8.802  0.00  0.00    -0.082 C 
ATOM      8  N   UNL     1       8.729  -1.442  -9.409  0.00  0.00    +0.379 N 
ATOM      9  C   UNL     1       8.303  -2.487  -8.471  0.00  0.00    -0.082 C 
ATOM     10  C   UNL     1       7.684  -1.840  -7.229  0.00  0.00    -0.010 C 
ATOM     11  C   UNL     1       9.721  -3.081  -3.844  0.00  0.00    +0.252 C 
ATOM     12  O   UNL     1      10.222  -4.068  -4.347  0.00  0.00    -0.270 OA
ATOM     13  H   UNL     1       7.940  -0.855  -9.637  0.00  0.00    -0.086 HD
ATOM     14  H   UNL     1       9.080  -1.871 -10.252  0.00  0.00    -0.086 HD
ENDROOT
BRANCH  11  15
ATOM     15  C   UNL     1       9.311  -3.102  -2.427  0.00  0.00    +0.107 A 
ATOM     16  C   UNL     1       8.021  -3.510  -2.073  0.00  0.00    +0.138 A 
ATOM     17  C   UNL     1       7.646  -3.527  -0.743  0.00  0.00    +0.039 A 
ATOM     18  C   UNL     1       8.542  -3.140   0.237  0.00  0.00    +0.006 A 
ATOM     19  C   UNL     1       9.819  -2.735  -0.104  0.00  0.00    +0.039 A 
ATOM     20  C   UNL     1      10.213  -2.718  -1.429  0.00  0.00    +0.138 A 
ATOM     21  F   UNL     1      11.463  -2.327  -1.759  0.00  0.00    -0.205 F 
ATOM     22  F   UNL     1       7.144  -3.887  -3.029  0.00  0.00    -0.205 F 
ENDBRANCH  11  15
BRANCH   1  24
ATOM     23  N   UNL     1       5.668   0.076  -5.730  0.00  0.00    -0.314 N 
ATOM     24  C   UNL     1       6.661  -0.644  -5.171  0.00  0.00    +0.218 C 
ATOM     25  O   UNL     1       6.400  -1.634  -4.521  0.00  0.00    -0.275 OA
ATOM     26  H   UNL     1       5.877   0.868  -6.250  0.00  0.00    +0.149 HD
BRANCH  23  27
ATOM     27  C   UNL     1       4.274  -0.337  -5.553  0.00  0.00    +0.123 C 
BRANCH  27  28
ATOM     28  C   UNL     1       3.354   0.644  -6.282  0.00  0.00    +0.126 C 
BRANCH  28  31
ATOM     29  C   UNL     1       0.968   0.950  -6.664  0.00  0.00    +0.401 C 
ATOM     30  O   UNL     1       1.229   1.942  -7.315  0.00  0.00    -0.226 OA
ATOM     31  N   UNL     1       1.960   0.230  -6.105  0.00  0.00    -0.280 N 
ATOM     32  H   UNL     1       1.752  -0.562  -5.585  0.00  0.00    +0.152 HD
BRANCH  29  33
ATOM     33  O   UNL     1      -0.314   0.570  -6.501  0.00  0.00    -0.445 OA
BRANCH  33  35
ATOM     34  C   UNL     1      -1.083   1.408  -8.633  0.00  0.00    +0.055 C 
ATOM     35  C   UNL     1      -1.315   1.380  -7.121  0.00  0.00    +0.107 C 
ATOM     36  C   UNL     1      -1.234   2.804  -6.567  0.00  0.00    +0.055 C 
ATOM     37  C   UNL     1      -2.698   0.795  -6.828  0.00  0.00    +0.055 C 
ENDBRANCH  33  35
ENDBRANCH  29  33
ENDBRANCH  28  31
ENDBRANCH  27  28
ENDBRANCH  23  27
ENDBRANCH   1  24
TORSDOF 7
