REMARK  Name = ZINC66306073
REMARK  7 active torsions:
REMARK  status: ('A' for Active; 'I' for Inactive)
REMARK    1  A    between atoms: C_1  and  C_2
REMARK    2  A    between atoms: C_2  and  C_4
REMARK    3  A    between atoms: C_2  and  N_20
REMARK    4  A    between atoms: C_4  and  C_5
REMARK    5  A    between atoms: N_7  and  C_8
REMARK    6  A    between atoms: C_13  and  N_15
REMARK    7  A    between atoms: C_21  and  C_23
REMARK                            x       y       z     vdW  Elec       q    Type
REMARK                         _______ _______ _______ _____ _____    ______ ____
ROOT
ATOM      1  C   UNL     1       0.632  -2.000  -1.327  0.00  0.00    +0.215 C 
ATOM      2  O   UNL     1       0.054  -2.616  -0.457  0.00  0.00    -0.276 OA
ATOM      3  N   UNL     1       1.196  -2.660  -2.358  0.00  0.00    -0.310 N 
ATOM      4  H   UNL     1       1.658  -2.168  -3.055  0.00  0.00    +0.149 HD
ENDROOT
BRANCH   3   5
ATOM      5  C   UNL     1       1.112  -4.121  -2.427  0.00  0.00    +0.096 C 
ATOM      6  C   UNL     1      -0.193  -4.543  -3.134  0.00  0.00    +0.024 C 
ATOM      7  C   UNL     1       0.229  -4.768  -4.607  0.00  0.00    +0.004 C 
ATOM      8  C   UNL     1       1.629  -5.416  -4.467  0.00  0.00    +0.027 C 
ATOM      9  C   UNL     1       2.271  -4.676  -3.273  0.00  0.00    +0.108 C 
BRANCH   9  10
ATOM     10  N   UNL     1       3.072  -5.609  -2.476  0.00  0.00    -0.334 N 
ATOM     11  C   UNL     1       2.631  -6.766  -1.894  0.00  0.00    +0.105 A 
ATOM     12  C   UNL     1       3.688  -7.312  -1.262  0.00  0.00    +0.101 A 
ATOM     13  N   UNL     1       4.745  -6.509  -1.454  0.00  0.00    -0.352 N 
ATOM     14  C   UNL     1       4.385  -5.489  -2.184  0.00  0.00    +0.174 A 
ATOM     15  H   UNL     1       5.638  -6.664  -1.107  0.00  0.00    +0.166 HD
ENDBRANCH   9  10
ENDBRANCH   3   5
BRANCH   1  16
ATOM     16  C   UNL     1       0.718  -0.497  -1.257  0.00  0.00    +0.117 C 
BRANCH  16  18
ATOM     17  C   UNL     1      -0.019   1.526   0.010  0.00  0.00    +0.028 C 
ATOM     18  C   UNL     1       0.002  -0.004   0.002  0.00  0.00    +0.079 C 
BRANCH  18  19
ATOM     19  N   UNL     1       0.711  -0.489   1.189  0.00  0.00    -0.312 N 
ATOM     20  C   UNL     1       0.051  -0.633   2.355  0.00  0.00    +0.216 C 
ATOM     21  O   UNL     1      -1.129  -0.361   2.423  0.00  0.00    -0.276 OA
ATOM     22  H   UNL     1       1.654  -0.707   1.135  0.00  0.00    +0.149 HD
BRANCH  20  23
ATOM     23  C   UNL     1       0.780  -1.133   3.576  0.00  0.00    +0.075 C 
ATOM     24  C   UNL     1       1.347  -2.526   3.298  0.00  0.00    +0.013 C 
ATOM     25  C   UNL     1       2.087  -3.033   4.537  0.00  0.00    +0.001 C 
ATOM     26  C   UNL     1       1.116  -3.104   5.717  0.00  0.00    +0.000 C 
ATOM     27  C   UNL     1       0.549  -1.711   5.996  0.00  0.00    +0.001 C 
ATOM     28  C   UNL     1      -0.191  -1.204   4.756  0.00  0.00    +0.013 C 
ENDBRANCH  20  23
ENDBRANCH  18  19
ENDBRANCH  16  18
ENDBRANCH   1  16
TORSDOF 6
