REMARK  Name = ZINC44366728
REMARK  8 active torsions:
REMARK  status: ('A' for Active; 'I' for Inactive)
REMARK    1  A    between atoms: C_1  and  C_2
REMARK    2  A    between atoms: C_2  and  O_3
REMARK    3  A    between atoms: O_3  and  C_4
REMARK    4  A    between atoms: C_4  and  C_6
REMARK    5  A    between atoms: C_6  and  C_8
REMARK    6  A    between atoms: C_6  and  N_17
REMARK    7  A    between atoms: C_8  and  C_9
REMARK    8  A    between atoms: C_12  and  O_16
REMARK                            x       y       z     vdW  Elec       q    Type
REMARK                         _______ _______ _______ _____ _____    ______ ____
ROOT
ATOM      1  C   UNL     1       1.516  -2.381   2.500  0.00  0.00    +0.040 C 
ENDROOT
BRANCH   1   2
ATOM      2  N   UNL     1       1.104  -3.777   2.694  0.00  0.00    +0.387 N 
ATOM      3  H   UNL     1       1.339  -4.314   1.873  0.00  0.00    -0.089 HD
ATOM      4  H   UNL     1       1.583  -4.161   3.495  0.00  0.00    -0.089 HD
ATOM      5  H   UNL     1       0.108  -3.816   2.848  0.00  0.00    -0.089 HD
ENDBRANCH   1   2
BRANCH   1   6
ATOM      6  C   UNL     1       0.801  -1.808   1.304  0.00  0.00    +0.293 C 
ATOM      7  O   UNL     1       0.324  -2.546   0.475  0.00  0.00    -0.253 OA
BRANCH   6   8
ATOM      8  O   UNL     1       0.693  -0.477   1.160  0.00  0.00    -0.466 OA
BRANCH   8  10
ATOM      9  C   UNL     1      -0.019   1.526   0.010  0.00  0.00    +0.048 C 
ATOM     10  C   UNL     1       0.002  -0.004   0.002  0.00  0.00    +0.228 C 
ENDBRANCH   8  10
ENDBRANCH   6   8
ENDBRANCH   1   6
BRANCH   1  11
ATOM     11  C   UNL     1       3.027  -2.322   2.267  0.00  0.00    +0.030 C 
BRANCH  11  12
ATOM     12  C   UNL     1       3.745  -2.780   3.510  0.00  0.00    -0.047 A 
ATOM     13  C   UNL     1       4.088  -1.863   4.486  0.00  0.00    +0.007 A 
ATOM     14  C   UNL     1       4.746  -2.281   5.627  0.00  0.00    +0.047 A 
ATOM     15  C   UNL     1       5.064  -3.621   5.793  0.00  0.00    +0.130 A 
ATOM     16  C   UNL     1       4.718  -4.540   4.811  0.00  0.00    +0.055 A 
ATOM     17  C   UNL     1       4.055  -4.118   3.674  0.00  0.00    +0.021 A 
ATOM     18  I   UNL     1       5.195  -6.565   5.056  0.00  0.00    -0.040 I 
BRANCH  15  19
ATOM     19  O   UNL     1       5.711  -4.034   6.914  0.00  0.00    -0.506 OA
ATOM     20  H   UNL     1       5.122  -4.288   7.637  0.00  0.00    +0.292 HD
ENDBRANCH  15  19
ENDBRANCH  11  12
ENDBRANCH   1  11
TORSDOF 7
