REMARK  Name = ZINC40377405
REMARK  8 active torsions:
REMARK  status: ('A' for Active; 'I' for Inactive)
REMARK    1  A    between atoms: C_1  and  C_2
REMARK    2  A    between atoms: C_2  and  C_3
REMARK    3  A    between atoms: C_3  and  C_4
REMARK    4  A    between atoms: C_3  and  C_5
REMARK    5  A    between atoms: C_3  and  N_9
REMARK    6  A    between atoms: N_6  and  O_7
REMARK    7  A    between atoms: N_9  and  S_10
REMARK    8  A    between atoms: S_10  and  C_13
REMARK                            x       y       z     vdW  Elec       q    Type
REMARK                         _______ _______ _______ _____ _____    ______ ____
ROOT
ATOM      1  C   UNL     1       1.092  -0.458   1.762  0.00  0.00    +0.095 C 
ATOM      2  C   UNL     1       1.271  -1.972   1.635  0.00  0.00    +0.037 C 
ENDROOT
BRANCH   1   3
ATOM      3  C   UNL     1       2.425   0.183   2.050  0.00  0.00    +0.153 C 
ATOM      4  N   UNL     1       3.492  -0.543   2.112  0.00  0.00    -0.075 NA
ATOM      5  N   UNL     1       2.507   1.544   2.247  0.00  0.00    -0.342 N 
ATOM      6  H   UNL     1       1.698   2.079   2.277  0.00  0.00    +0.144 HD
ATOM      7  H   UNL     1       3.373   1.967   2.357  0.00  0.00    +0.144 HD
BRANCH   4   8
ATOM      8  O   UNL     1       4.744   0.059   2.384  0.00  0.00    -0.408 OA
ATOM      9  H   UNL     1       5.483  -0.565   2.410  0.00  0.00    +0.328 HD
ENDBRANCH   4   8
ENDBRANCH   1   3
BRANCH   1  11
ATOM     10  C   UNL     1       1.560  -0.085  -0.664  0.00  0.00    +0.006 C 
ATOM     11  C   UNL     1       0.531   0.100   0.453  0.00  0.00    +0.028 C 
ENDBRANCH   1  11
BRANCH   1  12
ATOM     12  N   UNL     1       0.163  -0.166   2.856  0.00  0.00    -0.176 NA
ATOM     13  H   UNL     1       0.421   0.450   3.560  0.00  0.00    +0.149 HD
BRANCH  12  14
ATOM     14  S   UNL     1      -1.328  -0.886   2.890  0.00  0.00    +0.066 S 
ATOM     15  O   UNL     1      -1.999  -0.376   4.035  0.00  0.00    -0.153 OA
ATOM     16  O   UNL     1      -1.864  -0.773   1.579  0.00  0.00    -0.153 OA
BRANCH  14  17
ATOM     17  C   UNL     1      -1.069  -2.604   3.182  0.00  0.00    +0.143 A 
ATOM     18  C   UNL     1      -0.845  -3.247   4.354  0.00  0.00    +0.037 A 
ATOM     19  C   UNL     1      -0.668  -4.618   4.345  0.00  0.00    +0.025 A 
ATOM     20  C   UNL     1      -0.724  -5.279   3.162  0.00  0.00    +0.057 A 
ATOM     21  S   UNL     1      -1.043  -3.952   2.011  0.00  0.00    -0.062 S 
ATOM     22 BR   UNL     1      -0.524  -7.128   2.821  0.00  0.00    -0.043 Br
ENDBRANCH  14  17
ENDBRANCH  12  14
ENDBRANCH   1  12
TORSDOF 6
