REMARK  Name = ZINC49120753
REMARK  5 active torsions:
REMARK  status: ('A' for Active; 'I' for Inactive)
REMARK    1  A    between atoms: C_1  and  C_2
REMARK    2  A    between atoms: C_2  and  N_3
REMARK    3  A    between atoms: N_3  and  C_4
REMARK    4  A    between atoms: C_4  and  C_5
REMARK    5  A    between atoms: C_11  and  C_13
REMARK                            x       y       z     vdW  Elec       q    Type
REMARK                         _______ _______ _______ _____ _____    ______ ____
ROOT
ATOM      1  N   UNL     1       0.643  -0.662  -1.138  0.00  0.00    -0.297 N 
ATOM      2  C   UNL     1      -0.025  -0.801  -2.300  0.00  0.00    +0.248 C 
ATOM      3  O   UNL     1      -1.186  -0.448  -2.381  0.00  0.00    -0.270 OA
ENDROOT
BRANCH   2   4
ATOM      4  C   UNL     1       0.653  -1.380  -3.475  0.00  0.00    +0.054 A 
ATOM      5  C   UNL     1       0.440  -2.736  -3.825  0.00  0.00    +0.040 A 
ATOM      6  C   UNL     1       1.078  -3.244  -4.914  0.00  0.00    +0.106 A 
ATOM      7  C   UNL     1       1.934  -2.415  -5.666  0.00  0.00    +0.267 A 
ATOM      8  O   UNL     1       2.508  -2.865  -6.643  0.00  0.00    -0.266 OA
ATOM      9  N   UNL     1       2.121  -1.130  -5.314  0.00  0.00    -0.327 N 
ATOM     10  H   UNL     1       2.713  -0.572  -5.843  0.00  0.00    +0.168 HD
ATOM     11  C   UNL     1       1.495  -0.604  -4.244  0.00  0.00    +0.099 A 
ATOM     12 CL   UNL     1       0.841  -4.901  -5.372  0.00  0.00    -0.078 Cl
ENDBRANCH   2   4
BRANCH   1  14
ATOM     13  C   UNL     1       0.113   1.324   0.188  0.00  0.00    +0.024 C 
ATOM     14  C   UNL     1      -0.060  -0.191   0.058  0.00  0.00    +0.105 C 
ENDBRANCH   1  14
BRANCH   1  15
ATOM     15  C   UNL     1       2.071  -0.983  -1.070  0.00  0.00    +0.114 C 
BRANCH  15  16
ATOM     16  C   UNL     1       2.245  -2.457  -0.699  0.00  0.00    +0.034 C 
ATOM     17  C   UNL     1       3.749  -2.845  -0.673  0.00  0.00    +0.035 C 
ATOM     18  C   UNL     1       3.735  -4.003   0.357  0.00  0.00    +0.160 C 
ATOM     19  O   UNL     1       2.759  -3.621   1.339  0.00  0.00    -0.379 OA
ATOM     20  C   UNL     1       1.811  -2.711   0.760  0.00  0.00    +0.165 C 
ENDBRANCH  15  16
ENDBRANCH   1  15
TORSDOF 4
