REMARK  Name = ZINC63280134
REMARK  12 active torsions:
REMARK  status: ('A' for Active; 'I' for Inactive)
REMARK    1  A    between atoms: C_1  and  C_2
REMARK    2  A    between atoms: C_2  and  C_4
REMARK    3  A    between atoms: C_2  and  N_14
REMARK    4  A    between atoms: C_4  and  C_5
REMARK    5  A    between atoms: C_15  and  C_17
REMARK    6  A    between atoms: C_20  and  C_24
REMARK    7  A    between atoms: C_26  and  O_34
REMARK    8  A    between atoms: C_27  and  O_32
REMARK    9  A    between atoms: C_28  and  O_30
REMARK   10  A    between atoms: O_30  and  C_31
REMARK   11  A    between atoms: O_32  and  C_33
REMARK   12  A    between atoms: O_34  and  C_35
REMARK                            x       y       z     vdW  Elec       q    Type
REMARK                         _______ _______ _______ _____ _____    ______ ____
ROOT
ATOM      1  C   UNL     1       2.738  -1.068   2.320  0.00  0.00    +0.086 C 
ATOM      2  C   UNL     1       4.070  -1.275   2.272  0.00  0.00    +0.020 C 
ATOM      3  N   UNL     1       4.811  -0.952   1.192  0.00  0.00    -0.331 N 
ATOM      4  C   UNL     1       6.256  -0.720   1.374  0.00  0.00    +0.160 C 
ATOM      5  S   UNL     1       6.492  -1.112   3.159  0.00  0.00    -0.128 S 
ATOM      6  C   UNL     1       4.841  -1.883   3.438  0.00  0.00    +0.121 C 
ATOM      7  H   UNL     1       4.403  -0.876   0.316  0.00  0.00    +0.147 HD
ENDROOT
BRANCH   4   8
ATOM      8  C   UNL     1       6.609   0.717   1.084  0.00  0.00    -0.010 A 
ATOM      9  C   UNL     1       5.683   1.715   1.319  0.00  0.00    +0.056 A 
ATOM     10  C   UNL     1       6.003   3.038   1.054  0.00  0.00    +0.166 A 
ATOM     11  C   UNL     1       7.258   3.359   0.551  0.00  0.00    +0.204 A 
ATOM     12  C   UNL     1       8.187   2.352   0.316  0.00  0.00    +0.166 A 
ATOM     13  C   UNL     1       7.861   1.033   0.589  0.00  0.00    +0.056 A 
BRANCH  12  14
ATOM     14  O   UNL     1       9.417   2.662  -0.176  0.00  0.00    -0.491 OA
ATOM     15  C   UNL     1      10.321   1.576  -0.392  0.00  0.00    +0.277 C 
ENDBRANCH  12  14
BRANCH  11  16
ATOM     16  O   UNL     1       7.577   4.656   0.288  0.00  0.00    -0.488 OA
ATOM     17  C   UNL     1       8.170   5.406   1.350  0.00  0.00    +0.277 C 
ENDBRANCH  11  16
BRANCH  10  18
ATOM     18  O   UNL     1       5.090   4.019   1.285  0.00  0.00    -0.491 OA
ATOM     19  C   UNL     1       3.821   3.616   1.802  0.00  0.00    +0.277 C 
ENDBRANCH  10  18
ENDBRANCH   4   8
BRANCH   1  21
ATOM     20  N   UNL     1       0.749  -0.270   1.258  0.00  0.00    -0.309 N 
ATOM     21  C   UNL     1       2.092  -0.374   1.270  0.00  0.00    +0.239 C 
ATOM     22  O   UNL     1       2.750   0.130   0.378  0.00  0.00    -0.271 OA
ATOM     23  H   UNL     1       0.224  -0.671   1.968  0.00  0.00    +0.149 HD
BRANCH  20  25
ATOM     24  C   UNL     1       0.046   1.945   0.493  0.00  0.00    +0.028 C 
ATOM     25  C   UNL     1       0.080   0.450   0.170  0.00  0.00    +0.074 C 
BRANCH  25  26
ATOM     26  C   UNL     1      -1.351  -0.071   0.018  0.00  0.00    +0.055 C 
BRANCH  26  27
ATOM     27  C   UNL     1      -1.316  -1.513  -0.419  0.00  0.00    -0.040 C 
ATOM     28  C   UNL     1      -1.393  -2.606   0.374  0.00  0.00    -0.001 A 
ATOM     29  C   UNL     1      -1.525  -2.773   1.827  0.00  0.00    +0.010 A 
ATOM     30  C   UNL     1      -1.577  -4.022   2.341  0.00  0.00    +0.001 A 
ATOM     31  C   UNL     1      -1.506  -5.159   1.524  0.00  0.00    +0.002 A 
ATOM     32  C   UNL     1      -1.385  -5.087   0.182  0.00  0.00    +0.026 A 
ATOM     33  C   UNL     1      -1.322  -3.822  -0.466  0.00  0.00    +0.043 A 
ATOM     34  N   UNL     1      -1.205  -3.494  -1.730  0.00  0.00    -0.380 N 
ATOM     35  C   UNL     1      -1.196  -2.031  -1.835  0.00  0.00    +0.144 C 
ATOM     36  H   UNL     1      -1.140  -4.115  -2.473  0.00  0.00    +0.160 HD
ENDBRANCH  26  27
ENDBRANCH  25  26
ENDBRANCH  20  25
ENDBRANCH   1  21
TORSDOF 8
