REMARK  Name = ZINC42866025
REMARK  10 active torsions:
REMARK  status: ('A' for Active; 'I' for Inactive)
REMARK    1  A    between atoms: C_1  and  C_2
REMARK    2  A    between atoms: C_7  and  N_8
REMARK    3  A    between atoms: C_9  and  C_11
REMARK    4  A    between atoms: C_11  and  C_13
REMARK    5  A    between atoms: C_11  and  S_16
REMARK    6  A    between atoms: C_13  and  C_14
REMARK    7  A    between atoms: C_13  and  C_15
REMARK    8  A    between atoms: S_16  and  C_17
REMARK    9  A    between atoms: C_20  and  C_23
REMARK   10  A    between atoms: N_21  and  N_22
REMARK                            x       y       z     vdW  Elec       q    Type
REMARK                         _______ _______ _______ _____ _____    ______ ____
ROOT
ATOM      1  C   UNL     1      -0.168   0.052   4.882  0.00  0.00    +0.143 C 
ENDROOT
BRANCH   1   3
ATOM      2  N   UNL     1       0.025  -0.015   2.417  0.00  0.00    -0.284 N 
ATOM      3  C   UNL     1      -0.056  -0.694   3.578  0.00  0.00    +0.231 C 
ATOM      4  O   UNL     1      -0.040  -1.907   3.573  0.00  0.00    -0.274 OA
ATOM      5  H   UNL     1       0.077   0.954   2.425  0.00  0.00    +0.155 HD
BRANCH   2  12
ATOM      6  C   UNL     1      -1.264   1.182   0.181  0.00  0.00    +0.045 C 
ATOM      7  C   UNL     1      -0.583  -0.159   0.084  0.00  0.00    -0.029 A 
ATOM      8  C   UNL     1      -0.566  -0.841  -1.117  0.00  0.00    +0.005 A 
ATOM      9  C   UNL     1       0.059  -2.071  -1.206  0.00  0.00    +0.000 A 
ATOM     10  C   UNL     1       0.670  -2.622  -0.095  0.00  0.00    +0.002 A 
ATOM     11  C   UNL     1       0.658  -1.944   1.109  0.00  0.00    +0.023 A 
ATOM     12  C   UNL     1       0.035  -0.706   1.201  0.00  0.00    +0.036 A 
ENDBRANCH   2  12
ENDBRANCH   1   3
BRANCH   1  13
ATOM     13  C   UNL     1       1.218   0.541   5.310  0.00  0.00    +0.005 C 
ATOM     14  C   UNL     1       2.182  -0.645   5.367  0.00  0.00    +0.009 C 
ATOM     15  C   UNL     1       1.731   1.568   4.298  0.00  0.00    +0.009 C 
ENDBRANCH   1  13
BRANCH   1  16
ATOM     16  S   UNL     1      -0.839  -1.051   6.155  0.00  0.00    -0.071 S 
BRANCH  16  17
ATOM     17  C   UNL     1      -1.046  -0.007   7.559  0.00  0.00    +0.209 A 
ATOM     18  N   UNL     1      -0.770   1.276   7.623  0.00  0.00    -0.121 NA
ATOM     19  N   UNL     1      -1.039   1.729   8.795  0.00  0.00    -0.126 NA
ATOM     20  C   UNL     1      -1.505   0.762   9.554  0.00  0.00    +0.188 A 
ATOM     21  N   UNL     1      -1.529  -0.379   8.783  0.00  0.00    -0.223 N 
BRANCH  20  22
ATOM     22  C   UNL     1      -1.926   0.878  10.960  0.00  0.00    +0.058 A 
ATOM     23  C   UNL     1      -2.201   2.006  11.690  0.00  0.00    +0.019 A 
ATOM     24  C   UNL     1      -2.583   1.866  13.005  0.00  0.00    +0.008 A 
ATOM     25  C   UNL     1      -2.677   0.620  13.538  0.00  0.00    +0.046 A 
ATOM     26  S   UNL     1      -2.221  -0.414  12.156  0.00  0.00    -0.093 S 
ENDBRANCH  20  22
BRANCH  21  27
ATOM     27  N   UNL     1      -1.946  -1.624   9.162  0.00  0.00    -0.295 N 
ATOM     28  H   UNL     1      -1.181  -2.160   9.545  0.00  0.00    +0.163 HD
ATOM     29  H   UNL     1      -2.710  -1.565   9.818  0.00  0.00    +0.163 HD
ENDBRANCH  21  27
ENDBRANCH  16  17
ENDBRANCH   1  16
TORSDOF 7
