REMARK  Name = ZINC39657008
REMARK  6 active torsions:
REMARK  status: ('A' for Active; 'I' for Inactive)
REMARK    1  A    between atoms: C_1  and  C_2
REMARK    2  A    between atoms: C_5  and  C_10
REMARK    3  A    between atoms: C_14  and  C_23
REMARK    4  A    between atoms: N_25  and  C_26
REMARK    5  A    between atoms: C_26  and  C_28
REMARK    6  A    between atoms: C_26  and  C_29
REMARK                            x       y       z     vdW  Elec       q    Type
REMARK                         _______ _______ _______ _____ _____    ______ ____
ROOT
ATOM      1  C   UNL     1       0.135  -4.046  -0.088  0.00  0.00    +0.250 C 
ATOM      2  O   UNL     1       0.170  -4.624   0.981  0.00  0.00    -0.270 OA
ATOM      3  N   UNL     1      -0.017  -4.748  -1.228  0.00  0.00    -0.296 N 
ATOM      4  C   UNL     1       0.025  -4.240  -2.620  0.00  0.00    +0.121 C 
ATOM      5  C   UNL     1       0.779  -5.332  -3.412  0.00  0.00    +0.100 C 
ATOM      6  C   UNL     1       0.584  -6.617  -2.590  0.00  0.00    -0.004 C 
ATOM      7  C   UNL     1      -0.258  -6.204  -1.374  0.00  0.00    +0.115 C 
ATOM      8  C   UNL     1       1.933  -7.160  -2.130  0.00  0.00    -0.010 C 
ATOM      9  C   UNL     1       1.718  -8.469  -1.364  0.00  0.00    -0.082 C 
ATOM     10  N   UNL     1       1.047  -9.442  -2.235  0.00  0.00    +0.379 N 
ATOM     11  C   UNL     1      -0.288  -8.953  -2.598  0.00  0.00    -0.082 C 
ATOM     12  C   UNL     1      -0.158  -7.665  -3.415  0.00  0.00    -0.010 C 
ATOM     13  H   UNL     1       1.594  -9.575  -3.072  0.00  0.00    -0.086 HD
ATOM     14  H   UNL     1       0.961 -10.322  -1.749  0.00  0.00    -0.086 HD
ENDROOT
BRANCH   1  19
ATOM     15  C   UNL     1       0.617   1.687  -0.283  0.00  0.00    +0.047 C 
ATOM     16  C   UNL     1       0.492   0.186  -0.230  0.00  0.00    -0.012 A 
ATOM     17  C   UNL     1      -0.312  -0.472  -1.145  0.00  0.00    +0.007 A 
ATOM     18  C   UNL     1      -0.432  -1.844  -1.104  0.00  0.00    +0.016 A 
ATOM     19  C   UNL     1       0.261  -2.576  -0.137  0.00  0.00    +0.075 A 
ATOM     20  C   UNL     1       1.072  -1.909   0.785  0.00  0.00    +0.171 A 
ATOM     21  C   UNL     1       1.187  -0.529   0.729  0.00  0.00    +0.162 A 
ATOM     22  F   UNL     1       1.975   0.119   1.615  0.00  0.00    -0.202 F 
ATOM     23  F   UNL     1       1.746  -2.608   1.726  0.00  0.00    -0.202 F 
ENDBRANCH   1  19
BRANCH   5  24
ATOM     24  C   UNL     1       0.182  -5.489  -4.786  0.00  0.00    +0.219 C 
ATOM     25  O   UNL     1      -1.000  -5.284  -4.961  0.00  0.00    -0.275 OA
ATOM     26  N   UNL     1       0.962  -5.858  -5.822  0.00  0.00    -0.308 N 
ATOM     27  H   UNL     1       1.908  -6.022  -5.681  0.00  0.00    +0.149 HD
BRANCH  26  28
ATOM     28  C   UNL     1       0.382  -6.011  -7.158  0.00  0.00    +0.100 C 
ATOM     29  C   UNL     1      -0.213  -7.413  -7.298  0.00  0.00    +0.033 C 
BRANCH  28  30
ATOM     30  C   UNL     1       1.456  -5.816  -8.197  0.00  0.00    -0.027 A 
ATOM     31  C   UNL     1       2.719  -6.341  -7.993  0.00  0.00    +0.006 A 
ATOM     32  C   UNL     1       3.704  -6.162  -8.946  0.00  0.00    +0.015 A 
ATOM     33  C   UNL     1       3.426  -5.458 -10.104  0.00  0.00    +0.018 A 
ATOM     34  C   UNL     1       2.163  -4.933 -10.307  0.00  0.00    +0.015 A 
ATOM     35  C   UNL     1       1.177  -5.116  -9.356  0.00  0.00    +0.006 A 
ATOM     36 BR   UNL     1       4.774  -5.213 -11.408  0.00  0.00    -0.050 Br
ENDBRANCH  28  30
ENDBRANCH  26  28
ENDBRANCH   5  24
TORSDOF 4
