REMARK  Name = ZINC17287548
REMARK  11 active torsions:
REMARK  status: ('A' for Active; 'I' for Inactive)
REMARK    1  A    between atoms: C_1  and  C_2
REMARK    2  A    between atoms: C_2  and  N_3
REMARK    3  A    between atoms: N_3  and  C_4
REMARK    4  A    between atoms: N_3  and  C_6
REMARK    5  A    between atoms: C_4  and  C_5
REMARK    6  A    between atoms: C_6  and  C_7
REMARK    7  A    between atoms: C_7  and  C_8
REMARK    8  A    between atoms: C_8  and  N_9
REMARK    9  A    between atoms: C_10  and  C_12
REMARK   10  A    between atoms: N_14  and  C_15
REMARK   11  A    between atoms: C_15  and  C_16
REMARK                            x       y       z     vdW  Elec       q    Type
REMARK                         _______ _______ _______ _____ _____    ______ ____
ROOT
ATOM      1  C   UNL     1      -6.550   3.201  -1.837  0.00  0.00    +0.299 C 
ATOM      2  O   UNL     1      -6.840   2.034  -1.676  0.00  0.00    -0.265 OA
ATOM      3  N   UNL     1      -5.302   3.538  -2.218  0.00  0.00    -0.302 N 
ATOM      4  H   UNL     1      -5.039   4.596  -2.364  0.00  0.00    +0.150 HD
ENDROOT
BRANCH   1   6
ATOM      5  N   UNL     1      -8.824   3.926  -1.232  0.00  0.00    -0.308 N 
ATOM      6  C   UNL     1      -7.576   4.264  -1.613  0.00  0.00    +0.299 C 
ATOM      7  O   UNL     1      -7.286   5.431  -1.774  0.00  0.00    -0.265 OA
ATOM      8  H   UNL     1      -9.088   2.868  -1.086  0.00  0.00    +0.149 HD
BRANCH   5   9
ATOM      9  C   UNL     1      -9.830   4.968  -1.013  0.00  0.00    +0.103 C 
BRANCH   9  10
ATOM     10  C   UNL     1     -11.151   4.322  -0.591  0.00  0.00    +0.000 C 
BRANCH  10  11
ATOM     11  C   UNL     1     -12.202   5.410  -0.362  0.00  0.00    -0.077 C 
BRANCH  11  12
ATOM     12  N   UNL     1     -13.470   4.789   0.043  0.00  0.00    +0.379 N 
ATOM     13  H   UNL     1     -13.716   4.010  -0.694  0.00  0.00    -0.082 HD
BRANCH  12  15
ATOM     14  C   UNL     1     -12.976   5.193   2.408  0.00  0.00    -0.017 C 
ATOM     15  C   UNL     1     -13.344   4.143   1.357  0.00  0.00    -0.082 C 
ENDBRANCH  12  15
BRANCH  12  16
ATOM     16  C   UNL     1     -14.561   5.772   0.043  0.00  0.00    -0.082 C 
ATOM     17  C   UNL     1     -15.905   5.042   0.081  0.00  0.00    -0.017 C 
ENDBRANCH  12  16
ENDBRANCH  11  12
ENDBRANCH  10  11
ENDBRANCH   9  10
ENDBRANCH   5   9
ENDBRANCH   1   6
BRANCH   3  18
ATOM     18  C   UNL     1      -4.296   2.496  -2.437  0.00  0.00    +0.162 C 
BRANCH  18  19
ATOM     19  C   UNL     1      -2.995   3.133  -2.853  0.00  0.00    +0.086 A 
ATOM     20  C   UNL     1      -1.828   2.297  -3.132  0.00  0.00    +0.012 A 
ATOM     21  C   UNL     1      -1.877   0.905  -3.031  0.00  0.00    +0.010 A 
ATOM     22  C   UNL     1      -0.757   0.168  -3.298  0.00  0.00    +0.001 A 
ATOM     23  C   UNL     1       0.428   0.783  -3.680  0.00  0.00    +0.001 A 
ATOM     24  C   UNL     1       0.505   2.154  -3.793  0.00  0.00    +0.014 A 
ATOM     25  C   UNL     1      -0.623   2.927  -3.521  0.00  0.00    +0.050 A 
ATOM     26  C   UNL     1      -0.606   4.391  -3.624  0.00  0.00    +0.272 A 
ATOM     27  O   UNL     1       0.408   4.978  -3.954  0.00  0.00    -0.266 OA
ATOM     28  N   UNL     1      -1.736   5.074  -3.345  0.00  0.00    -0.242 N 
ATOM     29  H   UNL     1      -1.747   6.172  -3.416  0.00  0.00    +0.192 HD
ATOM     30  N   UNL     1      -2.911   4.426  -2.964  0.00  0.00    -0.174 NA
ENDBRANCH  18  19
ENDBRANCH   3  18
TORSDOF 9
