REMARK  Name = ZINC08789925
REMARK  7 active torsions:
REMARK  status: ('A' for Active; 'I' for Inactive)
REMARK    1  A    between atoms: C_1  and  C_2
REMARK    2  A    between atoms: C_2  and  C_3
REMARK    3  A    between atoms: C_14  and  C_16
REMARK    4  A    between atoms: C_16  and  C_18
REMARK    5  A    between atoms: C_16  and  O_19
REMARK    6  A    between atoms: N_22  and  C_25
REMARK    7  A    between atoms: C_25  and  C_26
REMARK                            x       y       z     vdW  Elec       q    Type
REMARK                         _______ _______ _______ _____ _____    ______ ____
ROOT
ATOM      1  C   UNL     1      -1.246   3.130   0.029  0.00  0.00    -0.047 A 
ATOM      2  C   UNL     1      -1.218   1.747   0.017  0.00  0.00    +0.005 A 
ATOM      3  C   UNL     1      -0.013   1.076   0.008  0.00  0.00    +0.024 A 
ATOM      4  C   UNL     1       1.185   1.786   0.000  0.00  0.00    +0.036 A 
ATOM      5  C   UNL     1       1.144   3.178   0.007  0.00  0.00    -0.027 A 
ATOM      6  C   UNL     1      -0.061   3.843   0.021  0.00  0.00    +0.008 A 
ATOM      7  C   UNL     1       2.576   3.631  -0.002  0.00  0.00    +0.050 C 
ATOM      8  C   UNL     1       2.885   4.502  -1.226  0.00  0.00    +0.088 C 
ATOM      9  C   UNL     1       3.895   5.564  -0.706  0.00  0.00    +0.075 C 
ATOM     10  C   UNL     1       4.110   5.210   0.781  0.00  0.00    -0.028 C 
ATOM     11  C   UNL     1       5.157   5.250  -1.476  0.00  0.00    +0.224 C 
ATOM     12  O   UNL     1       6.206   5.850  -1.376  0.00  0.00    -0.275 OA
ATOM     13  N   UNL     1       4.938   4.208  -2.285  0.00  0.00    -0.237 N 
ATOM     14  C   UNL     1       3.697   3.710  -2.225  0.00  0.00    +0.225 C 
ATOM     15  O   UNL     1       3.288   2.770  -2.872  0.00  0.00    -0.275 OA
ATOM     16  C   UNL     1       3.388   2.364  -0.012  0.00  0.00    +0.211 C 
ATOM     17  O   UNL     1       4.598   2.279  -0.018  0.00  0.00    -0.277 OA
ATOM     18  N   UNL     1       2.510   1.343  -0.012  0.00  0.00    -0.286 N 
ATOM     19  H   UNL     1       2.767   0.407  -0.020  0.00  0.00    +0.155 HD
ATOM     20  N   UNL     1       2.906   4.459   1.144  0.00  0.00    +0.396 N 
ATOM     21  H   UNL     1       3.089   3.872   1.966  0.00  0.00    -0.083 HD
ATOM     22  H   UNL     1       2.134   5.104   1.350  0.00  0.00    -0.083 HD
ENDROOT
BRANCH   1  24
ATOM     23  C   UNL     1      -3.027   4.110  -1.391  0.00  0.00    +0.009 C 
ATOM     24  C   UNL     1      -2.566   3.857   0.045  0.00  0.00    +0.032 C 
ENDBRANCH   1  24
BRANCH  10  25
ATOM     25  C   UNL     1       4.246   6.484   1.617  0.00  0.00    +0.098 C 
ATOM     26  C   UNL     1       4.459   6.111   3.086  0.00  0.00    +0.036 C 
BRANCH  25  27
ATOM     27  O   UNL     1       5.365   7.242   1.152  0.00  0.00    -0.394 OA
ATOM     28  H   UNL     1       6.209   6.772   1.208  0.00  0.00    +0.210 HD
ENDBRANCH  25  27
ENDBRANCH  10  25
BRANCH  13  29
ATOM     29  C   UNL     1       5.971   3.655  -3.164  0.00  0.00    +0.151 C 
BRANCH  29  30
ATOM     30  C   UNL     1       5.920   4.352  -4.499  0.00  0.00    -0.026 A 
ATOM     31  C   UNL     1       6.674   5.492  -4.712  0.00  0.00    +0.009 A 
ATOM     32  C   UNL     1       6.631   6.134  -5.935  0.00  0.00    +0.050 A 
ATOM     33  C   UNL     1       5.830   5.638  -6.951  0.00  0.00    +0.166 A 
ATOM     34  C   UNL     1       5.071   4.490  -6.737  0.00  0.00    +0.167 A 
ATOM     35  C   UNL     1       5.124   3.848  -5.511  0.00  0.00    +0.054 A 
ATOM     36  O   UNL     1       4.377   4.208  -7.878  0.00  0.00    -0.453 OA
ATOM     37  C   UNL     1       4.403   5.420  -8.654  0.00  0.00    +0.466 C 
ATOM     38  O   UNL     1       5.612   6.074  -8.226  0.00  0.00    -0.453 OA
ENDBRANCH  29  30
ENDBRANCH  13  29
TORSDOF 5
