REMARK  Name = ZINC38083803
REMARK  4 active torsions:
REMARK  status: ('A' for Active; 'I' for Inactive)
REMARK    1  A    between atoms: C_4  and  C_6
REMARK    2  A    between atoms: C_4  and  N_18
REMARK    3  A    between atoms: N_8  and  C_9
REMARK    4  A    between atoms: C_9  and  C_10
REMARK                            x       y       z     vdW  Elec       q    Type
REMARK                         _______ _______ _______ _____ _____    ______ ____
ROOT
ATOM      1  C   UNL     1       1.946  -0.681  -1.426  0.00  0.00    +0.202 C 
ATOM      2  O   UNL     1       2.412   0.224  -2.086  0.00  0.00    -0.277 OA
ATOM      3  N   UNL     1       1.840  -1.915  -1.956  0.00  0.00    -0.316 N 
ATOM      4  H   UNL     1       1.468  -2.639  -1.429  0.00  0.00    +0.149 HD
ENDROOT
BRANCH   1   8
ATOM      5  C   UNL     1      -0.019   1.534   0.011  0.00  0.00    -0.001 C 
ATOM      6  C   UNL     1       1.453   1.995  -0.001  0.00  0.00    -0.001 C 
ATOM      7  C   UNL     1       2.232   0.792   0.586  0.00  0.00    -0.004 C 
ATOM      8  C   UNL     1       1.486  -0.425  -0.014  0.00  0.00    +0.007 C 
ATOM      9  C   UNL     1       0.002  -0.004   0.002  0.00  0.00    -0.004 C 
BRANCH   8  10
ATOM     10  N   UNL     1       1.692  -1.617   0.819  0.00  0.00    +0.388 N 
ATOM     11  H   UNL     1       1.340  -1.442   1.748  0.00  0.00    -0.089 HD
ATOM     12  H   UNL     1       1.200  -2.399   0.414  0.00  0.00    -0.089 HD
ATOM     13  H   UNL     1       2.678  -1.827   0.867  0.00  0.00    -0.089 HD
ENDBRANCH   8  10
ENDBRANCH   1   8
BRANCH   3  14
ATOM     14  C   UNL     1       2.287  -2.165  -3.329  0.00  0.00    +0.109 C 
BRANCH  14  15
ATOM     15  C   UNL     1       2.058  -3.636  -3.681  0.00  0.00    +0.029 C 
ATOM     16  C   UNL     1       0.548  -3.927  -3.696  0.00  0.00    +0.029 C 
ATOM     17  C   UNL     1       0.330  -5.320  -4.354  0.00  0.00    +0.166 C 
ATOM     18  S   UNL     1       1.550  -5.236  -5.733  0.00  0.00    -0.031 S 
ATOM     19  O   UNL     1       0.899  -4.742  -6.896  0.00  0.00    -0.174 OA
ATOM     20  O   UNL     1       2.260  -6.465  -5.798  0.00  0.00    -0.174 OA
ATOM     21  C   UNL     1       2.665  -3.932  -5.074  0.00  0.00    +0.171 C 
ENDBRANCH  14  15
ENDBRANCH   3  14
TORSDOF 4
