REMARK  Name = ZINC67586759
REMARK  6 active torsions:
REMARK  status: ('A' for Active; 'I' for Inactive)
REMARK    1  A    between atoms: C_1  and  C_2
REMARK    2  A    between atoms: N_8  and  C_9
REMARK    3  A    between atoms: C_9  and  C_11
REMARK    4  A    between atoms: C_9  and  C_12
REMARK    5  A    between atoms: C_12  and  N_13
REMARK    6  A    between atoms: C_20  and  C_22
REMARK                            x       y       z     vdW  Elec       q    Type
REMARK                         _______ _______ _______ _____ _____    ______ ____
ROOT
ATOM      1  N   UNL     1       2.684  -2.167   2.422  0.00  0.00    -0.301 N 
ATOM      2  C   UNL     1       3.115  -2.985   3.403  0.00  0.00    +0.305 C 
ATOM      3  O   UNL     1       3.677  -2.523   4.377  0.00  0.00    -0.252 OA
ATOM      4  N   UNL     1       2.923  -4.315   3.304  0.00  0.00    -0.247 N 
ATOM      5  C   UNL     1       3.368  -5.159   4.316  0.00  0.00    +0.189 A 
ATOM      6  N   UNL     1       3.985  -4.856   5.440  0.00  0.00    -0.125 NA
ATOM      7  N   UNL     1       4.331  -5.742   6.272  0.00  0.00    -0.139 NA
ATOM      8  C   UNL     1       4.067  -7.006   6.009  0.00  0.00    +0.169 A 
ATOM      9  S   UNL     1       3.251  -6.838   4.428  0.00  0.00    -0.030 S 
ATOM     10  H   UNL     1       2.236  -2.535   1.645  0.00  0.00    +0.150 HD
ATOM     11  H   UNL     1       2.475  -4.684   2.526  0.00  0.00    +0.158 HD
ENDROOT
BRANCH   8  12
ATOM     12  C   UNL     1       4.365  -8.244   6.816  0.00  0.00    +0.398 C 
ATOM     13  F   UNL     1       4.361  -7.924   8.178  0.00  0.00    -0.202 F 
ATOM     14  F   UNL     1       3.388  -9.213   6.562  0.00  0.00    -0.202 F 
ENDBRANCH   8  12
BRANCH   1  15
ATOM     15  C   UNL     1       2.893  -0.721   2.530  0.00  0.00    +0.090 C 
BRANCH  15  16
ATOM     16  C   UNL     1       2.158  -0.013   1.391  0.00  0.00    -0.054 C 
ATOM     17  C   UNL     1       2.533   1.471   1.386  0.00  0.00    -0.012 C 
BRANCH  16  24
ATOM     18  C   UNL     1       0.766  -2.018   0.002  0.00  0.00    -0.013 C 
ATOM     19  C   UNL     1       0.321  -1.553   1.390  0.00  0.00    -0.071 C 
ATOM     20  C   UNL     1      -1.198  -1.688   1.509  0.00  0.00    -0.016 C 
ATOM     21  C   UNL     1      -1.639  -1.223   2.900  0.00  0.00    -0.003 C 
ATOM     22  C   UNL     1      -1.165   0.217   3.120  0.00  0.00    -0.019 C 
ATOM     23  C   UNL     1       0.353   0.281   2.941  0.00  0.00    -0.078 C 
ATOM     24  N   UNL     1       0.708  -0.151   1.583  0.00  0.00    +0.384 N 
ATOM     25  H   UNL     1       0.225   0.426   0.911  0.00  0.00    -0.081 HD
ENDBRANCH  16  24
ENDBRANCH  15  16
ENDBRANCH   1  15
TORSDOF 4
