REMARK  Name = ZINC65335275
REMARK  7 active torsions:
REMARK  status: ('A' for Active; 'I' for Inactive)
REMARK    1  A    between atoms: C_1  and  C_2
REMARK    2  A    between atoms: C_2  and  O_3
REMARK    3  A    between atoms: O_3  and  C_4
REMARK    4  A    between atoms: C_4  and  C_6
REMARK    5  A    between atoms: C_8  and  C_18
REMARK    6  A    between atoms: C_11  and  C_17
REMARK    7  A    between atoms: C_13  and  N_16
REMARK                            x       y       z     vdW  Elec       q    Type
REMARK                         _______ _______ _______ _____ _____    ______ ____
ROOT
ATOM      1  C   UNL     1       1.471  -2.352  -2.570  0.00  0.00    +0.221 C 
ATOM      2  C   UNL     1       2.968  -2.328  -2.353  0.00  0.00    +0.002 C 
ATOM      3  C   UNL     1       3.375  -3.648  -2.408  0.00  0.00    +0.006 A 
ATOM      4  C   UNL     1       4.643  -4.268  -2.280  0.00  0.00    +0.013 A 
ATOM      5  C   UNL     1       4.760  -5.612  -2.378  0.00  0.00    -0.048 A 
ATOM      6  C   UNL     1       3.662  -6.446  -2.607  0.00  0.00    +0.028 A 
ATOM      7  C   UNL     1       2.402  -5.951  -2.745  0.00  0.00    +0.049 A 
ATOM      8  C   UNL     1       2.192  -4.497  -2.650  0.00  0.00    +0.065 A 
ATOM      9  N   UNL     1       1.109  -3.762  -2.744  0.00  0.00    -0.367 N 
ATOM     10  C   UNL     1       6.125  -6.234  -2.236  0.00  0.00    +0.044 C 
ATOM     11  H   UNL     1       0.212  -4.097  -2.901  0.00  0.00    +0.161 HD
ENDROOT
BRANCH   2  12
ATOM     12  C   UNL     1       3.811  -1.150  -2.132  0.00  0.00    -0.019 A 
ATOM     13  C   UNL     1       4.933  -1.234  -1.296  0.00  0.00    +0.008 A 
ATOM     14  C   UNL     1       5.720  -0.121  -1.094  0.00  0.00    +0.001 A 
ATOM     15  C   UNL     1       5.405   1.077  -1.713  0.00  0.00    +0.000 A 
ATOM     16  C   UNL     1       4.298   1.169  -2.541  0.00  0.00    +0.001 A 
ATOM     17  C   UNL     1       3.503   0.065  -2.760  0.00  0.00    +0.008 A 
ENDBRANCH   2  12
BRANCH   7  18
ATOM     18  N   UNL     1       1.325  -6.809  -2.973  0.00  0.00    -0.356 N 
ATOM     19  H   UNL     1       1.472  -7.766  -3.034  0.00  0.00    +0.142 HD
ATOM     20  H   UNL     1       0.430  -6.448  -3.071  0.00  0.00    +0.142 HD
ENDBRANCH   7  18
BRANCH   1  21
ATOM     21  C   UNL     1       0.763  -1.778  -1.370  0.00  0.00    +0.334 C 
ATOM     22  O   UNL     1       0.289  -2.515  -0.539  0.00  0.00    -0.248 OA
BRANCH  21  23
ATOM     23  O   UNL     1       0.660  -0.448  -1.224  0.00  0.00    -0.463 OA
BRANCH  23  25
ATOM     24  C   UNL     1      -0.041   1.556  -0.069  0.00  0.00    +0.048 C 
ATOM     25  C   UNL     1      -0.024   0.026  -0.062  0.00  0.00    +0.229 C 
ENDBRANCH  23  25
ENDBRANCH  21  23
ENDBRANCH   1  21
TORSDOF 5
