REMARK  Name = ZINC63149456
REMARK  7 active torsions:
REMARK  status: ('A' for Active; 'I' for Inactive)
REMARK    1  A    between atoms: C_1  and  O_2
REMARK    2  A    between atoms: O_2  and  C_3
REMARK    3  A    between atoms: C_3  and  C_5
REMARK    4  A    between atoms: C_9  and  S_11
REMARK    5  A    between atoms: S_11  and  N_14
REMARK    6  A    between atoms: N_14  and  C_15
REMARK    7  A    between atoms: C_23  and  C_24
REMARK                            x       y       z     vdW  Elec       q    Type
REMARK                         _______ _______ _______ _____ _____    ______ ____
ROOT
ATOM      1  N   UNL     1       3.444  -5.662  -3.043  0.00  0.00    -0.093 NA
ENDROOT
BRANCH   1   2
ATOM      2  C   UNL     1       4.201  -6.464  -3.882  0.00  0.00    +0.132 A 
ATOM      3  C   UNL     1       4.042  -6.626  -5.332  0.00  0.00    +0.045 A 
ATOM      4  C   UNL     1       3.169  -6.089  -6.279  0.00  0.00    +0.013 A 
ATOM      5  C   UNL     1       3.285  -6.452  -7.591  0.00  0.00    +0.001 A 
ATOM      6  C   UNL     1       4.265  -7.351  -7.988  0.00  0.00    +0.004 A 
ATOM      7  C   UNL     1       5.137  -7.893  -7.068  0.00  0.00    +0.047 A 
ATOM      8  C   UNL     1       5.037  -7.537  -5.727  0.00  0.00    +0.138 A 
ATOM      9  O   UNL     1       5.731  -7.893  -4.628  0.00  0.00    -0.448 OA
ATOM     10  C   UNL     1       5.255  -7.264  -3.529  0.00  0.00    +0.215 A 
BRANCH  10  11
ATOM     11  C   UNL     1       5.764  -7.413  -2.216  0.00  0.00    +0.279 C 
ATOM     12  O   UNL     1       5.202  -6.874  -1.279  0.00  0.00    -0.267 OA
ATOM     13  N   UNL     1       6.872  -8.151  -2.002  0.00  0.00    -0.323 N 
ATOM     14  H   UNL     1       7.320  -8.579  -2.748  0.00  0.00    +0.145 HD
ATOM     15  H   UNL     1       7.221  -8.253  -1.103  0.00  0.00    +0.145 HD
ENDBRANCH  10  11
ENDBRANCH   1   2
BRANCH   1  16
ATOM     16  S   UNL     1       2.121  -4.861  -3.636  0.00  0.00    +0.094 S 
ATOM     17  O   UNL     1       1.223  -5.855  -4.108  0.00  0.00    -0.148 OA
ATOM     18  O   UNL     1       2.615  -3.822  -4.470  0.00  0.00    -0.148 OA
BRANCH  16  23
ATOM     19  C   UNL     1       0.652  -2.081  -1.119  0.00  0.00    +0.061 A 
ATOM     20  C   UNL     1       0.085  -2.860  -0.107  0.00  0.00    +0.018 A 
ATOM     21  C   UNL     1       0.145  -4.234  -0.184  0.00  0.00    +0.041 A 
ATOM     22  C   UNL     1       0.767  -4.845  -1.262  0.00  0.00    +0.150 A 
ATOM     23  C   UNL     1       1.332  -4.077  -2.269  0.00  0.00    +0.146 A 
ATOM     24  C   UNL     1       1.273  -2.701  -2.206  0.00  0.00    +0.046 A 
ATOM     25  F   UNL     1       0.824  -6.193  -1.332  0.00  0.00    -0.203 F 
BRANCH  19  26
ATOM     26  C   UNL     1       0.590  -0.608  -1.043  0.00  0.00    +0.339 C 
ATOM     27  O   UNL     1       1.080   0.067  -1.926  0.00  0.00    -0.245 OA
BRANCH  26  29
ATOM     28  C   UNL     1      -0.033   1.416   0.015  0.00  0.00    +0.280 C 
ATOM     29  O   UNL     1      -0.009  -0.013   0.006  0.00  0.00    -0.464 OA
ENDBRANCH  26  29
ENDBRANCH  19  26
ENDBRANCH  16  23
ENDBRANCH   1  16
TORSDOF 6
