REMARK  Name = ZINC55000436
REMARK  9 active torsions:
REMARK  status: ('A' for Active; 'I' for Inactive)
REMARK    1  A    between atoms: C_1  and  C_2
REMARK    2  A    between atoms: C_7  and  C_9
REMARK    3  A    between atoms: C_7  and  C_10
REMARK    4  A    between atoms: C_13  and  C_18
REMARK    5  A    between atoms: C_14  and  C_16
REMARK    6  A    between atoms: C_16  and  N_17
REMARK    7  A    between atoms: C_18  and  C_19
REMARK    8  A    between atoms: C_18  and  C_20
REMARK    9  A    between atoms: C_18  and  C_21
REMARK                            x       y       z     vdW  Elec       q    Type
REMARK                         _______ _______ _______ _____ _____    ______ ____
ROOT
ATOM      1  C   UNL     1      -2.341   2.522   0.068  0.00  0.00    +0.039 C 
ATOM      2  C   UNL     1      -1.691   1.141  -0.044  0.00  0.00    +0.133 C 
ATOM      3  C   UNL     1      -2.777   0.060  -0.014  0.00  0.00    +0.138 C 
ATOM      4  N   UNL     1      -2.120  -1.255   0.066  0.00  0.00    -0.304 N 
ATOM      5  C   UNL     1      -1.095  -1.454   1.103  0.00  0.00    +0.141 C 
ATOM      6  C   UNL     1      -0.091  -0.299   1.019  0.00  0.00    +0.080 C 
ATOM      7  O   UNL     1      -0.798   0.943   1.055  0.00  0.00    -0.368 OA
ATOM      8  C   UNL     1       0.696  -0.400  -0.290  0.00  0.00    +0.043 C 
ATOM      9  C   UNL     1       0.874  -0.373   2.204  0.00  0.00    +0.043 C 
ATOM     10  C   UNL     1      -2.457  -2.275  -0.810  0.00  0.00    +0.161 A 
ATOM     11  N   UNL     1      -3.339  -2.257  -1.787  0.00  0.00    -0.229 NA
ATOM     12  C   UNL     1      -3.545  -3.323  -2.540  0.00  0.00    +0.057 A 
ATOM     13  C   UNL     1      -2.810  -4.426  -2.259  0.00  0.00    -0.003 A 
ATOM     14  S   UNL     1      -1.832  -3.836  -0.887  0.00  0.00    -0.059 S 
ENDROOT
BRANCH  12  15
ATOM     15  C   UNL     1      -4.553  -3.312  -3.660  0.00  0.00    +0.005 C 
ATOM     16  C   UNL     1      -5.109  -1.897  -3.832  0.00  0.00    +0.017 C 
ATOM     17  C   UNL     1      -3.876  -3.756  -4.959  0.00  0.00    +0.017 C 
ATOM     18  C   UNL     1      -5.696  -4.272  -3.327  0.00  0.00    +0.017 C 
ENDBRANCH  12  15
BRANCH  13  19
ATOM     19  C   UNL     1      -2.814  -5.778  -2.926  0.00  0.00    -0.041 C 
BRANCH  19  20
ATOM     20  N   UNL     1      -1.724  -5.843  -3.907  0.00  0.00    +0.381 N 
ATOM     21  H   UNL     1      -1.770  -5.040  -4.516  0.00  0.00    -0.090 HD
ATOM     22  H   UNL     1      -0.837  -5.849  -3.425  0.00  0.00    -0.090 HD
ATOM     23  H   UNL     1      -1.814  -6.686  -4.455  0.00  0.00    -0.090 HD
ENDBRANCH  19  20
ENDBRANCH  13  19
TORSDOF 3
