REMARK  Name = ZINC08853699
REMARK  10 active torsions:
REMARK  status: ('A' for Active; 'I' for Inactive)
REMARK    1  A    between atoms: C_1  and  C_2
REMARK    2  A    between atoms: C_2  and  C_3
REMARK    3  A    between atoms: C_3  and  O_4
REMARK    4  A    between atoms: O_4  and  C_5
REMARK    5  A    between atoms: C_8  and  N_11
REMARK    6  A    between atoms: C_15  and  S_19
REMARK    7  A    between atoms: S_19  and  C_20
REMARK    8  A    between atoms: N_22  and  N_23
REMARK    9  A    between atoms: C_24  and  C_25
REMARK   10  A    between atoms: C_24  and  C_26
REMARK                            x       y       z     vdW  Elec       q    Type
REMARK                         _______ _______ _______ _____ _____    ______ ____
ROOT
ATOM      1  N   UNL     1       3.196  -4.381  -5.569  0.00  0.00    -0.209 N 
ATOM      2  C   UNL     1       3.678  -3.697  -6.614  0.00  0.00    +0.228 C 
ATOM      3  O   UNL     1       3.639  -2.493  -6.744  0.00  0.00    -0.275 OA
ATOM      4  C   UNL     1       4.281  -4.667  -7.608  0.00  0.00    +0.120 C 
ATOM      5  C   UNL     1       4.061  -6.043  -6.949  0.00  0.00    +0.149 C 
ATOM      6  C   UNL     1       3.362  -5.707  -5.649  0.00  0.00    +0.240 C 
ATOM      7  O   UNL     1       3.006  -6.511  -4.815  0.00  0.00    -0.274 OA
ENDROOT
BRANCH   1  11
ATOM      8  C   UNL     1       1.343  -2.529  -2.322  0.00  0.00    +0.121 A 
ATOM      9  C   UNL     1       2.567  -3.159  -2.155  0.00  0.00    +0.047 A 
ATOM     10  C   UNL     1       3.181  -3.772  -3.230  0.00  0.00    +0.027 A 
ATOM     11  C   UNL     1       2.572  -3.758  -4.477  0.00  0.00    +0.044 A 
ATOM     12  C   UNL     1       1.347  -3.127  -4.644  0.00  0.00    +0.027 A 
ATOM     13  C   UNL     1       0.732  -2.519  -3.568  0.00  0.00    +0.047 A 
BRANCH   8  14
ATOM     14  O   UNL     1       0.739  -1.926  -1.264  0.00  0.00    -0.492 OA
BRANCH  14  15
ATOM     15  C   UNL     1       1.425  -1.974  -0.012  0.00  0.00    +0.229 C 
BRANCH  15  17
ATOM     16  C   UNL     1       1.332  -1.300   2.392  0.00  0.00    +0.007 C 
ATOM     17  C   UNL     1       0.598  -1.248   1.051  0.00  0.00    +0.038 C 
ENDBRANCH  15  17
ENDBRANCH  14  15
ENDBRANCH   8  14
ENDBRANCH   1  11
BRANCH   5  18
ATOM     18  S   UNL     1       5.649  -6.858  -6.625  0.00  0.00    -0.078 S 
BRANCH  18  19
ATOM     19  C   UNL     1       5.197  -8.450  -6.020  0.00  0.00    +0.146 C 
ATOM     20  N   UNL     1       3.937  -8.771  -5.907  0.00  0.00    -0.380 N 
ATOM     21  N   UNL     1       6.172  -9.354  -5.666  0.00  0.00    -0.217 N 
ATOM     22  H   UNL     1       3.688  -9.647  -5.574  0.00  0.00    +0.158 HD
ATOM     23  H   UNL     1       7.109  -9.116  -5.750  0.00  0.00    +0.176 HD
ATOM     24  H   UNL     1       3.250  -8.133  -6.156  0.00  0.00    +0.158 HD
BRANCH  21  25
ATOM     25  N   UNL     1       5.812 -10.620  -5.185  0.00  0.00    -0.185 NA
ATOM     26  C   UNL     1       6.732 -11.473  -4.852  0.00  0.00    +0.063 C 
ATOM     27  C   UNL     1       8.187 -11.102  -4.982  0.00  0.00    +0.068 C 
BRANCH  26  28
ATOM     28  C   UNL     1       6.353 -12.805  -4.346  0.00  0.00    -0.002 A 
ATOM     29  C   UNL     1       7.340 -13.724  -3.980  0.00  0.00    +0.012 A 
ATOM     30  C   UNL     1       6.980 -14.968  -3.507  0.00  0.00    +0.039 A 
ATOM     31  C   UNL     1       5.641 -15.308  -3.394  0.00  0.00    +0.123 A 
ATOM     32  C   UNL     1       4.657 -14.401  -3.755  0.00  0.00    +0.039 A 
ATOM     33  C   UNL     1       5.005 -13.152  -4.224  0.00  0.00    +0.012 A 
ATOM     34  F   UNL     1       5.294 -16.529  -2.931  0.00  0.00    -0.205 F 
ENDBRANCH  26  28
ENDBRANCH  21  25
ENDBRANCH  18  19
ENDBRANCH   5  18
TORSDOF 8
