REMARK  Name = ZINC42425242
REMARK  6 active torsions:
REMARK  status: ('A' for Active; 'I' for Inactive)
REMARK    1  A    between atoms: C_1  and  N_2
REMARK    2  A    between atoms: C_3  and  C_5
REMARK    3  A    between atoms: N_11  and  S_12
REMARK    4  A    between atoms: S_12  and  C_15
REMARK    5  A    between atoms: C_15  and  C_16
REMARK    6  A    between atoms: C_16  and  C_17
REMARK                            x       y       z     vdW  Elec       q    Type
REMARK                         _______ _______ _______ _____ _____    ______ ____
ROOT
ATOM      1  S   UNL     1      -3.770  -1.680   0.411  0.00  0.00    +0.032 S 
ATOM      2  O   UNL     1      -4.700  -2.445   1.166  0.00  0.00    -0.158 OA
ATOM      3  O   UNL     1      -3.170  -0.517   0.964  0.00  0.00    -0.158 OA
ENDROOT
BRANCH   1   9
ATOM      4  C   UNL     1      -1.166  -2.190  -0.172  0.00  0.00    +0.165 C 
ATOM      5  C   UNL     1      -0.669  -2.815  -1.479  0.00  0.00    +0.030 C 
ATOM      6  C   UNL     1      -0.740  -4.340  -1.370  0.00  0.00    +0.003 C 
ATOM      7  C   UNL     1      -2.192  -4.771  -1.151  0.00  0.00    +0.017 C 
ATOM      8  C   UNL     1      -2.706  -4.168   0.160  0.00  0.00    +0.110 C 
ATOM      9  N   UNL     1      -2.507  -2.712   0.125  0.00  0.00    -0.169 NA
BRANCH   4  12
ATOM     10  C   UNL     1      -0.458   1.548   0.253  0.00  0.00    +0.128 C 
ATOM     11  N   UNL     1      -0.398   0.091   0.397  0.00  0.00    -0.317 N 
ATOM     12  C   UNL     1      -1.229  -0.692  -0.319  0.00  0.00    +0.232 C 
ATOM     13  O   UNL     1      -2.027  -0.191  -1.083  0.00  0.00    -0.274 OA
ATOM     14  H   UNL     1       0.241  -0.310   1.008  0.00  0.00    +0.148 HD
ENDBRANCH   4  12
ENDBRANCH   1   9
BRANCH   1  15
ATOM     15  C   UNL     1      -4.451  -1.312  -1.230  0.00  0.00    +0.183 C 
BRANCH  15  16
ATOM     16  C   UNL     1      -5.637  -0.356  -1.087  0.00  0.00    +0.008 C 
BRANCH  16  17
ATOM     17  C   UNL     1      -6.212  -0.046  -2.471  0.00  0.00    -0.070 C 
ATOM     18  C   UNL     1      -7.315   1.006  -2.340  0.00  0.00    -0.016 C 
ATOM     19  C   UNL     1      -7.887   1.313  -3.727  0.00  0.00    -0.003 C 
ATOM     20  C   UNL     1      -8.395   0.014  -4.358  0.00  0.00    -0.019 C 
ATOM     21  C   UNL     1      -7.252  -1.001  -4.414  0.00  0.00    -0.082 C 
ATOM     22  N   UNL     1      -6.768  -1.272  -3.055  0.00  0.00    +0.381 N 
ATOM     23  H   UNL     1      -6.051  -1.982  -3.091  0.00  0.00    -0.086 HD
ATOM     24  H   UNL     1      -7.533  -1.599  -2.485  0.00  0.00    -0.086 HD
ENDBRANCH  16  17
ENDBRANCH  15  16
ENDBRANCH   1  15
TORSDOF 5
