REMARK  Name = ZINC61812844
REMARK  7 active torsions:
REMARK  status: ('A' for Active; 'I' for Inactive)
REMARK    1  A    between atoms: C_1  and  C_2
REMARK    2  A    between atoms: C_2  and  C_3
REMARK    3  A    between atoms: C_6  and  N_9
REMARK    4  A    between atoms: N_9  and  C_10
REMARK    5  A    between atoms: N_9  and  C_11
REMARK    6  A    between atoms: C_15  and  C_17
REMARK    7  A    between atoms: C_17  and  N_19
REMARK                            x       y       z     vdW  Elec       q    Type
REMARK                         _______ _______ _______ _____ _____    ______ ____
ROOT
ATOM      1  C   UNL     1      -5.379  -3.494  -2.191  0.00  0.00    +0.033 A 
ATOM      2  C   UNL     1      -6.713  -3.896  -2.255  0.00  0.00    +0.040 A 
ATOM      3  C   UNL     1      -7.130  -4.691  -3.306  0.00  0.00    +0.085 A 
ATOM      4  N   UNL     1      -6.288  -5.073  -4.243  0.00  0.00    -0.359 N 
ATOM      5  C   UNL     1      -5.008  -4.715  -4.223  0.00  0.00    +0.069 A 
ATOM      6  C   UNL     1      -4.514  -3.909  -3.201  0.00  0.00    +0.051 A 
ATOM      7  H   UNL     1      -6.610  -5.631  -4.968  0.00  0.00    +0.165 HD
ENDROOT
BRANCH   1   8
ATOM      8  N   UNL     1      -4.925  -2.693  -1.147  0.00  0.00    -0.330 N 
ATOM      9  C   UNL     1      -5.816  -2.371  -0.030  0.00  0.00    +0.129 C 
BRANCH   8  13
ATOM     10  C   UNL     1      -1.443  -0.512   0.002  0.00  0.00    -0.011 C 
ATOM     11  C   UNL     1      -2.162  -0.103  -1.286  0.00  0.00    +0.005 C 
ATOM     12  C   UNL     1      -3.591  -0.646  -1.266  0.00  0.00    +0.023 C 
ATOM     13  C   UNL     1      -3.556  -2.173  -1.165  0.00  0.00    +0.073 C 
ATOM     14  C   UNL     1      -2.837  -2.582   0.122  0.00  0.00    +0.023 C 
ATOM     15  C   UNL     1      -1.407  -2.039   0.102  0.00  0.00    +0.005 C 
BRANCH  10  17
ATOM     16  C   UNL     1      -0.048   1.561   0.007  0.00  0.00    +0.004 C 
ATOM     17  C   UNL     1      -0.013   0.031  -0.018  0.00  0.00    -0.000 C 
ENDBRANCH  10  17
ENDBRANCH   8  13
ENDBRANCH   1   8
BRANCH   5  18
ATOM     18  C   UNL     1      -4.103  -5.171  -5.300  0.00  0.00    +0.093 C 
ATOM     19  S   UNL     1      -2.844  -4.150  -5.850  0.00  0.00    -0.034 S 
BRANCH  18  20
ATOM     20  N   UNL     1      -4.268  -6.391  -5.847  0.00  0.00    -0.351 N 
ATOM     21  H   UNL     1      -4.981  -6.970  -5.536  0.00  0.00    +0.143 HD
ATOM     22  H   UNL     1      -3.674  -6.691  -6.553  0.00  0.00    +0.143 HD
ENDBRANCH  18  20
ENDBRANCH   5  18
TORSDOF 5
