REMARK  Name = ZINC39693444
REMARK  11 active torsions:
REMARK  status: ('A' for Active; 'I' for Inactive)
REMARK    1  A    between atoms: C_1  and  C_2
REMARK    2  A    between atoms: C_2  and  C_3
REMARK    3  A    between atoms: C_7  and  C_16
REMARK    4  A    between atoms: N_18  and  C_19
REMARK    5  A    between atoms: C_19  and  C_20
REMARK    6  A    between atoms: C_20  and  N_21
REMARK    7  A    between atoms: C_22  and  O_24
REMARK    8  A    between atoms: O_24  and  C_25
REMARK    9  A    between atoms: C_25  and  C_26
REMARK   10  A    between atoms: C_25  and  C_27
REMARK   11  A    between atoms: C_25  and  C_28
REMARK                            x       y       z     vdW  Elec       q    Type
REMARK                         _______ _______ _______ _____ _____    ______ ____
ROOT
ATOM      1  C   UNL     1       0.817  -0.507  -1.360  0.00  0.00    +0.215 C 
ATOM      2  O   UNL     1       1.221   0.267  -2.202  0.00  0.00    -0.276 OA
ATOM      3  N   UNL     1       0.908  -1.836  -1.568  0.00  0.00    -0.300 N 
ATOM      4  C   UNL     1       0.467  -2.928  -0.668  0.00  0.00    +0.121 C 
ATOM      5  C   UNL     1      -0.138  -3.991  -1.612  0.00  0.00    +0.100 C 
ATOM      6  C   UNL     1       0.527  -3.730  -2.974  0.00  0.00    -0.004 C 
ATOM      7  C   UNL     1       1.465  -2.535  -2.750  0.00  0.00    +0.115 C 
ATOM      8  C   UNL     1       1.324  -4.953  -3.417  0.00  0.00    -0.010 C 
ATOM      9  C   UNL     1       1.927  -4.690  -4.800  0.00  0.00    -0.082 C 
ATOM     10  N   UNL     1       0.852  -4.408  -5.759  0.00  0.00    +0.379 N 
ATOM     11  C   UNL     1       0.150  -3.177  -5.376  0.00  0.00    -0.082 C 
ATOM     12  C   UNL     1      -0.529  -3.376  -4.018  0.00  0.00    -0.010 C 
ATOM     13  H   UNL     1       1.247  -4.295  -6.681  0.00  0.00    -0.086 HD
ATOM     14  H   UNL     1       0.200  -5.177  -5.768  0.00  0.00    -0.086 HD
ENDROOT
BRANCH   5  15
ATOM     15  C   UNL     1       0.194  -5.377  -1.122  0.00  0.00    +0.218 C 
ATOM     16  O   UNL     1       1.226  -5.576  -0.517  0.00  0.00    -0.275 OA
ATOM     17  N   UNL     1      -0.657  -6.396  -1.355  0.00  0.00    -0.314 N 
ATOM     18  H   UNL     1      -1.483  -6.237  -1.838  0.00  0.00    +0.149 HD
BRANCH  17  19
ATOM     19  C   UNL     1      -0.335  -7.743  -0.878  0.00  0.00    +0.123 C 
BRANCH  19  20
ATOM     20  C   UNL     1      -1.458  -8.705  -1.271  0.00  0.00    +0.126 C 
BRANCH  20  21
ATOM     21  N   UNL     1      -1.136 -10.053  -0.794  0.00  0.00    -0.280 N 
ATOM     22  C   UNL     1      -1.987 -11.071  -1.028  0.00  0.00    +0.401 C 
ATOM     23  O   UNL     1      -3.021 -10.873  -1.633  0.00  0.00    -0.226 OA
ATOM     24  H   UNL     1      -0.310 -10.211  -0.311  0.00  0.00    +0.152 HD
BRANCH  22  25
ATOM     25  O   UNL     1      -1.690 -12.310  -0.589  0.00  0.00    -0.445 OA
BRANCH  25  26
ATOM     26  C   UNL     1      -2.638 -13.341  -0.872  0.00  0.00    +0.107 C 
ATOM     27  C   UNL     1      -2.813 -13.472  -2.386  0.00  0.00    +0.055 C 
ATOM     28  C   UNL     1      -2.133 -14.668  -0.300  0.00  0.00    +0.055 C 
ATOM     29  C   UNL     1      -3.982 -12.989  -0.231  0.00  0.00    +0.055 C 
ENDBRANCH  25  26
ENDBRANCH  22  25
ENDBRANCH  20  21
ENDBRANCH  19  20
ENDBRANCH  17  19
ENDBRANCH   5  15
BRANCH   1  31
ATOM     30  C   UNL     1       0.230   1.546  -0.100  0.00  0.00    +0.013 C 
ATOM     31  C   UNL     1       0.213   0.016  -0.083  0.00  0.00    +0.092 C 
ENDBRANCH   1  31
TORSDOF 7
