REMARK  Name = ZINC52545618
REMARK  7 active torsions:
REMARK  status: ('A' for Active; 'I' for Inactive)
REMARK    1  A    between atoms: C_1  and  N_2
REMARK    2  A    between atoms: N_2  and  C_3
REMARK    3  A    between atoms: N_2  and  C_9
REMARK    4  A    between atoms: C_3  and  C_4
REMARK    5  A    between atoms: C_9  and  C_10
REMARK    6  A    between atoms: C_18  and  C_19
REMARK    7  A    between atoms: C_19  and  N_20
REMARK                            x       y       z     vdW  Elec       q    Type
REMARK                         _______ _______ _______ _____ _____    ______ ____
ROOT
ATOM      1  C   UNL     1       2.269   0.001   1.084  0.00  0.00    -0.048 A 
ATOM      2  C   UNL     1       3.195  -0.855   0.357  0.00  0.00    -0.009 A 
ATOM      3  C   UNL     1       2.908  -1.880  -0.575  0.00  0.00    +0.009 A 
ATOM      4  C   UNL     1       3.910  -2.586  -1.163  0.00  0.00    +0.001 A 
ATOM      5  C   UNL     1       5.244  -2.330  -0.874  0.00  0.00    +0.001 A 
ATOM      6  C   UNL     1       5.566  -1.338   0.030  0.00  0.00    +0.015 A 
ATOM      7  C   UNL     1       4.559  -0.616   0.633  0.00  0.00    +0.020 A 
ATOM      8  S   UNL     1       4.519   0.705   1.817  0.00  0.00    -0.095 S 
ATOM      9  C   UNL     1       2.753   0.924   1.928  0.00  0.00    -0.025 A 
ENDROOT
BRANCH   1  10
ATOM     10  C   UNL     1       0.783  -0.144   0.886  0.00  0.00    -0.042 C 
BRANCH  10  12
ATOM     11  C   UNL     1       0.754  -2.354   1.819  0.00  0.00    -0.095 C 
ATOM     12  N   UNL     1       0.227  -0.990   1.952  0.00  0.00    +0.383 N 
ATOM     13  H   UNL     1       0.490  -0.614   2.851  0.00  0.00    -0.081 HD
BRANCH  12  14
ATOM     14  C   UNL     1      -1.237  -1.017   1.842  0.00  0.00    -0.040 C 
BRANCH  14  15
ATOM     15  C   UNL     1      -1.814  -1.782   3.005  0.00  0.00    -0.026 A 
ATOM     16  C   UNL     1      -2.068  -3.171   3.057  0.00  0.00    +0.043 A 
ATOM     17  C   UNL     1      -2.580  -3.429   4.274  0.00  0.00    +0.195 A 
ATOM     18  O   UNL     1      -2.648  -2.276   4.958  0.00  0.00    -0.471 OA
ATOM     19  C   UNL     1      -2.181  -1.274   4.196  0.00  0.00    +0.196 A 
ENDBRANCH  14  15
ENDBRANCH  12  14
ENDBRANCH  10  12
ENDBRANCH   1  10
BRANCH   9  20
ATOM     20  C   UNL     1       1.987   1.911   2.770  0.00  0.00    -0.043 C 
BRANCH  20  21
ATOM     21  N   UNL     1       1.812   1.367   4.124  0.00  0.00    +0.381 N 
ATOM     22  H   UNL     1       1.299   2.028   4.688  0.00  0.00    -0.090 HD
ATOM     23  H   UNL     1       1.301   0.499   4.074  0.00  0.00    -0.090 HD
ATOM     24  H   UNL     1       2.717   1.202   4.539  0.00  0.00    -0.090 HD
ENDBRANCH  20  21
ENDBRANCH   9  20
TORSDOF 6
