REMARK  Name = ZINC43252444
REMARK  8 active torsions:
REMARK  status: ('A' for Active; 'I' for Inactive)
REMARK    1  A    between atoms: C_1  and  C_2
REMARK    2  A    between atoms: C_2  and  C_4
REMARK    3  A    between atoms: C_2  and  N_18
REMARK    4  A    between atoms: C_4  and  C_6
REMARK    5  A    between atoms: C_4  and  N_12
REMARK    6  A    between atoms: N_12  and  C_13
REMARK    7  A    between atoms: N_12  and  C_14
REMARK    8  A    between atoms: C_14  and  C_15
REMARK                            x       y       z     vdW  Elec       q    Type
REMARK                         _______ _______ _______ _____ _____    ______ ____
ROOT
ATOM      1  C   UNL     1       0.470  -0.247  -1.169  0.00  0.00    +0.079 C 
ENDROOT
BRANCH   1   2
ATOM      2  C   UNL     1       0.414  -1.751  -1.095  0.00  0.00    +0.007 A 
ATOM      3  C   UNL     1       1.304  -2.612  -0.543  0.00  0.00    +0.014 A 
ATOM      4  C   UNL     1       1.043  -3.969  -0.593  0.00  0.00    +0.028 A 
ATOM      5  C   UNL     1      -0.095  -4.398  -1.193  0.00  0.00    +0.078 A 
ATOM      6  S   UNL     1      -0.844  -2.861  -1.706  0.00  0.00    -0.080 S 
ATOM      7 CL   UNL     1      -0.677  -6.021  -1.402  0.00  0.00    -0.076 Cl
ENDBRANCH   1   2
BRANCH   1   9
ATOM      8  C   UNL     1      -0.649   1.865  -0.440  0.00  0.00    -0.012 C 
ATOM      9  C   UNL     1      -0.591   0.349  -0.241  0.00  0.00    -0.056 C 
BRANCH   9  10
ATOM     10  N   UNL     1      -0.243   0.051   1.155  0.00  0.00    +0.381 N 
ATOM     11  H   UNL     1      -0.943   0.444   1.766  0.00  0.00    -0.090 HD
ATOM     12  H   UNL     1      -0.205  -0.949   1.286  0.00  0.00    -0.090 HD
ATOM     13  H   UNL     1       0.657   0.453   1.371  0.00  0.00    -0.090 HD
ENDBRANCH   9  10
ENDBRANCH   1   9
BRANCH   1  14
ATOM     14  N   UNL     1       0.213   0.185  -2.549  0.00  0.00    -0.291 NA
ATOM     15  C   UNL     1       1.245  -0.324  -3.462  0.00  0.00    +0.106 C 
BRANCH  14  16
ATOM     16  C   UNL     1      -1.128  -0.226  -2.988  0.00  0.00    +0.180 C 
BRANCH  16  17
ATOM     17  C   UNL     1      -1.523   0.569  -4.206  0.00  0.00    +0.225 C 
ATOM     18  O   UNL     1      -0.763   1.396  -4.663  0.00  0.00    -0.275 OA
ATOM     19  N   UNL     1      -2.721   0.360  -4.787  0.00  0.00    -0.328 N 
ATOM     20  H   UNL     1      -3.329  -0.301  -4.421  0.00  0.00    +0.145 HD
ATOM     21  H   UNL     1      -2.975   0.871  -5.571  0.00  0.00    +0.145 HD
ENDBRANCH  16  17
ENDBRANCH  14  16
ENDBRANCH   1  14
TORSDOF 6
