REMARK  Name = ZINC45623309
REMARK  4 active torsions:
REMARK  status: ('A' for Active; 'I' for Inactive)
REMARK    1  A    between atoms: C_4  and  C_10
REMARK    2  A    between atoms: C_6  and  N_7
REMARK    3  A    between atoms: N_12  and  C_13
REMARK    4  A    between atoms: C_19  and  N_21
REMARK                            x       y       z     vdW  Elec       q    Type
REMARK                         _______ _______ _______ _____ _____    ______ ____
ROOT
ATOM      1  C   UNL     1       3.695  -0.686  -0.037  0.00  0.00    +0.245 C 
ATOM      2  O   UNL     1       4.738  -0.062  -0.044  0.00  0.00    -0.270 OA
ATOM      3  N   UNL     1       3.716  -2.034  -0.045  0.00  0.00    -0.310 N 
ATOM      4  H   UNL     1       2.883  -2.532  -0.039  0.00  0.00    +0.149 HD
ENDROOT
BRANCH   1   8
ATOM      5  C   UNL     1      -0.017   1.379   0.010  0.00  0.00    +0.034 A 
ATOM      6  C   UNL     1       1.168   2.094   0.002  0.00  0.00    +0.018 A 
ATOM      7  C   UNL     1       2.378   1.429  -0.013  0.00  0.00    +0.030 A 
ATOM      8  C   UNL     1       2.404   0.032  -0.021  0.00  0.00    +0.053 A 
ATOM      9  C   UNL     1       1.204  -0.681  -0.013  0.00  0.00    +0.047 A 
ATOM     10  C   UNL     1       0.002  -0.004   0.002  0.00  0.00    +0.127 A 
ATOM     11 BR   UNL     1       3.997   2.407  -0.024  0.00  0.00    -0.050 Br
BRANCH  10  12
ATOM     12  N   UNL     1      -1.271  -0.760   0.011  0.00  0.00    +0.056 N 
ATOM     13  O   UNL     1      -2.325  -0.168   0.024  0.00  0.00    -0.126 OA
ATOM     14  O   UNL     1      -1.256  -1.968   0.004  0.00  0.00    -0.126 OA
ENDBRANCH  10  12
ENDBRANCH   1   8
BRANCH   3  15
ATOM     15  C   UNL     1       4.996  -2.747  -0.061  0.00  0.00    +0.059 C 
ATOM     16  C   UNL     1       5.488  -2.877  -1.504  0.00  0.00    +0.020 C 
ATOM     17  C   UNL     1       4.460  -3.657  -2.326  0.00  0.00    +0.002 C 
ATOM     18  C   UNL     1       4.275  -5.051  -1.722  0.00  0.00    -0.001 C 
ATOM     19  C   UNL     1       3.783  -4.920  -0.279  0.00  0.00    -0.014 C 
ATOM     20  C   UNL     1       4.811  -4.140   0.542  0.00  0.00    -0.055 C 
BRANCH  20  21
ATOM     21  N   UNL     1       4.339  -4.015   1.928  0.00  0.00    +0.381 N 
ATOM     22  H   UNL     1       3.457  -3.524   1.939  0.00  0.00    -0.090 HD
ATOM     23  H   UNL     1       4.217  -4.934   2.326  0.00  0.00    -0.090 HD
ATOM     24  H   UNL     1       5.017  -3.501   2.469  0.00  0.00    -0.090 HD
ENDBRANCH  20  21
ENDBRANCH   3  15
TORSDOF 4
