REMARK  Name = ZINC36849455
REMARK  8 active torsions:
REMARK  status: ('A' for Active; 'I' for Inactive)
REMARK    1  A    between atoms: C_1  and  C_2
REMARK    2  A    between atoms: C_2  and  C_3
REMARK    3  A    between atoms: C_3  and  C_4
REMARK    4  A    between atoms: C_3  and  C_5
REMARK    5  A    between atoms: C_3  and  C_6
REMARK    6  A    between atoms: C_10  and  N_22
REMARK    7  A    between atoms: C_12  and  N_15
REMARK    8  A    between atoms: C_18  and  C_21
REMARK                            x       y       z     vdW  Elec       q    Type
REMARK                         _______ _______ _______ _____ _____    ______ ____
ROOT
ATOM      1  C   UNL     1       0.994  -2.070  -0.859  0.00  0.00    -0.007 C 
ATOM      2  C   UNL     1       1.801  -2.798   0.218  0.00  0.00    +0.002 C 
ATOM      3  C   UNL     1       1.584  -4.307   0.085  0.00  0.00    -0.018 C 
ATOM      4  C   UNL     1       2.047  -4.768  -1.298  0.00  0.00    -0.089 C 
ATOM      5  C   UNL     1       1.241  -4.040  -2.375  0.00  0.00    -0.083 C 
ATOM      6  C   UNL     1       1.457  -2.531  -2.242  0.00  0.00    -0.013 C 
ENDROOT
BRANCH   5   7
ATOM      7  N   UNL     1       1.685  -4.483  -3.703  0.00  0.00    +0.381 N 
ATOM      8  C   UNL     1       3.075  -4.062  -3.918  0.00  0.00    -0.078 C 
ATOM      9  C   UNL     1       3.570  -4.591  -5.266  0.00  0.00    -0.016 C 
ATOM     10  C   UNL     1       2.687  -4.029  -6.384  0.00  0.00    -0.018 C 
ATOM     11  C   UNL     1       1.229  -4.410  -6.110  0.00  0.00    -0.016 C 
ATOM     12  C   UNL     1       0.821  -3.889  -4.730  0.00  0.00    -0.078 C 
ATOM     13  C   UNL     1       3.125  -4.615  -7.727  0.00  0.00    +0.007 C 
ATOM     14  H   UNL     1       1.628  -5.489  -3.758  0.00  0.00    -0.082 HD
ENDBRANCH   5   7
BRANCH   4  15
ATOM     15  N   UNL     1       1.840  -6.217  -1.426  0.00  0.00    +0.379 N 
ATOM     16  H   UNL     1       0.851  -6.417  -1.415  0.00  0.00    -0.090 HD
ATOM     17  H   UNL     1       2.238  -6.538  -2.296  0.00  0.00    -0.090 HD
ATOM     18  H   UNL     1       2.288  -6.690  -0.656  0.00  0.00    -0.090 HD
ENDBRANCH   4  15
BRANCH   1  19
ATOM     19  C   UNL     1       1.210  -0.561  -0.725  0.00  0.00    -0.032 C 
ATOM     20  C   UNL     1       0.404   0.167  -1.802  0.00  0.00    +0.011 C 
ATOM     21  C   UNL     1       2.697  -0.242  -0.898  0.00  0.00    +0.011 C 
BRANCH  19  23
ATOM     22  C   UNL     1       0.964   1.409   0.791  0.00  0.00    +0.004 C 
ATOM     23  C   UNL     1       0.747  -0.100   0.658  0.00  0.00    +0.003 C 
ENDBRANCH  19  23
ENDBRANCH   1  19
TORSDOF 4
