REMARK  Name = ZINC11289906
REMARK  13 active torsions:
REMARK  status: ('A' for Active; 'I' for Inactive)
REMARK    1  A    between atoms: C_1  and  C_2
REMARK    2  A    between atoms: C_2  and  N_54
REMARK    3  A    between atoms: C_3  and  C_4
REMARK    4  A    between atoms: C_3  and  N_54
REMARK    5  A    between atoms: N_6  and  C_7
REMARK    6  A    between atoms: C_10  and  C_16
REMARK    7  A    between atoms: C_17  and  C_19
REMARK    8  A    between atoms: C_20  and  C_21
REMARK    9  A    between atoms: C_20  and  N_54
REMARK   10  A    between atoms: N_23  and  C_24
REMARK   11  A    between atoms: C_24  and  C_25
REMARK   12  A    between atoms: C_24  and  C_26
REMARK   13  A    between atoms: C_24  and  C_27
REMARK                            x       y       z     vdW  Elec       q    Type
REMARK                         _______ _______ _______ _____ _____    ______ ____
ROOT
ATOM      1  C   UNL     1       1.100   2.468   7.172  0.00  0.00    +0.203 C 
ATOM      2  O   UNL     1       2.252   2.352   6.811  0.00  0.00    -0.277 OA
ATOM      3  N   UNL     1       0.101   2.003   6.397  0.00  0.00    -0.257 N 
ATOM      4  H   UNL     1      -0.821   2.095   6.686  0.00  0.00    +0.158 HD
ENDROOT
BRANCH   3   5
ATOM      5  C   UNL     1       0.389   1.392   5.188  0.00  0.00    +0.206 A 
ATOM      6  C   UNL     1      -0.530   0.876   4.307  0.00  0.00    +0.110 A 
ATOM      7  C   UNL     1       0.264   0.337   3.175  0.00  0.00    +0.053 A 
ATOM      8  C   UNL     1      -0.466  -0.286   2.067  0.00  0.00    +0.070 A 
ATOM      9  N   UNL     1      -1.762  -0.343   2.102  0.00  0.00    -0.175 NA
ATOM     10  N   UNL     1      -2.527   0.153   3.154  0.00  0.00    -0.242 N 
ATOM     11  H   UNL     1      -3.492   0.069   3.107  0.00  0.00    +0.192 HD
ATOM     12  C   UNL     1      -1.982   0.749   4.235  0.00  0.00    +0.277 A 
ATOM     13  O   UNL     1      -2.687   1.173   5.133  0.00  0.00    -0.266 OA
ATOM     14  C   UNL     1       0.285  -0.852   0.889  0.00  0.00    +0.068 C 
ATOM     15  C   UNL     1       1.555   0.578   3.484  0.00  0.00    +0.114 A 
ATOM     16  O   UNL     1       1.615   1.202   4.675  0.00  0.00    -0.445 OA
ATOM     17  C   UNL     1       2.741   0.207   2.632  0.00  0.00    +0.087 C 
ENDBRANCH   3   5
BRANCH   1  18
ATOM     18  C   UNL     1       0.786   3.132   8.488  0.00  0.00    +0.020 C 
BRANCH  18  19
ATOM     19  N   UNL     1       2.054   3.525   9.138  0.00  0.00    +0.391 N 
ATOM     20  H   UNL     1       2.680   2.711   9.169  0.00  0.00    -0.080 HD
BRANCH  19  22
ATOM     21  C   UNL     1       1.775   5.809   8.235  0.00  0.00    -0.017 C 
ATOM     22  C   UNL     1       2.707   4.602   8.364  0.00  0.00    -0.081 C 
ENDBRANCH  19  22
BRANCH  19  23
ATOM     23  C   UNL     1       1.793   3.982  10.519  0.00  0.00    +0.019 C 
BRANCH  23  24
ATOM     24  C   UNL     1       3.100   4.029  11.269  0.00  0.00    +0.197 C 
ATOM     25  O   UNL     1       4.117   3.633  10.740  0.00  0.00    -0.278 OA
ATOM     26  N   UNL     1       3.139   4.512  12.526  0.00  0.00    -0.312 N 
ATOM     27  H   UNL     1       2.325   4.829  12.949  0.00  0.00    +0.149 HD
BRANCH  26  28
ATOM     28  C   UNL     1       4.409   4.559  13.255  0.00  0.00    +0.026 C 
ATOM     29  C   UNL     1       5.403   5.436  12.491  0.00  0.00    +0.031 C 
ATOM     30  C   UNL     1       4.176   5.145  14.649  0.00  0.00    +0.031 C 
ATOM     31  C   UNL     1       4.974   3.143  13.385  0.00  0.00    +0.031 C 
ENDBRANCH  26  28
ENDBRANCH  23  24
ENDBRANCH  19  23
ENDBRANCH  18  19
ENDBRANCH   1  18
TORSDOF 7
