REMARK  Name = ZINC39324226
REMARK  9 active torsions:
REMARK  status: ('A' for Active; 'I' for Inactive)
REMARK    1  A    between atoms: C_1  and  C_2
REMARK    2  A    between atoms: C_2  and  N_3
REMARK    3  A    between atoms: C_10  and  C_21
REMARK    4  A    between atoms: C_16  and  N_20
REMARK    5  A    between atoms: C_17  and  C_18
REMARK    6  A    between atoms: C_21  and  C_22
REMARK    7  A    between atoms: C_22  and  O_24
REMARK    8  A    between atoms: O_24  and  C_25
REMARK    9  A    between atoms: C_25  and  C_26
REMARK                            x       y       z     vdW  Elec       q    Type
REMARK                         _______ _______ _______ _____ _____    ______ ____
ROOT
ATOM      1  N   UNL     1      -1.384  -0.515   0.013  0.00  0.00    +0.380 N 
ATOM      2  C   UNL     1      -2.066  -0.038  -1.190  0.00  0.00    -0.079 C 
ATOM      3  C   UNL     1      -3.519  -0.515  -1.113  0.00  0.00    -0.017 C 
ATOM      4  C   UNL     1      -3.536  -2.027  -1.279  0.00  0.00    +0.013 C 
ATOM      5  C   UNL     1      -2.521  -2.761  -0.417  0.00  0.00    +0.027 C 
ATOM      6  C   UNL     1      -1.361  -1.960   0.124  0.00  0.00    -0.061 C 
ATOM      7  C   UNL     1      -3.260  -3.399   0.748  0.00  0.00    +0.047 A 
ATOM      8  C   UNL     1      -3.757  -2.846   1.863  0.00  0.00    +0.054 A 
ATOM      9  N   UNL     1      -4.330  -3.834   2.600  0.00  0.00    -0.277 N 
ATOM     10  H   UNL     1      -4.768  -3.714   3.461  0.00  0.00    +0.189 HD
ATOM     11  N   UNL     1      -4.184  -5.039   1.902  0.00  0.00    -0.135 NA
ATOM     12  C   UNL     1      -3.542  -4.781   0.798  0.00  0.00    +0.245 A 
ATOM     13  O   UNL     1      -3.175  -5.648  -0.183  0.00  0.00    -0.422 OA
ATOM     14  C   UNL     1      -2.299  -5.192  -1.097  0.00  0.00    +0.200 C 
ATOM     15  C   UNL     1      -1.971  -3.897  -1.266  0.00  0.00    +0.095 C 
ATOM     16  H   UNL     1      -1.841  -0.115   0.825  0.00  0.00    -0.082 HD
ENDROOT
BRANCH  14  17
ATOM     17  N   UNL     1      -1.698  -6.118  -1.916  0.00  0.00    -0.328 N 
ATOM     18  H   UNL     1      -1.912  -7.060  -1.823  0.00  0.00    +0.145 HD
ATOM     19  H   UNL     1      -1.060  -5.830  -2.587  0.00  0.00    +0.145 HD
ENDBRANCH  14  17
BRANCH   1  21
ATOM     20  C   UNL     1      -0.019   1.526   0.010  0.00  0.00    -0.017 C 
ATOM     21  C   UNL     1       0.002  -0.004   0.002  0.00  0.00    -0.082 C 
ENDBRANCH   1  21
BRANCH  15  22
ATOM     22  C   UNL     1      -1.071  -3.588  -2.339  0.00  0.00    +0.101 C 
ATOM     23  N   UNL     1      -0.358  -3.342  -3.188  0.00  0.00    -0.191 NA
ENDBRANCH  15  22
BRANCH   8  24
ATOM     24  C   UNL     1      -3.720  -1.400   2.286  0.00  0.00    +0.175 C 
BRANCH  24  25
ATOM     25  C   UNL     1      -4.878  -0.664   1.663  0.00  0.00    +0.313 C 
ATOM     26  O   UNL     1      -5.654  -1.253   0.948  0.00  0.00    -0.250 OA
BRANCH  25  27
ATOM     27  O   UNL     1      -5.047   0.646   1.901  0.00  0.00    -0.465 OA
BRANCH  27  28
ATOM     28  C   UNL     1      -6.166   1.280   1.277  0.00  0.00    +0.229 C 
ATOM     29  C   UNL     1      -6.194   2.760   1.663  0.00  0.00    +0.048 C 
ENDBRANCH  27  28
ENDBRANCH  25  27
ENDBRANCH  24  25
ENDBRANCH   8  24
TORSDOF 7
