REMARK  Name = ZINC63472881
REMARK  7 active torsions:
REMARK  status: ('A' for Active; 'I' for Inactive)
REMARK    1  A    between atoms: C_1  and  C_2
REMARK    2  A    between atoms: C_5  and  O_23
REMARK    3  A    between atoms: C_10  and  C_12
REMARK    4  A    between atoms: N_14  and  C_15
REMARK    5  A    between atoms: C_15  and  C_16
REMARK    6  A    between atoms: C_16  and  C_17
REMARK    7  A    between atoms: O_23  and  C_24
REMARK                            x       y       z     vdW  Elec       q    Type
REMARK                         _______ _______ _______ _____ _____    ______ ____
ROOT
ATOM      1  C   UNL     1      -0.018   1.503   0.010  0.00  0.00    +0.042 C 
ATOM      2  C   UNL     1       0.002  -0.004   0.002  0.00  0.00    -0.033 C 
ATOM      3  C   UNL     1       0.009  -0.811  -1.083  0.00  0.00    +0.003 A 
ATOM      4  C   UNL     1      -0.002  -0.540  -2.525  0.00  0.00    +0.055 A 
ATOM      5  C   UNL     1       0.008  -1.576  -3.398  0.00  0.00    +0.121 A 
ATOM      6  C   UNL     1       0.028  -2.916  -2.973  0.00  0.00    +0.047 A 
ATOM      7  C   UNL     1       0.038  -3.265  -1.669  0.00  0.00    +0.029 A 
ATOM      8  C   UNL     1       0.030  -2.223  -0.637  0.00  0.00    +0.044 A 
ATOM      9  N   UNL     1       0.036  -2.286   0.672  0.00  0.00    -0.370 N 
ATOM     10  C   UNL     1       0.026  -0.920   1.206  0.00  0.00    +0.193 C 
ATOM     11  H   UNL     1       0.049  -3.100   1.199  0.00  0.00    +0.161 HD
ENDROOT
BRANCH  10  12
ATOM     12  C   UNL     1      -1.205  -0.703   2.047  0.00  0.00    +0.240 C 
ATOM     13  O   UNL     1      -2.141  -1.469   1.961  0.00  0.00    -0.273 OA
ATOM     14  N   UNL     1      -1.266   0.342   2.896  0.00  0.00    -0.313 N 
ATOM     15  H   UNL     1      -0.517   0.955   2.966  0.00  0.00    +0.149 HD
BRANCH  14  16
ATOM     16  C   UNL     1      -2.462   0.552   3.715  0.00  0.00    +0.108 C 
BRANCH  16  17
ATOM     17  C   UNL     1      -2.274   1.798   4.583  0.00  0.00    +0.049 C 
BRANCH  17  18
ATOM     18  C   UNL     1      -3.505   2.014   5.425  0.00  0.00    -0.072 C 
ATOM     19  C   UNL     1      -3.506   1.543   6.631  0.00  0.00    -0.028 C 
ATOM     20  C   UNL     1      -4.660   1.670   7.582  0.00  0.00    +0.027 C 
ATOM     21  C   UNL     1      -5.619   2.763   7.104  0.00  0.00    +0.004 C 
ATOM     22  C   UNL     1      -5.930   2.521   5.622  0.00  0.00    +0.005 C 
ATOM     23  C   UNL     1      -4.651   2.768   4.816  0.00  0.00    +0.030 C 
ENDBRANCH  17  18
ENDBRANCH  16  17
ENDBRANCH  14  16
ENDBRANCH  10  12
BRANCH   5  24
ATOM     24  O   UNL     1      -0.002  -1.310  -4.731  0.00  0.00    -0.495 OA
ATOM     25  C   UNL     1       0.009  -2.432  -5.616  0.00  0.00    +0.277 C 
ENDBRANCH   5  24
TORSDOF 5
