REMARK  Name = ZINC59491084
REMARK  6 active torsions:
REMARK  status: ('A' for Active; 'I' for Inactive)
REMARK    1  A    between atoms: C_1  and  O_2
REMARK    2  A    between atoms: O_2  and  C_3
REMARK    3  A    between atoms: C_3  and  C_5
REMARK    4  A    between atoms: C_8  and  N_11
REMARK    5  A    between atoms: C_15  and  S_19
REMARK    6  A    between atoms: S_19  and  C_20
REMARK                            x       y       z     vdW  Elec       q    Type
REMARK                         _______ _______ _______ _____ _____    ______ ____
ROOT
ATOM      1  N   UNL     1       1.295  -5.675  -1.509  0.00  0.00    -0.209 N 
ATOM      2  C   UNL     1       1.098  -6.222  -0.304  0.00  0.00    +0.228 C 
ATOM      3  O   UNL     1       0.825  -5.613   0.708  0.00  0.00    -0.275 OA
ATOM      4  C   UNL     1       1.270  -7.722  -0.404  0.00  0.00    +0.120 C 
ATOM      5  C   UNL     1       1.603  -7.949  -1.893  0.00  0.00    +0.149 C 
ATOM      6  C   UNL     1       1.579  -6.554  -2.478  0.00  0.00    +0.240 C 
ATOM      7  O   UNL     1       1.788  -6.276  -3.639  0.00  0.00    -0.274 OA
ENDROOT
BRANCH   1  11
ATOM      8  C   UNL     1       1.025  -1.571  -2.194  0.00  0.00    +0.059 A 
ATOM      9  C   UNL     1       0.190  -2.454  -2.886  0.00  0.00    +0.017 A 
ATOM     10  C   UNL     1       0.282  -3.808  -2.657  0.00  0.00    +0.025 A 
ATOM     11  C   UNL     1       1.204  -4.299  -1.739  0.00  0.00    +0.044 A 
ATOM     12  C   UNL     1       2.037  -3.425  -1.049  0.00  0.00    +0.025 A 
ATOM     13  C   UNL     1       1.955  -2.069  -1.276  0.00  0.00    +0.017 A 
BRANCH   8  14
ATOM     14  C   UNL     1       0.930  -0.119  -2.436  0.00  0.00    +0.339 C 
ATOM     15  O   UNL     1       1.659   0.646  -1.838  0.00  0.00    -0.245 OA
BRANCH  14  17
ATOM     16  C   UNL     1      -0.005   1.775  -3.506  0.00  0.00    +0.280 C 
ATOM     17  O   UNL     1       0.033   0.358  -3.321  0.00  0.00    -0.464 OA
ENDBRANCH  14  17
ENDBRANCH   8  14
ENDBRANCH   1  11
BRANCH   5  18
ATOM     18  S   UNL     1       3.245  -8.699  -2.072  0.00  0.00    -0.077 S 
BRANCH  18  19
ATOM     19  C   UNL     1       3.383  -9.014  -3.800  0.00  0.00    +0.141 C 
ATOM     20  N   UNL     1       2.404  -8.700  -4.600  0.00  0.00    -0.380 N 
ATOM     21  N   UNL     1       4.529  -9.593  -4.306  0.00  0.00    -0.308 N 
ATOM     22  C   UNL     1       4.441 -10.523  -5.322  0.00  0.00    +0.193 C 
ATOM     23  N   UNL     1       5.525 -10.985  -5.878  0.00  0.00    -0.268 NA
ATOM     24  N   UNL     1       3.210 -10.962  -5.747  0.00  0.00    -0.370 N 
ATOM     25  H   UNL     1       2.471  -8.893  -5.548  0.00  0.00    +0.158 HD
ATOM     26  H   UNL     1       2.403 -10.618  -5.333  0.00  0.00    +0.159 HD
ATOM     27  H   UNL     1       3.148 -11.616  -6.461  0.00  0.00    +0.159 HD
ATOM     28  H   UNL     1       1.607  -8.272  -4.248  0.00  0.00    +0.158 HD
ATOM     29  H   UNL     1       6.394 -10.731  -5.530  0.00  0.00    +0.190 HD
ATOM     30  H   UNL     1       5.396  -9.347  -3.948  0.00  0.00    +0.171 HD
ENDBRANCH  18  19
ENDBRANCH   5  18
TORSDOF 5
