REMARK  Name = ZINC54581523
REMARK  10 active torsions:
REMARK  status: ('A' for Active; 'I' for Inactive)
REMARK    1  A    between atoms: C_1  and  C_2
REMARK    2  A    between atoms: N_8  and  C_9
REMARK    3  A    between atoms: C_9  and  C_10
REMARK    4  A    between atoms: C_10  and  N_11
REMARK    5  A    between atoms: N_14  and  C_15
REMARK    6  A    between atoms: C_15  and  C_17
REMARK    7  A    between atoms: C_15  and  C_18
REMARK    8  A    between atoms: C_21  and  S_24
REMARK    9  A    between atoms: S_24  and  N_27
REMARK   10  A    between atoms: N_27  and  C_28
REMARK                            x       y       z     vdW  Elec       q    Type
REMARK                         _______ _______ _______ _____ _____    ______ ____
ROOT
ATOM      1  N   UNL     1       4.113   0.250   2.546  0.00  0.00    -0.301 N 
ATOM      2  C   UNL     1       4.919   0.025   3.602  0.00  0.00    +0.300 C 
ATOM      3  O   UNL     1       4.527  -0.653   4.532  0.00  0.00    -0.253 OA
ATOM      4  N   UNL     1       6.160   0.550   3.627  0.00  0.00    -0.293 N 
ATOM      5  H   UNL     1       4.426   0.791   1.803  0.00  0.00    +0.150 HD
ATOM      6  H   UNL     1       6.473   1.091   2.885  0.00  0.00    +0.151 HD
ENDROOT
BRANCH   4   7
ATOM      7  C   UNL     1       7.036   0.305   4.776  0.00  0.00    +0.102 C 
ATOM      8  C   UNL     1       7.763  -1.027   4.587  0.00  0.00    +0.033 C 
BRANCH   7   9
ATOM      9  C   UNL     1       8.046   1.418   4.883  0.00  0.00    -0.027 A 
ATOM     10  C   UNL     1       8.623   1.940   3.741  0.00  0.00    +0.007 A 
ATOM     11  C   UNL     1       9.550   2.961   3.840  0.00  0.00    +0.029 A 
ATOM     12  C   UNL     1       9.900   3.460   5.080  0.00  0.00    +0.105 A 
ATOM     13  C   UNL     1       9.322   2.939   6.223  0.00  0.00    +0.029 A 
ATOM     14  C   UNL     1       8.392   1.921   6.124  0.00  0.00    +0.007 A 
BRANCH  12  15
ATOM     15  S   UNL     1      11.082   4.761   5.206  0.00  0.00    +0.058 S 
ATOM     16  O   UNL     1      11.640   4.677   6.510  0.00  0.00    -0.153 OA
ATOM     17  O   UNL     1      11.879   4.700   4.031  0.00  0.00    -0.153 OA
BRANCH  15  18
ATOM     18  N   UNL     1      10.248   6.189   5.139  0.00  0.00    -0.193 NA
ATOM     19  C   UNL     1       9.308   6.540   6.207  0.00  0.00    +0.127 C 
ATOM     20  H   UNL     1      10.381   6.794   4.393  0.00  0.00    +0.148 HD
ENDBRANCH  15  18
ENDBRANCH  12  15
ENDBRANCH   7   9
ENDBRANCH   4   7
BRANCH   1  21
ATOM     21  C   UNL     1       2.764  -0.321   2.518  0.00  0.00    +0.087 C 
BRANCH  21  22
ATOM     22  C   UNL     1       2.066   0.083   1.218  0.00  0.00    -0.059 C 
BRANCH  22  29
ATOM     23  C   UNL     1      -0.019   1.526   0.010  0.00  0.00    -0.013 C 
ATOM     24  C   UNL     1       0.002  -0.004   0.002  0.00  0.00    -0.072 C 
ATOM     25  C   UNL     1      -1.434  -0.533   0.011  0.00  0.00    -0.016 C 
ATOM     26  C   UNL     1      -1.408  -2.064   0.003  0.00  0.00    -0.003 C 
ATOM     27  C   UNL     1      -0.600  -2.558   1.206  0.00  0.00    -0.019 C 
ATOM     28  C   UNL     1       0.805  -1.954   1.152  0.00  0.00    -0.078 C 
ATOM     29  N   UNL     1       0.713  -0.490   1.191  0.00  0.00    +0.382 N 
ATOM     30  H   UNL     1       0.213  -0.206   2.020  0.00  0.00    -0.081 HD
ENDBRANCH  22  29
ENDBRANCH  21  22
ENDBRANCH   1  21
TORSDOF 7
