REMARK  Name = ZINC01283356
REMARK  3 active torsions:
REMARK  status: ('A' for Active; 'I' for Inactive)
REMARK    1  A    between atoms: C_4  and  C_7
REMARK    2  A    between atoms: C_10  and  C_18
REMARK    3  A    between atoms: C_23  and  O_24
REMARK                            x       y       z     vdW  Elec       q    Type
REMARK                         _______ _______ _______ _____ _____    ______ ____
ROOT
ATOM      1  C   UNL     1       3.711  -0.707  -0.038  0.00  0.00    +0.143 C 
ATOM      2  C   UNL     1       3.791  -1.587  -1.291  0.00  0.00    +0.059 C 
ATOM      3  C   UNL     1       4.988  -2.538  -1.180  0.00  0.00    +0.109 C 
ATOM      4  N   UNL     1       4.779  -3.426  -0.020  0.00  0.00    -0.307 N 
ATOM      5  C   UNL     1       4.307  -2.822   1.138  0.00  0.00    +0.215 A 
ATOM      6  N   UNL     1       3.812  -1.558   1.147  0.00  0.00    -0.226 N 
ATOM      7  N   UNL     1       3.444  -1.284   2.465  0.00  0.00    -0.156 NA
ATOM      8  C   UNL     1       3.723  -2.354   3.166  0.00  0.00    +0.247 A 
ATOM      9  N   UNL     1       4.244  -3.288   2.356  0.00  0.00    -0.202 NA
ATOM     10  H   UNL     1       4.961  -4.378  -0.064  0.00  0.00    +0.150 HD
ENDROOT
BRANCH   1  14
ATOM     11  C   UNL     1      -0.017   1.378   0.010  0.00  0.00    +0.000 A 
ATOM     12  C   UNL     1       1.171   2.086   0.002  0.00  0.00    +0.000 A 
ATOM     13  C   UNL     1       2.377   1.411  -0.013  0.00  0.00    +0.006 A 
ATOM     14  C   UNL     1       2.396   0.029  -0.020  0.00  0.00    -0.023 A 
ATOM     15  C   UNL     1       1.208  -0.679  -0.012  0.00  0.00    +0.006 A 
ATOM     16  C   UNL     1       0.002  -0.004   0.002  0.00  0.00    +0.000 A 
ENDBRANCH   1  14
BRANCH   3  17
ATOM     17  C   UNL     1       6.252  -1.740  -0.990  0.00  0.00    +0.014 A 
ATOM     18  C   UNL     1       6.800  -1.602   0.271  0.00  0.00    +0.009 A 
ATOM     19  C   UNL     1       7.959  -0.870   0.446  0.00  0.00    +0.001 A 
ATOM     20  C   UNL     1       8.574  -0.274  -0.639  0.00  0.00    +0.004 A 
ATOM     21  C   UNL     1       8.031  -0.409  -1.902  0.00  0.00    +0.046 A 
ATOM     22  C   UNL     1       6.870  -1.148  -2.082  0.00  0.00    +0.122 A 
BRANCH  22  23
ATOM     23  O   UNL     1       6.337  -1.287  -3.324  0.00  0.00    -0.506 OA
ATOM     24  H   UNL     1       5.702  -0.597  -3.559  0.00  0.00    +0.292 HD
ENDBRANCH  22  23
ENDBRANCH   3  17
TORSDOF 3
