REMARK  Name = ZINC14141183
REMARK  11 active torsions:
REMARK  status: ('A' for Active; 'I' for Inactive)
REMARK    1  A    between atoms: C_1  and  C_2
REMARK    2  A    between atoms: C_5  and  C_27
REMARK    3  A    between atoms: C_6  and  N_8
REMARK    4  A    between atoms: C_9  and  C_11
REMARK    5  A    between atoms: C_11  and  N_51
REMARK    6  A    between atoms: C_12  and  N_51
REMARK    7  A    between atoms: C_13  and  C_15
REMARK    8  A    between atoms: C_13  and  C_16
REMARK    9  A    between atoms: C_13  and  N_51
REMARK   10  A    between atoms: N_18  and  C_19
REMARK   11  A    between atoms: C_20  and  C_24
REMARK                            x       y       z     vdW  Elec       q    Type
REMARK                         _______ _______ _______ _____ _____    ______ ____
ROOT
ATOM      1  C   UNL     1       0.014  -0.027  -0.010  0.00  0.00    +0.017 C 
ATOM      2  C   UNL     1       0.004   1.503  -0.006  0.00  0.00    -0.004 C 
ENDROOT
BRANCH   1   3
ATOM      3  C   UNL     1       0.742  -0.527   1.211  0.00  0.00    +0.204 C 
ATOM      4  O   UNL     1       0.166  -1.230   2.014  0.00  0.00    -0.277 OA
ATOM      5  N   UNL     1       2.032  -0.194   1.410  0.00  0.00    -0.281 N 
ATOM      6  H   UNL     1       2.493   0.368   0.768  0.00  0.00    +0.155 HD
BRANCH   5   7
ATOM      7  C   UNL     1       2.702  -0.655   2.533  0.00  0.00    +0.084 A 
ATOM      8  C   UNL     1       4.021  -0.426   2.906  0.00  0.00    +0.065 A 
ATOM      9  C   UNL     1       4.461  -1.031   4.141  0.00  0.00    +0.022 A 
ATOM     10  C   UNL     1       3.563  -1.770   4.817  0.00  0.00    +0.048 A 
ATOM     11  S   UNL     1       2.100  -1.661   3.808  0.00  0.00    -0.081 S 
BRANCH   8  12
ATOM     12  C   UNL     1       4.921   0.392   2.087  0.00  0.00    +0.244 C 
ATOM     13  O   UNL     1       4.518   0.891   1.053  0.00  0.00    -0.270 OA
ATOM     14  N   UNL     1       6.195   0.592   2.481  0.00  0.00    -0.325 N 
ATOM     15  H   UNL     1       6.516   0.195   3.305  0.00  0.00    +0.145 HD
ATOM     16  H   UNL     1       6.790   1.134   1.939  0.00  0.00    +0.145 HD
ENDBRANCH   8  12
ENDBRANCH   5   7
ENDBRANCH   1   3
BRANCH   1  18
ATOM     17  C   UNL     1      -2.124   0.053   1.124  0.00  0.00    -0.094 C 
ATOM     18  N   UNL     1      -1.367  -0.554   0.009  0.00  0.00    +0.391 N 
ATOM     19  H   UNL     1      -1.334  -1.571   0.142  0.00  0.00    -0.080 HD
BRANCH  18  20
ATOM     20  C   UNL     1      -2.038  -0.259  -1.275  0.00  0.00    +0.020 C 
BRANCH  20  22
ATOM     21  N   UNL     1      -4.146  -0.895  -2.401  0.00  0.00    -0.287 N 
ATOM     22  C   UNL     1      -3.354  -0.992  -1.315  0.00  0.00    +0.201 C 
ATOM     23  O   UNL     1      -3.700  -1.669  -0.370  0.00  0.00    -0.278 OA
ATOM     24  H   UNL     1      -3.908  -0.292  -3.123  0.00  0.00    +0.155 HD
BRANCH  21  30
ATOM     25  C   UNL     1      -6.682  -4.898  -1.089  0.00  0.00    +0.044 C 
ATOM     26  C   UNL     1      -6.567  -3.609  -1.862  0.00  0.00    -0.049 A 
ATOM     27  C   UNL     1      -7.616  -3.187  -2.660  0.00  0.00    +0.004 A 
ATOM     28  C   UNL     1      -7.514  -2.006  -3.371  0.00  0.00    +0.005 A 
ATOM     29  C   UNL     1      -6.365  -1.244  -3.288  0.00  0.00    -0.029 A 
ATOM     30  C   UNL     1      -5.311  -1.665  -2.488  0.00  0.00    +0.036 A 
ATOM     31  C   UNL     1      -5.414  -2.855  -1.779  0.00  0.00    +0.027 A 
ATOM     32  C   UNL     1      -6.256   0.043  -4.064  0.00  0.00    +0.045 C 
ENDBRANCH  21  30
ENDBRANCH  20  22
ENDBRANCH  18  20
ENDBRANCH   1  18
TORSDOF 7
