REMARK  Name = ZINC63062016
REMARK  6 active torsions:
REMARK  status: ('A' for Active; 'I' for Inactive)
REMARK    1  A    between atoms: C_1  and  C_2
REMARK    2  A    between atoms: C_4  and  C_17
REMARK    3  A    between atoms: C_7  and  O_8
REMARK    4  A    between atoms: O_8  and  C_9
REMARK    5  A    between atoms: C_14  and  C_15
REMARK    6  A    between atoms: N_18  and  O_19
REMARK                            x       y       z     vdW  Elec       q    Type
REMARK                         _______ _______ _______ _____ _____    ______ ____
ROOT
ATOM      1  C   UNL     1       0.117   1.537   0.034  0.00  0.00    +0.047 C 
ATOM      2  C   UNL     1       0.071   0.031   0.003  0.00  0.00    -0.008 A 
ATOM      3  C   UNL     1       0.078  -0.632  -1.205  0.00  0.00    +0.018 A 
ATOM      4  C   UNL     1       0.035  -2.027  -1.233  0.00  0.00    +0.018 A 
ATOM      5  C   UNL     1      -0.015  -2.745  -0.037  0.00  0.00    +0.015 A 
ATOM      6  C   UNL     1      -0.022  -2.075   1.167  0.00  0.00    +0.047 A 
ATOM      7  C   UNL     1       0.026  -0.686   1.191  0.00  0.00    +0.131 A 
ENDROOT
BRANCH   4   8
ATOM      8  C   UNL     1       0.042  -2.743  -2.528  0.00  0.00    +0.162 C 
ATOM      9  N   UNL     1       0.089  -2.072  -3.642  0.00  0.00    -0.072 NA
ATOM     10  N   UNL     1      -0.000  -4.127  -2.554  0.00  0.00    -0.340 N 
ATOM     11  H   UNL     1      -0.035  -4.627  -1.723  0.00  0.00    +0.144 HD
ATOM     12  H   UNL     1       0.004  -4.596  -3.403  0.00  0.00    +0.144 HD
BRANCH   9  13
ATOM     13  O   UNL     1       0.096  -2.757  -4.881  0.00  0.00    -0.408 OA
ATOM     14  H   UNL     1       0.132  -2.175  -5.652  0.00  0.00    +0.328 HD
ENDBRANCH   9  13
ENDBRANCH   4   8
BRANCH   7  15
ATOM     15  O   UNL     1       0.025  -0.029   2.380  0.00  0.00    -0.455 OA
BRANCH  15  16
ATOM     16  C   UNL     1      -1.157   0.458   2.839  0.00  0.00    +0.131 A 
ATOM     17  C   UNL     1      -2.336   0.171   2.164  0.00  0.00    +0.047 A 
ATOM     18  C   UNL     1      -3.537   0.666   2.632  0.00  0.00    +0.019 A 
ATOM     19  C   UNL     1      -3.566   1.448   3.773  0.00  0.00    +0.018 A 
ATOM     20  C   UNL     1      -2.393   1.735   4.448  0.00  0.00    +0.022 A 
ATOM     21  C   UNL     1      -1.190   1.237   3.986  0.00  0.00    -0.007 A 
ATOM     22  C   UNL     1       0.087   1.545   4.725  0.00  0.00    +0.047 C 
ATOM     23 BR   UNL     1      -5.212   2.126   4.412  0.00  0.00    -0.050 Br
ENDBRANCH  15  16
ENDBRANCH   7  15
TORSDOF 4
