REMARK  Name = ZINC62233948
REMARK  6 active torsions:
REMARK  status: ('A' for Active; 'I' for Inactive)
REMARK    1  A    between atoms: C_1  and  C_2
REMARK    2  A    between atoms: C_2  and  C_3
REMARK    3  A    between atoms: C_3  and  N_4
REMARK    4  A    between atoms: N_4  and  C_5
REMARK    5  A    between atoms: C_5  and  C_7
REMARK    6  A    between atoms: C_5  and  C_18
REMARK                            x       y       z     vdW  Elec       q    Type
REMARK                         _______ _______ _______ _____ _____    ______ ____
ROOT
ATOM      1  C   UNL     1       1.426  -2.440  -2.474  0.00  0.00    -0.035 C 
ENDROOT
BRANCH   1   2
ATOM      2  C   UNL     1       1.339  -3.943  -2.544  0.00  0.00    -0.057 A 
ATOM      3  C   UNL     1       1.478  -4.696  -1.391  0.00  0.00    +0.004 A 
ATOM      4  C   UNL     1       1.400  -6.074  -1.448  0.00  0.00    +0.030 A 
ATOM      5  C   UNL     1       1.181  -6.702  -2.664  0.00  0.00    +0.087 A 
ATOM      6  C   UNL     1       1.041  -5.945  -3.826  0.00  0.00    +0.157 A 
ATOM      7  C   UNL     1       1.116  -4.562  -3.759  0.00  0.00    +0.050 A 
ATOM      8  O   UNL     1       0.841  -6.811  -4.849  0.00  0.00    -0.408 OA
ATOM      9  C   UNL     1       0.851  -8.066  -4.373  0.00  0.00    +0.419 A 
ATOM     10  O   UNL     1       0.699  -9.071  -5.040  0.00  0.00    -0.223 OA
ATOM     11  N   UNL     1       1.056  -8.039  -3.042  0.00  0.00    -0.288 N 
ATOM     12  H   UNL     1       1.108  -8.809  -2.454  0.00  0.00    +0.172 HD
ENDBRANCH   1   2
BRANCH   1  13
ATOM     13  C   UNL     1       2.895  -2.016  -2.424  0.00  0.00    +0.005 C 
ATOM     14  C   UNL     1       3.584  -2.402  -3.736  0.00  0.00    +0.007 C 
ATOM     15  C   UNL     1       5.070  -2.043  -3.645  0.00  0.00    +0.028 C 
ATOM     16  C   UNL     1       5.685  -2.752  -2.435  0.00  0.00    +0.160 C 
ATOM     17  O   UNL     1       4.978  -2.373  -1.253  0.00  0.00    -0.380 OA
ATOM     18  C   UNL     1       3.593  -2.724  -1.260  0.00  0.00    +0.162 C 
ENDBRANCH   1  13
BRANCH   1  19
ATOM     19  N   UNL     1       0.738  -1.966  -1.265  0.00  0.00    +0.384 N 
ATOM     20  H   UNL     1       1.226  -2.301  -0.447  0.00  0.00    -0.085 HD
ATOM     21  H   UNL     1      -0.208  -2.316  -1.258  0.00  0.00    -0.085 HD
BRANCH  19  22
ATOM     22  C   UNL     1       0.718  -0.497  -1.257  0.00  0.00    -0.082 C 
BRANCH  22  24
ATOM     23  C   UNL     1      -0.019   1.526   0.010  0.00  0.00    +0.002 C 
ATOM     24  C   UNL     1       0.002  -0.004   0.002  0.00  0.00    -0.022 C 
ENDBRANCH  22  24
ENDBRANCH  19  22
ENDBRANCH   1  19
TORSDOF 5
