REMARK  Name = ZINC40267489
REMARK  10 active torsions:
REMARK  status: ('A' for Active; 'I' for Inactive)
REMARK    1  A    between atoms: C_1  and  C_2
REMARK    2  A    between atoms: C_2  and  C_3
REMARK    3  A    between atoms: C_2  and  N_4
REMARK    4  A    between atoms: C_11  and  N_15
REMARK    5  A    between atoms: C_16  and  C_18
REMARK    6  A    between atoms: N_20  and  C_21
REMARK    7  A    between atoms: C_23  and  C_29
REMARK    8  A    between atoms: C_23  and  C_30
REMARK    9  A    between atoms: C_25  and  C_27
REMARK   10  A    between atoms: C_25  and  C_28
REMARK                            x       y       z     vdW  Elec       q    Type
REMARK                         _______ _______ _______ _____ _____    ______ ____
ROOT
ATOM      1  N   UNL     1      -4.111  -2.192   1.419  0.00  0.00    -0.292 N 
ATOM      2  C   UNL     1      -4.842  -1.832   2.494  0.00  0.00    +0.300 C 
ATOM      3  O   UNL     1      -5.181  -0.675   2.636  0.00  0.00    -0.265 OA
ATOM      4  H   UNL     1      -3.840  -3.116   1.305  0.00  0.00    +0.150 HD
ENDROOT
BRANCH   1  12
ATOM      5  N   UNL     1      -1.547  -0.843  -0.226  0.00  0.00    -0.267 N 
ATOM      6  C   UNL     1      -2.155  -1.587  -1.238  0.00  0.00    +0.042 A 
ATOM      7  C   UNL     1      -1.646  -2.077  -2.439  0.00  0.00    +0.024 A 
ATOM      8  C   UNL     1      -2.456  -2.799  -3.291  0.00  0.00    +0.002 A 
ATOM      9  C   UNL     1      -3.777  -3.042  -2.961  0.00  0.00    +0.000 A 
ATOM     10  C   UNL     1      -4.289  -2.559  -1.769  0.00  0.00    +0.008 A 
ATOM     11  C   UNL     1      -3.483  -1.838  -0.917  0.00  0.00    +0.003 A 
ATOM     12  C   UNL     1      -3.727  -1.188   0.424  0.00  0.00    +0.192 C 
ATOM     13  C   UNL     1      -2.392  -0.571   0.783  0.00  0.00    +0.245 C 
ATOM     14  O   UNL     1      -2.134   0.052   1.791  0.00  0.00    -0.273 OA
BRANCH   5  16
ATOM     15  C   UNL     1      -0.082   1.115  -0.195  0.00  0.00    +0.028 C 
ATOM     16  C   UNL     1      -0.147  -0.412  -0.257  0.00  0.00    +0.075 C 
ATOM     17  C   UNL     1       0.595  -1.004   0.943  0.00  0.00    +0.028 C 
ENDBRANCH   5  16
ENDBRANCH   1  12
BRANCH   2  18
ATOM     18  C   UNL     1      -5.234  -2.856   3.509  0.00  0.00    +0.299 C 
ATOM     19  O   UNL     1      -4.894  -4.013   3.366  0.00  0.00    -0.265 OA
ATOM     20  N   UNL     1      -5.964  -2.496   4.582  0.00  0.00    -0.305 N 
ATOM     21  H   UNL     1      -6.235  -1.572   4.697  0.00  0.00    +0.149 HD
BRANCH  20  22
ATOM     22  C   UNL     1      -6.349  -3.503   5.580  0.00  0.00    +0.071 C 
ATOM     23  C   UNL     1      -7.654  -4.170   5.142  0.00  0.00    +0.009 C 
ATOM     24  C   UNL     1      -8.075  -5.213   6.177  0.00  0.00    -0.072 C 
ATOM     25  N   UNL     1      -8.157  -4.652   7.518  0.00  0.00    +0.386 N 
ATOM     26  C   UNL     1      -7.053  -3.821   7.971  0.00  0.00    -0.072 C 
ATOM     27  C   UNL     1      -6.588  -2.815   6.923  0.00  0.00    +0.009 C 
ATOM     28  C   UNL     1      -5.867  -4.664   8.447  0.00  0.00    -0.010 C 
ATOM     29  C   UNL     1      -7.552  -3.013   9.193  0.00  0.00    -0.010 C 
ATOM     30  C   UNL     1      -7.146  -6.424   6.115  0.00  0.00    -0.010 C 
ATOM     31  C   UNL     1      -9.490  -5.700   5.787  0.00  0.00    -0.010 C 
ATOM     32  H   UNL     1      -9.020  -4.107   7.585  0.00  0.00    -0.084 HD
ATOM     33  H   UNL     1      -8.274  -5.422   8.181  0.00  0.00    -0.084 HD
ENDBRANCH  20  22
ENDBRANCH   2  18
TORSDOF 4
