REMARK  Name = ZINC39431334
REMARK  5 active torsions:
REMARK  status: ('A' for Active; 'I' for Inactive)
REMARK    1  A    between atoms: C_1  and  N_2
REMARK    2  A    between atoms: N_9  and  C_12
REMARK    3  A    between atoms: N_16  and  C_17
REMARK    4  A    between atoms: C_17  and  C_18
REMARK    5  A    between atoms: C_18  and  C_19
REMARK                            x       y       z     vdW  Elec       q    Type
REMARK                         _______ _______ _______ _____ _____    ______ ____
ROOT
ATOM      1  C   UNL     1      -0.018   1.461   0.010  0.00  0.00    +0.136 C 
ATOM      2  N   UNL     1       0.002  -0.004   0.002  0.00  0.00    -0.266 N 
ATOM      3  C   UNL     1      -1.203  -0.788   0.003  0.00  0.00    +0.202 C 
ATOM      4  C   UNL     1      -1.012  -1.909   1.074  0.00  0.00    +0.200 C 
ATOM      5  C   UNL     1       0.112  -2.747   0.562  0.00  0.00    +0.247 C 
ATOM      6  O   UNL     1       0.081  -3.959   0.578  0.00  0.00    -0.273 OA
ATOM      7  N   UNL     1       1.177  -2.047   0.075  0.00  0.00    -0.227 N 
ATOM      8  C   UNL     1       1.166  -0.717  -0.013  0.00  0.00    +0.312 C 
ATOM      9  O   UNL     1       2.224  -0.124  -0.088  0.00  0.00    -0.252 OA
ATOM     10  C   UNL     1       2.361  -2.775  -0.389  0.00  0.00    +0.143 C 
ATOM     11  N   UNL     1      -2.379  -2.423   1.052  0.00  0.00    -0.304 N 
ATOM     12  C   UNL     1      -3.149  -1.260   0.971  0.00  0.00    +0.156 C 
ATOM     13  N   UNL     1      -2.491  -0.274   0.405  0.00  0.00    -0.341 N 
ATOM     14  N   UNL     1      -4.438  -1.157   1.440  0.00  0.00    -0.318 N 
ATOM     15  H   UNL     1      -2.679  -3.345   1.086  0.00  0.00    +0.149 HD
ATOM     16  H   UNL     1      -4.920  -0.320   1.353  0.00  0.00    +0.149 HD
ATOM     17  H   UNL     1      -2.817   0.631   0.278  0.00  0.00    +0.164 HD
ENDROOT
BRANCH  14  18
ATOM     18  C   UNL     1      -5.082  -2.312   2.071  0.00  0.00    +0.109 C 
BRANCH  18  19
ATOM     19  C   UNL     1      -6.500  -1.933   2.500  0.00  0.00    +0.056 C 
BRANCH  19  20
ATOM     20  C   UNL     1      -7.163  -3.122   3.149  0.00  0.00    -0.021 A 
ATOM     21  C   UNL     1      -7.053  -3.521   4.554  0.00  0.00    +0.003 A 
ATOM     22  C   UNL     1      -6.377  -3.003   5.660  0.00  0.00    +0.010 A 
ATOM     23  C   UNL     1      -6.481  -3.626   6.871  0.00  0.00    +0.001 A 
ATOM     24  C   UNL     1      -7.254  -4.770   7.012  0.00  0.00    +0.002 A 
ATOM     25  C   UNL     1      -7.930  -5.298   5.934  0.00  0.00    +0.026 A 
ATOM     26  C   UNL     1      -7.838  -4.680   4.691  0.00  0.00    +0.047 A 
ATOM     27  N   UNL     1      -8.379  -4.953   3.454  0.00  0.00    -0.360 N 
ATOM     28  C   UNL     1      -7.970  -4.011   2.550  0.00  0.00    +0.087 A 
ATOM     29  H   UNL     1      -8.965  -5.700   3.255  0.00  0.00    +0.165 HD
ENDBRANCH  19  20
ENDBRANCH  18  19
ENDBRANCH  14  18
TORSDOF 3
