REMARK  Name = ZINC54994976
REMARK  10 active torsions:
REMARK  status: ('A' for Active; 'I' for Inactive)
REMARK    1  A    between atoms: C_1  and  C_2
REMARK    2  A    between atoms: C_2  and  C_3
REMARK    3  A    between atoms: C_3  and  C_4
REMARK    4  A    between atoms: C_5  and  C_19
REMARK    5  A    between atoms: C_11  and  C_18
REMARK    6  A    between atoms: C_14  and  C_17
REMARK    7  A    between atoms: C_19  and  N_20
REMARK    8  A    between atoms: N_20  and  C_21
REMARK    9  A    between atoms: C_21  and  C_22
REMARK   10  A    between atoms: C_21  and  C_23
REMARK                            x       y       z     vdW  Elec       q    Type
REMARK                         _______ _______ _______ _____ _____    ______ ____
ROOT
ATOM      1  C   UNL     1      -1.413  -2.041   0.005  0.00  0.00    +0.052 A 
ATOM      2  C   UNL     1      -1.409  -2.741  -1.155  0.00  0.00    -0.003 A 
ATOM      3  S   UNL     1      -1.383  -4.415  -0.532  0.00  0.00    -0.059 S 
ATOM      4  C   UNL     1      -1.379  -4.052   1.111  0.00  0.00    +0.161 A 
ATOM      5  N   UNL     1      -1.392  -2.736   1.128  0.00  0.00    -0.230 NA
ATOM      6  N   UNL     1      -1.361  -4.927   2.186  0.00  0.00    -0.309 N 
ATOM      7  C   UNL     1      -1.336  -6.380   1.968  0.00  0.00    +0.110 C 
ATOM      8  C   UNL     1      -0.156  -6.974   2.744  0.00  0.00    +0.004 C 
ATOM      9  C   UNL     1      -0.257  -6.561   4.214  0.00  0.00    +0.009 C 
ATOM     10  C   UNL     1      -0.187  -5.036   4.322  0.00  0.00    +0.004 C 
ATOM     11  C   UNL     1      -1.361  -4.419   3.565  0.00  0.00    +0.110 C 
ATOM     12  C   UNL     1      -0.254  -4.625   5.795  0.00  0.00    +0.009 C 
ATOM     13  C   UNL     1       1.156  -6.454   2.155  0.00  0.00    +0.009 C 
ENDROOT
BRANCH   1  14
ATOM     14  C   UNL     1      -1.433  -0.534   0.013  0.00  0.00    +0.056 C 
BRANCH  14  16
ATOM     15  C   UNL     1      -0.019   1.526   0.010  0.00  0.00    +0.004 C 
ATOM     16  C   UNL     1       0.002  -0.004   0.002  0.00  0.00    +0.003 C 
ENDBRANCH  14  16
ENDBRANCH   1  14
BRANCH   2  17
ATOM     17  C   UNL     1      -1.424  -2.245  -2.578  0.00  0.00    -0.037 C 
BRANCH  17  18
ATOM     18  N   UNL     1      -0.044  -2.064  -3.047  0.00  0.00    +0.384 N 
ATOM     19  H   UNL     1       0.426  -1.391  -2.461  0.00  0.00    -0.085 HD
ATOM     20  H   UNL     1       0.445  -2.946  -3.003  0.00  0.00    -0.085 HD
BRANCH  18  21
ATOM     21  C   UNL     1      -0.058  -1.581  -4.434  0.00  0.00    -0.078 C 
ATOM     22  C   UNL     1      -0.688  -0.187  -4.482  0.00  0.00    -0.014 C 
ATOM     23  C   UNL     1       1.375  -1.511  -4.965  0.00  0.00    -0.014 C 
ENDBRANCH  18  21
ENDBRANCH  17  18
ENDBRANCH   2  17
TORSDOF 5
