REMARK  Name = ZINC19658810
REMARK  5 active torsions:
REMARK  status: ('A' for Active; 'I' for Inactive)
REMARK    1  A    between atoms: C_1  and  C_2
REMARK    2  A    between atoms: C_12  and  C_14
REMARK    3  A    between atoms: C_14  and  N_15
REMARK    4  A    between atoms: C_18  and  C_21
REMARK    5  A    between atoms: C_18  and  N_24
REMARK                            x       y       z     vdW  Elec       q    Type
REMARK                         _______ _______ _______ _____ _____    ______ ____
ROOT
ATOM      1  N   UNL     1      -1.404  -8.899   2.094  0.00  0.00    +0.386 N 
ATOM      2  C   UNL     1      -2.806  -8.544   2.349  0.00  0.00    -0.076 C 
ATOM      3  C   UNL     1      -3.710  -9.275   1.354  0.00  0.00    +0.013 C 
ATOM      4  C   UNL     1      -3.526 -10.786   1.520  0.00  0.00    +0.095 C 
ATOM      5  C   UNL     1      -2.048 -11.135   1.325  0.00  0.00    +0.013 C 
ATOM      6  C   UNL     1      -1.205 -10.335   2.321  0.00  0.00    -0.076 C 
ATOM      7  H   UNL     1      -1.171  -8.675   1.138  0.00  0.00    -0.081 HD
ENDROOT
BRANCH   4   8
ATOM      8  N   UNL     1      -4.334 -11.492   0.517  0.00  0.00    -0.285 NA
ATOM      9  C   UNL     1      -5.750 -11.110   0.617  0.00  0.00    +0.113 C 
ATOM     10  C   UNL     1      -6.544 -11.822  -0.482  0.00  0.00    +0.175 C 
ATOM     11  O   UNL     1      -6.354 -13.234  -0.361  0.00  0.00    -0.377 OA
ATOM     12  C   UNL     1      -4.987 -13.642  -0.455  0.00  0.00    +0.175 C 
ATOM     13  C   UNL     1      -4.177 -12.948   0.644  0.00  0.00    +0.113 C 
ENDBRANCH   4   8
BRANCH   4  14
ATOM     14  C   UNL     1      -3.963 -11.198   2.902  0.00  0.00    +0.231 C 
ATOM     15  O   UNL     1      -4.593 -10.426   3.594  0.00  0.00    -0.274 OA
ATOM     16  N   UNL     1      -3.654 -12.424   3.370  0.00  0.00    -0.328 N 
ATOM     17  H   UNL     1      -3.085 -13.012   2.849  0.00  0.00    +0.145 HD
ATOM     18  H   UNL     1      -3.999 -12.717   4.227  0.00  0.00    +0.145 HD
ENDBRANCH   4  14
BRANCH   1  19
ATOM     19  C   UNL     1      -0.535  -8.136   2.999  0.00  0.00    +0.019 C 
BRANCH  19  30
ATOM     20  C   UNL     1      -0.382   1.789   1.796  0.00  0.00    +0.008 C 
ATOM     21  C   UNL     1      -0.296   0.270   1.635  0.00  0.00    -0.009 C 
ATOM     22  C   UNL     1      -1.694  -0.298   1.375  0.00  0.00    +0.010 C 
ATOM     23  C   UNL     1      -1.597  -1.771   0.970  0.00  0.00    +0.056 C 
ATOM     24  C   UNL     1      -0.771  -2.510   2.014  0.00  0.00    +0.054 A 
ATOM     25  C   UNL     1       0.041  -1.827   2.862  0.00  0.00    +0.015 A 
ATOM     26  S   UNL     1       0.749  -3.120   3.843  0.00  0.00    -0.057 S 
ATOM     27  C   UNL     1      -0.037  -4.414   3.102  0.00  0.00    +0.165 A 
ATOM     28  N   UNL     1      -0.771  -3.829   2.181  0.00  0.00    -0.229 NA
ATOM     29  N   UNL     1       0.066  -5.769   3.393  0.00  0.00    -0.266 N 
ATOM     30  C   UNL     1      -0.647  -6.667   2.684  0.00  0.00    +0.202 C 
ATOM     31  O   UNL     1      -1.379  -6.292   1.792  0.00  0.00    -0.277 OA
ATOM     32  C   UNL     1       0.264  -0.354   2.924  0.00  0.00    +0.047 C 
ATOM     33  H   UNL     1       0.652  -6.069   4.106  0.00  0.00    +0.157 HD
ENDBRANCH  19  30
ENDBRANCH   1  19
TORSDOF 4
