REMARK  Name = ZINC65264801
REMARK  5 active torsions:
REMARK  status: ('A' for Active; 'I' for Inactive)
REMARK    1  A    between atoms: C_6  and  S_7
REMARK    2  A    between atoms: S_7  and  N_10
REMARK    3  A    between atoms: N_10  and  C_11
REMARK    4  A    between atoms: N_10  and  C_14
REMARK    5  A    between atoms: C_11  and  C_12
REMARK                            x       y       z     vdW  Elec       q    Type
REMARK                         _______ _______ _______ _____ _____    ______ ____
ROOT
ATOM      1  C   UNL     1      -0.017   1.382   0.010  0.00  0.00    +0.030 A 
ATOM      2  C   UNL     1       1.162   2.102   0.002  0.00  0.00    +0.028 A 
ATOM      3  C   UNL     1       2.376   1.434  -0.013  0.00  0.00    +0.056 A 
ATOM      4  C   UNL     1       2.396   0.028  -0.021  0.00  0.00    +0.065 A 
ATOM      5  C   UNL     1       1.201  -0.686  -0.013  0.00  0.00    +0.043 A 
ATOM      6  C   UNL     1       0.002  -0.004   0.002  0.00  0.00    +0.106 A 
ATOM      7  C   UNL     1       3.705  -0.650  -0.036  0.00  0.00    +0.262 A 
ATOM      8  O   UNL     1       3.778  -1.864  -0.044  0.00  0.00    -0.267 OA
ATOM      9  N   UNL     1       4.820   0.111  -0.043  0.00  0.00    -0.275 N 
ATOM     10  H   UNL     1       5.690  -0.319  -0.053  0.00  0.00    +0.173 HD
ATOM     11  C   UNL     1       4.749   1.452  -0.035  0.00  0.00    +0.327 A 
ATOM     12  O   UNL     1       5.784   2.089  -0.041  0.00  0.00    -0.247 OA
ATOM     13  N   UNL     1       3.583   2.119  -0.020  0.00  0.00    -0.307 N 
ATOM     14  H   UNL     1       3.584   3.089  -0.015  0.00  0.00    +0.170 HD
ENDROOT
BRANCH   6  15
ATOM     15  S   UNL     1      -1.515  -0.900   0.012  0.00  0.00    +0.062 S 
ATOM     16  O   UNL     1      -1.226  -2.182   0.553  0.00  0.00    -0.153 OA
ATOM     17  O   UNL     1      -2.493  -0.038   0.578  0.00  0.00    -0.153 OA
BRANCH  15  18
ATOM     18  N   UNL     1      -1.952  -1.141  -1.567  0.00  0.00    -0.160 NA
BRANCH  18  19
ATOM     19  C   UNL     1      -2.791  -0.155  -2.253  0.00  0.00    +0.081 C 
ATOM     20  C   UNL     1      -3.328  -0.525  -3.637  0.00  0.00    +0.022 C 
ATOM     21  C   UNL     1      -2.215   0.516  -3.501  0.00  0.00    +0.022 C 
ENDBRANCH  18  19
BRANCH  18  22
ATOM     22  C   UNL     1      -1.500  -2.340  -2.277  0.00  0.00    +0.227 C 
BRANCH  22  23
ATOM     23  C   UNL     1      -2.541  -3.378  -2.198  0.00  0.00    +0.080 C 
ATOM     24  N   UNL     1      -3.343  -4.180  -2.137  0.00  0.00    -0.195 NA
ENDBRANCH  22  23
ENDBRANCH  18  22
ENDBRANCH  15  18
ENDBRANCH   6  15
TORSDOF 5
