REMARK  Name = ZINC04669195
REMARK  9 active torsions:
REMARK  status: ('A' for Active; 'I' for Inactive)
REMARK    1  A    between atoms: C_1  and  C_2
REMARK    2  A    between atoms: C_5  and  C_26
REMARK    3  A    between atoms: C_6  and  N_8
REMARK    4  A    between atoms: N_8  and  C_9
REMARK    5  A    between atoms: C_9  and  N_11
REMARK    6  A    between atoms: N_11  and  N_12
REMARK    7  A    between atoms: C_15  and  C_24
REMARK    8  A    between atoms: C_15  and  C_25
REMARK    9  A    between atoms: C_20  and  O_23
REMARK                            x       y       z     vdW  Elec       q    Type
REMARK                         _______ _______ _______ _____ _____    ______ ____
ROOT
ATOM      1  N   UNL     1      -1.102   6.072  -0.165  0.00  0.00    -0.185 NA
ATOM      2  C   UNL     1      -0.003   5.419   0.061  0.00  0.00    +0.074 C 
ATOM      3  C   UNL     1       1.360   6.068  -0.101  0.00  0.00    +0.105 C 
ATOM      4  C   UNL     1       2.284   5.026  -0.748  0.00  0.00    +0.111 C 
ATOM      5  O   UNL     1       2.347   3.868   0.084  0.00  0.00    -0.485 OA
ATOM      6  C   UNL     1       1.188   3.280   0.474  0.00  0.00    +0.130 A 
ATOM      7  C   UNL     1      -0.012   4.002   0.490  0.00  0.00    +0.043 A 
ATOM      8  C   UNL     1      -1.195   3.394   0.902  0.00  0.00    +0.058 A 
ATOM      9  C   UNL     1      -1.180   2.064   1.290  0.00  0.00    +0.118 A 
ATOM     10  C   UNL     1       0.011   1.349   1.276  0.00  0.00    +0.049 A 
ATOM     11  C   UNL     1       1.186   1.951   0.868  0.00  0.00    +0.050 A 
ATOM     12  C   UNL     1       1.734   4.638  -2.121  0.00  0.00    +0.056 C 
ATOM     13  C   UNL     1       3.687   5.616  -0.908  0.00  0.00    +0.056 C 
ENDROOT
BRANCH   1  14
ATOM     14  N   UNL     1      -1.050   7.412  -0.570  0.00  0.00    -0.218 N 
ATOM     15  H   UNL     1      -0.192   7.852  -0.681  0.00  0.00    +0.176 HD
BRANCH  14  16
ATOM     16  C   UNL     1      -2.191   8.090  -0.804  0.00  0.00    +0.154 C 
ATOM     17  S   UNL     1      -2.127   9.727  -1.299  0.00  0.00    -0.017 S 
BRANCH  16  18
ATOM     18  N   UNL     1      -3.382   7.478  -0.649  0.00  0.00    -0.295 N 
ATOM     19  H   UNL     1      -3.417   6.530  -0.447  0.00  0.00    +0.154 HD
BRANCH  18  25
ATOM     20  C   UNL     1      -5.979  11.536   0.329  0.00  0.00    +0.044 C 
ATOM     21  C   UNL     1      -5.852  10.180  -0.317  0.00  0.00    -0.049 A 
ATOM     22  C   UNL     1      -6.909   9.660  -1.042  0.00  0.00    +0.004 A 
ATOM     23  C   UNL     1      -6.797   8.416  -1.636  0.00  0.00    +0.005 A 
ATOM     24  C   UNL     1      -5.627   7.693  -1.512  0.00  0.00    -0.029 A 
ATOM     25  C   UNL     1      -4.566   8.210  -0.781  0.00  0.00    +0.036 A 
ATOM     26  C   UNL     1      -4.682   9.460  -0.185  0.00  0.00    +0.027 A 
ATOM     27  C   UNL     1      -5.503   6.340  -2.166  0.00  0.00    +0.045 C 
ENDBRANCH  18  25
ENDBRANCH  16  18
ENDBRANCH  14  16
ENDBRANCH   1  14
BRANCH   9  28
ATOM     28  O   UNL     1      -2.331   1.459   1.689  0.00  0.00    -0.507 OA
ATOM     29  H   UNL     1      -2.505   1.532   2.638  0.00  0.00    +0.292 HD
ENDBRANCH   9  28
TORSDOF 5
