REMARK  Name = ZINC21917124
REMARK  7 active torsions:
REMARK  status: ('A' for Active; 'I' for Inactive)
REMARK    1  A    between atoms: C_1  and  C_2
REMARK    2  A    between atoms: C_5  and  S_21
REMARK    3  A    between atoms: C_7  and  C_8
REMARK    4  A    between atoms: N_10  and  C_11
REMARK    5  A    between atoms: C_11  and  C_13
REMARK    6  A    between atoms: C_11  and  C_14
REMARK    7  A    between atoms: S_21  and  N_24
REMARK                            x       y       z     vdW  Elec       q    Type
REMARK                         _______ _______ _______ _____ _____    ______ ____
ROOT
ATOM      1  C   UNL     1       4.122   3.504  -0.981  0.00  0.00    +0.044 C 
ATOM      2  C   UNL     1       2.965   4.452  -0.800  0.00  0.00    -0.038 A 
ATOM      3  C   UNL     1       3.158   5.812  -0.933  0.00  0.00    +0.006 A 
ATOM      4  C   UNL     1       2.098   6.684  -0.761  0.00  0.00    +0.029 A 
ATOM      5  C   UNL     1       0.837   6.199  -0.461  0.00  0.00    +0.106 A 
ATOM      6  C   UNL     1       0.629   4.841  -0.332  0.00  0.00    +0.041 A 
ATOM      7  C   UNL     1       1.695   3.956  -0.504  0.00  0.00    +0.041 A 
ENDROOT
BRANCH   7   8
ATOM      8  C   UNL     1       1.480   2.500  -0.367  0.00  0.00    +0.245 C 
ATOM      9  O   UNL     1       2.381   1.726  -0.621  0.00  0.00    -0.270 OA
ATOM     10  N   UNL     1       0.284   2.031   0.041  0.00  0.00    -0.305 N 
ATOM     11  H   UNL     1      -0.532   2.731   0.272  0.00  0.00    +0.150 HD
BRANCH  10  12
ATOM     12  C   UNL     1       0.071   0.588   0.177  0.00  0.00    +0.103 C 
ATOM     13  C   UNL     1       0.512   0.136   1.571  0.00  0.00    +0.033 C 
BRANCH  12  14
ATOM     14  C   UNL     1      -1.391   0.276  -0.012  0.00  0.00    +0.008 A 
ATOM     15  C   UNL     1      -2.344   1.244   0.244  0.00  0.00    +0.008 A 
ATOM     16  C   UNL     1      -3.685   0.960   0.065  0.00  0.00    +0.000 A 
ATOM     17  C   UNL     1      -4.076  -0.296  -0.359  0.00  0.00    +0.003 A 
ATOM     18  C   UNL     1      -3.126  -1.268  -0.610  0.00  0.00    +0.039 A 
ATOM     19  C   UNL     1      -1.782  -0.983  -0.436  0.00  0.00    +0.128 A 
ATOM     20  F   UNL     1      -0.852  -1.932  -0.681  0.00  0.00    -0.205 F 
ENDBRANCH  12  14
ENDBRANCH  10  12
ENDBRANCH   7   8
BRANCH   5  21
ATOM     21  S   UNL     1      -0.507   7.318  -0.245  0.00  0.00    +0.056 S 
ATOM     22  O   UNL     1      -0.169   8.501  -0.956  0.00  0.00    -0.153 OA
ATOM     23  O   UNL     1      -1.694   6.583  -0.511  0.00  0.00    -0.153 OA
BRANCH  21  24
ATOM     24  N   UNL     1      -0.552   7.725   1.359  0.00  0.00    -0.204 NA
ATOM     25  H   UNL     1      -1.381   8.426   1.537  0.00  0.00    +0.144 HD
ATOM     26  H   UNL     1       0.398   8.202   1.643  0.00  0.00    +0.144 HD
ENDBRANCH  21  24
ENDBRANCH   5  21
TORSDOF 5
