REMARK  Name = ZINC32542363
REMARK  12 active torsions:
REMARK  status: ('A' for Active; 'I' for Inactive)
REMARK    1  A    between atoms: C_1  and  C_2
REMARK    2  A    between atoms: C_2  and  C_4
REMARK    3  A    between atoms: C_2  and  N_14
REMARK    4  A    between atoms: C_7  and  S_10
REMARK    5  A    between atoms: S_10  and  N_13
REMARK    6  A    between atoms: N_14  and  C_15
REMARK    7  A    between atoms: N_14  and  C_16
REMARK    8  A    between atoms: C_16  and  C_17
REMARK    9  A    between atoms: N_22  and  C_23
REMARK   10  A    between atoms: C_23  and  C_24
REMARK   11  A    between atoms: C_24  and  C_25
REMARK   12  A    between atoms: C_24  and  C_26
REMARK                            x       y       z     vdW  Elec       q    Type
REMARK                         _______ _______ _______ _____ _____    ______ ____
ROOT
ATOM      1  N   UNL     1       0.690  -0.478  -1.207  0.00  0.00    +0.388 N 
ATOM      2  C   UNL     1       2.068   0.031  -1.217  0.00  0.00    -0.095 C 
ATOM      3  H   UNL     1       0.202  -0.144  -2.024  0.00  0.00    -0.081 HD
ENDROOT
BRANCH   1   5
ATOM      4  C   UNL     1      -0.019   1.526   0.010  0.00  0.00    -0.008 C 
ATOM      5  C   UNL     1       0.002  -0.004   0.002  0.00  0.00    -0.041 C 
BRANCH   5   6
ATOM      6  C   UNL     1      -1.412  -0.526   0.013  0.00  0.00    -0.061 A 
ATOM      7  C   UNL     1      -2.141  -0.569  -1.161  0.00  0.00    +0.004 A 
ATOM      8  C   UNL     1      -3.438  -1.047  -1.151  0.00  0.00    +0.029 A 
ATOM      9  C   UNL     1      -4.005  -1.483   0.032  0.00  0.00    +0.105 A 
ATOM     10  C   UNL     1      -3.275  -1.441   1.205  0.00  0.00    +0.029 A 
ATOM     11  C   UNL     1      -1.977  -0.966   1.195  0.00  0.00    +0.004 A 
BRANCH   9  12
ATOM     12  S   UNL     1      -5.659  -2.092   0.045  0.00  0.00    +0.056 S 
ATOM     13  O   UNL     1      -6.142  -1.928   1.371  0.00  0.00    -0.153 OA
ATOM     14  O   UNL     1      -6.311  -1.518  -1.080  0.00  0.00    -0.153 OA
BRANCH  12  15
ATOM     15  N   UNL     1      -5.582  -3.723  -0.233  0.00  0.00    -0.204 NA
ATOM     16  H   UNL     1      -6.256  -4.311   0.142  0.00  0.00    +0.144 HD
ATOM     17  H   UNL     1      -4.863  -4.090  -0.771  0.00  0.00    +0.144 HD
ENDBRANCH  12  15
ENDBRANCH   9  12
ENDBRANCH   5   6
ENDBRANCH   1   5
BRANCH   1  18
ATOM     18  C   UNL     1       0.710  -1.947  -1.215  0.00  0.00    +0.019 C 
BRANCH  18  19
ATOM     19  C   UNL     1       1.304  -2.434  -2.511  0.00  0.00    +0.204 C 
ATOM     20  O   UNL     1       1.675  -1.636  -3.345  0.00  0.00    -0.277 OA
ATOM     21  N   UNL     1       1.424  -3.756  -2.742  0.00  0.00    -0.242 N 
ATOM     22  C   UNL     1       1.956  -4.192  -3.901  0.00  0.00    +0.306 C 
ATOM     23  O   UNL     1       2.328  -3.392  -4.738  0.00  0.00    -0.252 OA
ATOM     24  N   UNL     1       2.076  -5.514  -4.133  0.00  0.00    -0.299 N 
ATOM     25  H   UNL     1       1.128  -4.394  -2.075  0.00  0.00    +0.159 HD
ATOM     26  H   UNL     1       1.780  -6.152  -3.465  0.00  0.00    +0.150 HD
BRANCH  24  27
ATOM     27  C   UNL     1       2.655  -5.988  -5.393  0.00  0.00    +0.108 C 
BRANCH  27  28
ATOM     28  C   UNL     1       2.675  -7.518  -5.401  0.00  0.00    -0.000 C 
ATOM     29  C   UNL     1       3.163  -8.014  -6.764  0.00  0.00    +0.009 C 
ATOM     30  C   UNL     1       3.620  -8.021  -4.308  0.00  0.00    +0.009 C 
ENDBRANCH  27  28
ENDBRANCH  24  27
ENDBRANCH  18  19
ENDBRANCH   1  18
TORSDOF 8
