REMARK  Name = ZINC52695806
REMARK  6 active torsions:
REMARK  status: ('A' for Active; 'I' for Inactive)
REMARK    1  A    between atoms: C_1  and  C_2
REMARK    2  A    between atoms: C_4  and  C_9
REMARK    3  A    between atoms: C_6  and  C_7
REMARK    4  A    between atoms: C_7  and  N_8
REMARK    5  A    between atoms: C_9  and  O_10
REMARK    6  A    between atoms: O_10  and  C_11
REMARK                            x       y       z     vdW  Elec       q    Type
REMARK                         _______ _______ _______ _____ _____    ______ ____
ROOT
ATOM      1  C   UNL     1      -0.018   1.503   0.010  0.00  0.00    +0.047 C 
ATOM      2  C   UNL     1       0.002  -0.004   0.002  0.00  0.00    -0.011 A 
ATOM      3  C   UNL     1       0.009  -0.840  -1.138  0.00  0.00    +0.051 A 
ATOM      4  C   UNL     1       0.029  -2.109  -0.691  0.00  0.00    +0.143 A 
ATOM      5  O   UNL     1       0.034  -2.085   0.652  0.00  0.00    -0.463 OA
ATOM      6  C   UNL     1       0.023  -0.811   1.078  0.00  0.00    +0.091 A 
ENDROOT
BRANCH   6   7
ATOM      7  C   UNL     1       0.030  -0.363   2.516  0.00  0.00    -0.010 C 
BRANCH   7   8
ATOM      8  N   UNL     1      -1.353  -0.236   2.996  0.00  0.00    +0.383 N 
ATOM      9  H   UNL     1      -1.843   0.443   2.434  0.00  0.00    -0.089 HD
ATOM     10  H   UNL     1      -1.816  -1.130   2.925  0.00  0.00    -0.089 HD
ATOM     11  H   UNL     1      -1.348   0.064   3.960  0.00  0.00    -0.089 HD
ENDBRANCH   7   8
ENDBRANCH   6   7
BRANCH   4  12
ATOM     12  C   UNL     1       0.042  -3.346  -1.550  0.00  0.00    +0.303 C 
BRANCH  12  13
ATOM     13  O   UNL     1       1.393  -3.719  -1.829  0.00  0.00    -0.481 OA
BRANCH  13  14
ATOM     14  C   UNL     1       1.583  -4.823  -2.598  0.00  0.00    +0.156 A 
ATOM     15  C   UNL     1       0.492  -5.530  -3.080  0.00  0.00    +0.050 A 
ATOM     16  C   UNL     1       0.687  -6.652  -3.863  0.00  0.00    +0.019 A 
ATOM     17  C   UNL     1       1.970  -7.072  -4.166  0.00  0.00    +0.021 A 
ATOM     18  C   UNL     1       3.061  -6.369  -3.687  0.00  0.00    +0.057 A 
ATOM     19  C   UNL     1       2.871  -5.242  -2.908  0.00  0.00    +0.166 A 
ATOM     20  F   UNL     1       3.936  -4.553  -2.445  0.00  0.00    -0.202 F 
ATOM     21 BR   UNL     1       2.232  -8.608  -5.237  0.00  0.00    -0.050 Br
ENDBRANCH  13  14
ENDBRANCH  12  13
ENDBRANCH   4  12
TORSDOF 5
