REMARK  Name = ZINC67641474
REMARK  8 active torsions:
REMARK  status: ('A' for Active; 'I' for Inactive)
REMARK    1  A    between atoms: C_1  and  C_2
REMARK    2  A    between atoms: C_9  and  C_12
REMARK    3  A    between atoms: C_21  and  C_23
REMARK    4  A    between atoms: C_23  and  C_25
REMARK    5  A    between atoms: C_23  and  N_29
REMARK    6  A    between atoms: C_25  and  C_26
REMARK    7  A    between atoms: C_26  and  S_27
REMARK    8  A    between atoms: S_27  and  C_28
REMARK                            x       y       z     vdW  Elec       q    Type
REMARK                         _______ _______ _______ _____ _____    ______ ____
ROOT
ATOM      1  C   UNL     1       0.064  -1.377   4.755  0.00  0.00    +0.128 A 
ATOM      2  C   UNL     1       0.049  -0.225   5.572  0.00  0.00    +0.057 A 
ATOM      3  C   UNL     1       0.070  -0.631   6.852  0.00  0.00    +0.057 A 
ATOM      4  N   UNL     1       0.091  -1.986   6.869  0.00  0.00    -0.265 N 
ATOM      5  N   UNL     1       0.086  -2.434   5.545  0.00  0.00    -0.168 NA
ATOM      6  C   UNL     1       0.104  -2.809   8.082  0.00  0.00    +0.163 C 
ATOM      7  C   UNL     1       0.556  -1.952   9.270  0.00  0.00    +0.131 C 
ATOM      8  N   UNL     1      -0.161  -0.668   9.241  0.00  0.00    -0.295 N 
ATOM      9  C   UNL     1       0.072   0.229   8.095  0.00  0.00    +0.162 C 
ATOM     10  C   UNL     1      -1.005  -0.323  10.233  0.00  0.00    +0.201 C 
ATOM     11  O   UNL     1      -1.183  -1.075  11.168  0.00  0.00    -0.277 OA
ENDROOT
BRANCH   1  20
ATOM     12  C   UNL     1      -0.018   1.503   0.010  0.00  0.00    +0.046 C 
ATOM     13  C   UNL     1       0.002  -0.004   0.002  0.00  0.00    -0.023 A 
ATOM     14  C   UNL     1       0.006  -0.688  -1.192  0.00  0.00    +0.005 A 
ATOM     15  C   UNL     1       0.025  -2.075  -1.210  0.00  0.00    +0.002 A 
ATOM     16  C   UNL     1       0.040  -2.790  -0.030  0.00  0.00    +0.028 A 
ATOM     17  C   UNL     1       0.037  -2.118   1.184  0.00  0.00    +0.067 A 
ATOM     18  C   UNL     1       0.023  -0.712   1.208  0.00  0.00    +0.092 A 
ATOM     19  N   UNL     1       0.029  -0.334   2.509  0.00  0.00    -0.226 NA
ATOM     20  C   UNL     1       0.051  -1.396   3.277  0.00  0.00    +0.159 A 
ATOM     21  N   UNL     1       0.049  -2.526   2.504  0.00  0.00    -0.337 N 
ATOM     22  H   UNL     1       0.063  -3.442   2.823  0.00  0.00    +0.167 HD
ENDBRANCH   1  20
BRANCH  10  23
ATOM     23  C   UNL     1      -1.728   0.998  10.181  0.00  0.00    +0.014 C 
BRANCH  23  24
ATOM     24  N   UNL     1      -2.902   0.949  11.063  0.00  0.00    +0.386 N 
ATOM     25  H   UNL     1      -3.386   1.834  11.028  0.00  0.00    -0.089 HD
ATOM     26  H   UNL     1      -3.522   0.214  10.757  0.00  0.00    -0.089 HD
ATOM     27  H   UNL     1      -2.604   0.766  12.009  0.00  0.00    -0.089 HD
ENDBRANCH  23  24
BRANCH  23  28
ATOM     28  C   UNL     1      -0.788   2.113  10.645  0.00  0.00    +0.003 C 
BRANCH  28  29
ATOM     29  C   UNL     1      -1.479   3.467  10.474  0.00  0.00    +0.068 C 
BRANCH  29  30
ATOM     30  S   UNL     1      -0.364   4.788  11.024  0.00  0.00    -0.164 S 
ATOM     31  C   UNL     1      -1.321   6.307  10.760  0.00  0.00    +0.084 C 
ENDBRANCH  29  30
ENDBRANCH  28  29
ENDBRANCH  23  28
ENDBRANCH  10  23
TORSDOF 6
