REMARK  Name = ZINC63637704
REMARK  3 active torsions:
REMARK  status: ('A' for Active; 'I' for Inactive)
REMARK    1  A    between atoms: C_3  and  C_6
REMARK    2  A    between atoms: C_11  and  C_23
REMARK    3  A    between atoms: C_26  and  C_29
REMARK                            x       y       z     vdW  Elec       q    Type
REMARK                         _______ _______ _______ _____ _____    ______ ____
ROOT
ATOM      1  C   UNL     1       3.599   0.625  -0.029  0.00  0.00    +0.068 C 
ATOM      2  C   UNL     1       4.085  -0.112  -1.279  0.00  0.00    +0.062 C 
ATOM      3  C   UNL     1       5.594  -0.183  -1.272  0.00  0.00    +0.017 C 
ATOM      4  C   UNL     1       6.279  -0.253  -0.115  0.00  0.00    +0.021 C 
ATOM      5  C   UNL     1       7.787  -0.351  -0.077  0.00  0.00    +0.073 C 
ATOM      6  C   UNL     1       8.387   0.178  -1.381  0.00  0.00    +0.148 C 
ATOM      7  C   UNL     1       7.581  -0.400  -2.519  0.00  0.00    +0.106 C 
ATOM      8  N   UNL     1       8.122  -1.098  -3.469  0.00  0.00    -0.151 NA
ATOM      9  C   UNL     1       9.432  -1.380  -3.501  0.00  0.00    +0.331 C 
ATOM     10  O   UNL     1       9.880  -2.018  -4.435  0.00  0.00    -0.250 OA
ATOM     11  N   UNL     1      10.262  -0.975  -2.527  0.00  0.00    -0.238 N 
ATOM     12  C   UNL     1       9.826  -0.233  -1.490  0.00  0.00    +0.231 C 
ATOM     13  O   UNL     1      10.607   0.108  -0.627  0.00  0.00    -0.275 OA
ATOM     14  N   UNL     1       6.234  -0.162  -2.491  0.00  0.00    -0.307 N 
ATOM     15  C   UNL     1       5.607  -0.235   1.125  0.00  0.00    +0.162 C 
ATOM     16  O   UNL     1       6.253  -0.308   2.151  0.00  0.00    -0.292 OA
ATOM     17  C   UNL     1       4.110  -0.126   1.204  0.00  0.00    +0.091 C 
ATOM     18  H   UNL     1      11.200  -1.219  -2.571  0.00  0.00    +0.159 HD
ATOM     19  H   UNL     1       5.743   0.016  -3.309  0.00  0.00    +0.153 HD
ENDROOT
BRANCH   5  20
ATOM     20  C   UNL     1       8.311   0.465   1.077  0.00  0.00    -0.039 A 
ATOM     21  C   UNL     1       8.055   1.823   1.132  0.00  0.00    +0.005 A 
ATOM     22  C   UNL     1       8.532   2.576   2.184  0.00  0.00    +0.015 A 
ATOM     23  C   UNL     1       9.275   1.964   3.196  0.00  0.00    +0.063 A 
ATOM     24  C   UNL     1       9.530   0.592   3.134  0.00  0.00    +0.015 A 
ATOM     25  C   UNL     1       9.042  -0.150   2.078  0.00  0.00    +0.005 A 
BRANCH  23  26
ATOM     26  C   UNL     1       9.790   2.763   4.325  0.00  0.00    +0.387 C 
ATOM     27  O   UNL     1       9.565   3.964   4.377  0.00  0.00    -0.241 OA
ATOM     28  O   UNL     1      10.440   2.224   5.210  0.00  0.00    -0.241 OA
ENDBRANCH  23  26
ENDBRANCH   5  20
BRANCH   1  31
ATOM     29  C   UNL     1      -0.016   1.341   0.009  0.00  0.00    +0.041 A 
ATOM     30  C   UNL     1       1.331   1.769  -0.001  0.00  0.00    +0.045 A 
ATOM     31  C   UNL     1       2.092   0.660  -0.014  0.00  0.00    +0.109 A 
ATOM     32  O   UNL     1       1.282  -0.411  -0.012  0.00  0.00    -0.468 OA
ATOM     33  C   UNL     1       0.002  -0.004   0.002  0.00  0.00    +0.195 A 
ENDBRANCH   1  31
TORSDOF 3
