REMARK  Name = ZINC64380686
REMARK  6 active torsions:
REMARK  status: ('A' for Active; 'I' for Inactive)
REMARK    1  A    between atoms: C_1  and  O_2
REMARK    2  A    between atoms: O_2  and  C_3
REMARK    3  A    between atoms: C_9  and  C_12
REMARK    4  A    between atoms: C_12  and  C_13
REMARK    5  A    between atoms: C_13  and  N_14
REMARK    6  A    between atoms: C_15  and  O_26
REMARK                            x       y       z     vdW  Elec       q    Type
REMARK                         _______ _______ _______ _____ _____    ______ ____
ROOT
ATOM      1  C   UNL     1      -0.319  -5.616  -2.284  0.00  0.00    +0.116 C 
ENDROOT
BRANCH   1   2
ATOM      2  N   UNL     1      -0.752  -6.781  -1.509  0.00  0.00    -0.256 N 
ATOM      3  C   UNL     1      -0.360  -8.121  -1.947  0.00  0.00    +0.299 C 
ATOM      4  N   UNL     1      -1.390  -9.099  -1.576  0.00  0.00    -0.303 N 
ATOM      5  C   UNL     1      -1.939  -9.033  -0.300  0.00  0.00    +0.042 A 
ATOM      6  C   UNL     1      -2.410 -10.159   0.354  0.00  0.00    +0.024 A 
ATOM      7  C   UNL     1      -2.943 -10.038   1.623  0.00  0.00    +0.002 A 
ATOM      8  C   UNL     1      -3.009  -8.802   2.246  0.00  0.00    +0.001 A 
ATOM      9  C   UNL     1      -2.545  -7.670   1.607  0.00  0.00    +0.015 A 
ATOM     10  C   UNL     1      -2.007  -7.777   0.327  0.00  0.00    +0.058 A 
ATOM     11  C   UNL     1      -1.500  -6.599  -0.401  0.00  0.00    +0.251 C 
ATOM     12  O   UNL     1      -1.756  -5.476  -0.009  0.00  0.00    -0.270 OA
ATOM     13  H   UNL     1      -1.680  -9.777  -2.206  0.00  0.00    +0.150 HD
BRANCH   3  14
ATOM     14  O   UNL     1       0.875  -8.479  -1.326  0.00  0.00    -0.359 OA
ATOM     15  H   UNL     1       1.198  -9.358  -1.570  0.00  0.00    +0.213 HD
ENDBRANCH   3  14
ENDBRANCH   1   2
BRANCH   1  16
ATOM     16  C   UNL     1       1.031  -5.126  -1.758  0.00  0.00    +0.052 C 
BRANCH  16  23
ATOM     17  C   UNL     1       0.606  -0.607  -1.056  0.00  0.00    +0.121 A 
ATOM     18  C   UNL     1       1.172   0.195  -2.062  0.00  0.00    +0.047 A 
ATOM     19  C   UNL     1       1.790  -0.325  -3.144  0.00  0.00    +0.029 A 
ATOM     20  C   UNL     1       1.886  -1.780  -3.299  0.00  0.00    +0.043 A 
ATOM     21  N   UNL     1       2.419  -2.528  -4.232  0.00  0.00    -0.380 N 
ATOM     22  C   UNL     1       2.222  -3.937  -3.871  0.00  0.00    +0.144 C 
ATOM     23  C   UNL     1       1.476  -3.927  -2.555  0.00  0.00    -0.040 C 
ATOM     24  C   UNL     1       1.290  -2.626  -2.239  0.00  0.00    +0.002 A 
ATOM     25  C   UNL     1       0.646  -1.960  -1.102  0.00  0.00    +0.055 A 
ATOM     26  H   UNL     1       2.869  -2.205  -5.029  0.00  0.00    +0.160 HD
BRANCH  17  28
ATOM     27  C   UNL     1      -0.017   1.425   0.010  0.00  0.00    +0.277 C 
ATOM     28  O   UNL     1       0.002  -0.004   0.002  0.00  0.00    -0.495 OA
ENDBRANCH  17  28
ENDBRANCH  16  23
ENDBRANCH   1  16
TORSDOF 5
