REMARK  Name = ZINC51168993
REMARK  5 active torsions:
REMARK  status: ('A' for Active; 'I' for Inactive)
REMARK    1  A    between atoms: C_1  and  O_2
REMARK    2  A    between atoms: O_2  and  C_3
REMARK    3  A    between atoms: C_6  and  C_10
REMARK    4  A    between atoms: C_14  and  N_16
REMARK    5  A    between atoms: N_16  and  N_17
REMARK                            x       y       z     vdW  Elec       q    Type
REMARK                         _______ _______ _______ _____ _____    ______ ____
ROOT
ATOM      1  C   UNL     1      -4.963  -2.618   0.037  0.00  0.00    +0.162 A 
ATOM      2  N   UNL     1      -4.997  -3.942   0.041  0.00  0.00    -0.232 NA
ATOM      3  C   UNL     1      -6.152  -4.602   0.052  0.00  0.00    +0.050 A 
ATOM      4  C   UNL     1      -7.327  -3.889   0.062  0.00  0.00    +0.015 A 
ATOM      5  C   UNL     1      -7.261  -2.490   0.053  0.00  0.00    +0.139 A 
ATOM      6  N   UNL     1      -6.075  -1.896   0.047  0.00  0.00    -0.211 NA
ATOM      7  C   UNL     1      -8.678  -4.547   0.089  0.00  0.00    +0.040 C 
ATOM      8  C   UNL     1      -8.569  -6.012  -0.332  0.00  0.00    +0.005 C 
ATOM      9  C   UNL     1      -7.462  -6.674   0.497  0.00  0.00    +0.006 C 
ATOM     10  C   UNL     1      -6.116  -6.106   0.048  0.00  0.00    +0.056 C 
ENDROOT
BRANCH   1  14
ATOM     11  C   UNL     1      -1.200  -0.637   0.010  0.00  0.00    +0.134 A 
ATOM     12  C   UNL     1      -2.374   0.105   0.020  0.00  0.00    +0.047 A 
ATOM     13  C   UNL     1      -3.595  -0.535   0.028  0.00  0.00    +0.015 A 
ATOM     14  C   UNL     1      -3.651  -1.928   0.027  0.00  0.00    +0.020 A 
ATOM     15  C   UNL     1      -2.471  -2.671   0.017  0.00  0.00    +0.030 A 
ATOM     16  C   UNL     1      -1.252  -2.026   0.003  0.00  0.00    +0.060 A 
ATOM     17 BR   UNL     1       0.349  -3.031  -0.018  0.00  0.00    -0.046 Br
BRANCH  11  19
ATOM     18  C   UNL     1      -0.017   1.425   0.010  0.00  0.00    +0.277 C 
ATOM     19  O   UNL     1       0.002  -0.004   0.002  0.00  0.00    -0.494 OA
ENDBRANCH  11  19
ENDBRANCH   1  14
BRANCH   5  20
ATOM     20  N   UNL     1      -8.423  -1.734   0.057  0.00  0.00    -0.267 N 
ATOM     21  H   UNL     1      -9.287  -2.174   0.066  0.00  0.00    +0.167 HD
BRANCH  20  22
ATOM     22  N   UNL     1      -8.350  -0.370   0.049  0.00  0.00    -0.255 NA
ATOM     23  H   UNL     1      -9.272   0.041   0.053  0.00  0.00    +0.140 HD
ATOM     24  H   UNL     1      -7.800  -0.033   0.824  0.00  0.00    +0.140 HD
ENDBRANCH  20  22
ENDBRANCH   5  20
TORSDOF 4
