REMARK  Name = ZINC49979380
REMARK  6 active torsions:
REMARK  status: ('A' for Active; 'I' for Inactive)
REMARK    1  A    between atoms: C_1  and  C_2
REMARK    2  A    between atoms: C_4  and  C_21
REMARK    3  A    between atoms: C_6  and  N_8
REMARK    4  A    between atoms: N_8  and  C_9
REMARK    5  A    between atoms: N_8  and  C_10
REMARK    6  A    between atoms: C_13  and  N_20
REMARK                            x       y       z     vdW  Elec       q    Type
REMARK                         _______ _______ _______ _____ _____    ______ ____
ROOT
ATOM      1  C   UNL     1       0.048  -2.106   3.607  0.00  0.00    +0.058 A 
ATOM      2  C   UNL     1      -1.145  -1.786   4.216  0.00  0.00    +0.027 A 
ATOM      3  C   UNL     1      -1.168  -1.101   5.426  0.00  0.00    +0.025 A 
ATOM      4  C   UNL     1       0.005  -0.725   6.046  0.00  0.00    +0.034 A 
ATOM      5  C   UNL     1       1.241  -1.038   5.446  0.00  0.00    +0.021 A 
ATOM      6  C   UNL     1       1.267  -1.741   4.216  0.00  0.00    +0.070 A 
ATOM      7  N   UNL     1       2.438  -2.044   3.648  0.00  0.00    -0.359 N 
ATOM      8  C   UNL     1       3.575  -1.709   4.208  0.00  0.00    +0.083 A 
ATOM      9  C   UNL     1       3.620  -1.022   5.419  0.00  0.00    +0.018 A 
ATOM     10  C   UNL     1       2.458  -0.671   6.047  0.00  0.00    +0.013 A 
ATOM     11  H   UNL     1       2.447  -2.522   2.804  0.00  0.00    +0.165 HD
ENDROOT
BRANCH   4  12
ATOM     12  N   UNL     1      -0.032  -0.036   7.260  0.00  0.00    -0.357 N 
ATOM     13  H   UNL     1      -0.884   0.178   7.670  0.00  0.00    +0.142 HD
ATOM     14  H   UNL     1       0.795   0.227   7.693  0.00  0.00    +0.142 HD
ENDBRANCH   4  12
BRANCH   1  15
ATOM     15  N   UNL     1       0.052  -2.797   2.390  0.00  0.00    -0.302 N 
ATOM     16  C   UNL     1       0.071  -4.261   2.379  0.00  0.00    +0.135 C 
BRANCH  15  22
ATOM     17  C   UNL     1      -0.018   1.503   0.010  0.00  0.00    +0.044 C 
ATOM     18  C   UNL     1       0.002  -0.004   0.002  0.00  0.00    -0.048 A 
ATOM     19  C   UNL     1       0.006  -0.688  -1.200  0.00  0.00    +0.006 A 
ATOM     20  C   UNL     1       0.025  -2.071  -1.212  0.00  0.00    -0.048 A 
ATOM     21  C   UNL     1       0.040  -2.773  -0.024  0.00  0.00    +0.026 A 
ATOM     22  C   UNL     1       0.036  -2.090   1.186  0.00  0.00    +0.034 A 
ATOM     23  C   UNL     1       0.023  -0.700   1.194  0.00  0.00    +0.026 A 
ATOM     24  C   UNL     1       0.028  -2.812  -2.525  0.00  0.00    +0.044 C 
ENDBRANCH  15  22
ENDBRANCH   1  15
TORSDOF 3
