REMARK  Name = ZINC52665331
REMARK  10 active torsions:
REMARK  status: ('A' for Active; 'I' for Inactive)
REMARK    1  A    between atoms: C_1  and  C_2
REMARK    2  A    between atoms: C_2  and  C_3
REMARK    3  A    between atoms: C_3  and  C_4
REMARK    4  A    between atoms: C_3  and  C_5
REMARK    5  A    between atoms: C_3  and  C_6
REMARK    6  A    between atoms: C_9  and  O_12
REMARK    7  A    between atoms: O_12  and  C_13
REMARK    8  A    between atoms: C_13  and  C_14
REMARK    9  A    between atoms: C_18  and  C_19
REMARK   10  A    between atoms: C_19  and  N_20
REMARK                            x       y       z     vdW  Elec       q    Type
REMARK                         _______ _______ _______ _____ _____    ______ ____
ROOT
ATOM      1  O   UNL     1       0.817  -6.143   1.211  0.00  0.00    -0.487 OA
ENDROOT
BRANCH   1   5
ATOM      2  C   UNL     1       0.762  -2.018   1.233  0.00  0.00    -0.042 A 
ATOM      3  C   UNL     1       0.168  -2.710   0.195  0.00  0.00    +0.008 A 
ATOM      4  C   UNL     1       0.185  -4.092   0.185  0.00  0.00    +0.046 A 
ATOM      5  C   UNL     1       0.800  -4.784   1.218  0.00  0.00    +0.121 A 
ATOM      6  C   UNL     1       1.396  -4.087   2.259  0.00  0.00    +0.046 A 
ATOM      7  C   UNL     1       1.381  -2.705   2.261  0.00  0.00    +0.008 A 
BRANCH   2   8
ATOM      8  C   UNL     1       0.742  -0.511   1.242  0.00  0.00    -0.010 C 
ATOM      9  C   UNL     1       2.178   0.019   1.231  0.00  0.00    +0.016 C 
ATOM     10  C   UNL     1       0.026  -0.018   2.500  0.00  0.00    +0.016 C 
BRANCH   8  12
ATOM     11  C   UNL     1      -0.019   1.526   0.010  0.00  0.00    +0.005 C 
ATOM     12  C   UNL     1       0.002  -0.004   0.002  0.00  0.00    +0.007 C 
ENDBRANCH   8  12
ENDBRANCH   2   8
ENDBRANCH   1   5
BRANCH   1  13
ATOM     13  C   UNL     1       1.468  -6.789   2.307  0.00  0.00    +0.267 C 
BRANCH  13  14
ATOM     14  C   UNL     1       1.388  -8.283   2.129  0.00  0.00    +0.029 A 
ATOM     15  C   UNL     1       0.779  -8.972   1.055  0.00  0.00    +0.048 A 
ATOM     16  C   UNL     1       0.938 -10.286   1.295  0.00  0.00    +0.195 A 
ATOM     17  O   UNL     1       1.607 -10.429   2.450  0.00  0.00    -0.469 OA
ATOM     18  C   UNL     1       1.887  -9.217   2.958  0.00  0.00    +0.094 A 
BRANCH  18  19
ATOM     19  C   UNL     1       2.631  -8.950   4.241  0.00  0.00    -0.010 C 
BRANCH  19  20
ATOM     20  N   UNL     1       1.677  -8.883   5.356  0.00  0.00    +0.383 N 
ATOM     21  H   UNL     1       1.017  -8.138   5.189  0.00  0.00    -0.089 HD
ATOM     22  H   UNL     1       1.184  -9.760   5.430  0.00  0.00    -0.089 HD
ATOM     23  H   UNL     1       2.175  -8.704   6.215  0.00  0.00    -0.089 HD
ENDBRANCH  19  20
ENDBRANCH  18  19
ENDBRANCH  13  14
ENDBRANCH   1  13
TORSDOF 7
