REMARK  Name = ZINC09135738
REMARK  9 active torsions:
REMARK  status: ('A' for Active; 'I' for Inactive)
REMARK    1  A    between atoms: C_1  and  N_2
REMARK    2  A    between atoms: C_10  and  C_12
REMARK    3  A    between atoms: C_12  and  C_14
REMARK    4  A    between atoms: C_12  and  N_64
REMARK    5  A    between atoms: C_14  and  N_15
REMARK    6  A    between atoms: C_16  and  C_18
REMARK    7  A    between atoms: N_20  and  C_21
REMARK    8  A    between atoms: C_26  and  O_27
REMARK    9  A    between atoms: O_27  and  C_28
REMARK                            x       y       z     vdW  Elec       q    Type
REMARK                         _______ _______ _______ _____ _____    ______ ____
ROOT
ATOM      1  C   UNL     1       2.685  -2.648   4.298  0.00  0.00    -0.020 C 
ENDROOT
BRANCH   1  11
ATOM      2  C   UNL     1       0.066  -0.980  -1.203  0.00  0.00    +0.129 C 
ATOM      3  N   UNL     1       0.878  -0.047  -0.412  0.00  0.00    -0.333 N 
ATOM      4  C   UNL     1       0.166   1.214  -0.194  0.00  0.00    +0.105 C 
ATOM      5  C   UNL     1       1.047   2.135   0.659  0.00  0.00    +0.024 C 
ATOM      6  C   UNL     1       1.144   1.528   2.061  0.00  0.00    +0.038 C 
ATOM      7  C   UNL     1       1.459   0.058   1.957  0.00  0.00    -0.026 A 
ATOM      8  C   UNL     1       1.313  -0.642   0.771  0.00  0.00    +0.033 A 
ATOM      9  C   UNL     1       1.612  -2.005   0.739  0.00  0.00    +0.023 A 
ATOM     10  C   UNL     1       2.052  -2.650   1.875  0.00  0.00    +0.004 A 
ATOM     11  C   UNL     1       2.201  -1.946   3.055  0.00  0.00    -0.059 A 
ATOM     12  C   UNL     1       1.905  -0.597   3.094  0.00  0.00    +0.007 A 
ENDBRANCH   1  11
BRANCH   1  17
ATOM     13  C   UNL     1       2.084  -4.415   5.861  0.00  0.00    -0.078 C 
ATOM     14  C   UNL     1       0.872  -5.368   6.016  0.00  0.00    -0.020 C 
ATOM     15  C   UNL     1      -0.247  -4.631   5.246  0.00  0.00    -0.020 C 
ATOM     16  C   UNL     1       0.486  -3.682   4.280  0.00  0.00    -0.078 C 
ATOM     17  N   UNL     1       1.916  -3.915   4.487  0.00  0.00    +0.385 N 
ATOM     18  H   UNL     1       2.254  -4.617   3.819  0.00  0.00    -0.081 HD
ENDBRANCH   1  17
BRANCH   1  19
ATOM     19  C   UNL     1       4.176  -2.961   4.158  0.00  0.00    +0.094 C 
BRANCH  19  20
ATOM     20  N   UNL     1       4.701  -3.421   5.447  0.00  0.00    -0.309 N 
ATOM     21  C   UNL     1       5.955  -3.907   5.528  0.00  0.00    +0.299 C 
ATOM     22  O   UNL     1       6.649  -3.965   4.535  0.00  0.00    -0.265 OA
ATOM     23  H   UNL     1       4.146  -3.374   6.241  0.00  0.00    +0.149 HD
BRANCH  21  24
ATOM     24  C   UNL     1       6.490  -4.375   6.841  0.00  0.00    +0.303 C 
ATOM     25  O   UNL     1       5.796  -4.317   7.835  0.00  0.00    -0.265 OA
ATOM     26  N   UNL     1       7.745  -4.862   6.923  0.00  0.00    -0.275 N 
ATOM     27  H   UNL     1       8.325  -4.840   6.146  0.00  0.00    +0.155 HD
BRANCH  26  28
ATOM     28  C   UNL     1       8.210  -5.397   8.129  0.00  0.00    +0.076 A 
ATOM     29  C   UNL     1       7.311  -5.893   9.063  0.00  0.00    +0.027 A 
ATOM     30  C   UNL     1       7.773  -6.426  10.251  0.00  0.00    +0.002 A 
ATOM     31  C   UNL     1       9.130  -6.458  10.517  0.00  0.00    +0.004 A 
ATOM     32  C   UNL     1      10.031  -5.961   9.594  0.00  0.00    +0.047 A 
ATOM     33  C   UNL     1       9.577  -5.430   8.398  0.00  0.00    +0.141 A 
BRANCH  33  34
ATOM     34  O   UNL     1      10.462  -4.941   7.489  0.00  0.00    -0.493 OA
ATOM     35  C   UNL     1      11.848  -5.007   7.832  0.00  0.00    +0.277 C 
ENDBRANCH  33  34
ENDBRANCH  26  28
ENDBRANCH  21  24
ENDBRANCH  19  20
ENDBRANCH   1  19
TORSDOF 7
