REMARK  Name = ZINC16130921
REMARK  6 active torsions:
REMARK  status: ('A' for Active; 'I' for Inactive)
REMARK    1  A    between atoms: C_4  and  O_25
REMARK    2  A    between atoms: C_5  and  C_7
REMARK    3  A    between atoms: N_9  and  N_10
REMARK    4  A    between atoms: N_10  and  S_11
REMARK    5  A    between atoms: S_11  and  C_14
REMARK    6  A    between atoms: C_19  and  C_20
REMARK                            x       y       z     vdW  Elec       q    Type
REMARK                         _______ _______ _______ _____ _____    ______ ____
ROOT
ATOM      1  N   UNL     1      -0.080   0.023   4.933  0.00  0.00    -0.108 NA
ATOM      2  H   UNL     1       0.518   0.746   5.180  0.00  0.00    +0.172 HD
ENDROOT
BRANCH   1   5
ATOM      3  C   UNL     1       0.146   0.011   2.563  0.00  0.00    +0.262 C 
ATOM      4  O   UNL     1       0.100   1.226   2.564  0.00  0.00    -0.269 OA
ATOM      5  N   UNL     1       0.114  -0.666   3.729  0.00  0.00    -0.228 N 
ATOM      6  H   UNL     1       0.224  -1.630   3.733  0.00  0.00    +0.171 HD
BRANCH   3  11
ATOM      7  C   UNL     1       0.487  -2.790   0.088  0.00  0.00    +0.001 A 
ATOM      8  C   UNL     1       0.413  -2.103  -1.113  0.00  0.00    +0.004 A 
ATOM      9  C   UNL     1       0.247  -0.733  -1.124  0.00  0.00    +0.046 A 
ATOM     10  C   UNL     1       0.165  -0.032   0.070  0.00  0.00    +0.129 A 
ATOM     11  C   UNL     1       0.239  -0.723   1.287  0.00  0.00    +0.079 A 
ATOM     12  C   UNL     1       0.401  -2.111   1.284  0.00  0.00    +0.017 A 
BRANCH  10  13
ATOM     13  O   UNL     1       0.007   1.315   0.060  0.00  0.00    -0.506 OA
ATOM     14  H   UNL     1       0.839   1.809   0.062  0.00  0.00    +0.292 HD
ENDBRANCH  10  13
ENDBRANCH   3  11
ENDBRANCH   1   5
BRANCH   1  15
ATOM     15  S   UNL     1      -1.328  -0.398   5.936  0.00  0.00    +0.074 S 
ATOM     16  O   UNL     1      -1.108   0.280   7.166  0.00  0.00    -0.152 OA
ATOM     17  O   UNL     1      -2.524  -0.242   5.184  0.00  0.00    -0.152 OA
BRANCH  15  18
ATOM     18  C   UNL     1      -1.167  -2.119   6.275  0.00  0.00    +0.118 A 
ATOM     19  C   UNL     1      -2.121  -3.007   5.812  0.00  0.00    +0.030 A 
ATOM     20  C   UNL     1      -1.995  -4.357   6.077  0.00  0.00    +0.022 A 
ATOM     21  C   UNL     1      -0.914  -4.821   6.806  0.00  0.00    +0.042 A 
ATOM     22  C   UNL     1       0.039  -3.933   7.269  0.00  0.00    +0.034 A 
ATOM     23  C   UNL     1      -0.085  -2.583   6.999  0.00  0.00    +0.082 A 
ATOM     24 CL   UNL     1      -0.756  -6.518   7.140  0.00  0.00    -0.084 Cl
BRANCH  23  25
ATOM     25  C   UNL     1       0.958  -1.616   7.497  0.00  0.00    +0.419 C 
ATOM     26  F   UNL     1       2.008  -2.326   8.088  0.00  0.00    -0.166 F 
ATOM     27  F   UNL     1       1.448  -0.864   6.424  0.00  0.00    -0.166 F 
ATOM     28  F   UNL     1       0.385  -0.759   8.443  0.00  0.00    -0.166 F 
ENDBRANCH  23  25
ENDBRANCH  15  18
ENDBRANCH   1  15
TORSDOF 6
