REMARK  Name = ZINC40799867
REMARK  7 active torsions:
REMARK  status: ('A' for Active; 'I' for Inactive)
REMARK    1  A    between atoms: C_1  and  C_2
REMARK    2  A    between atoms: C_11  and  N_12
REMARK    3  A    between atoms: C_14  and  N_31
REMARK    4  A    between atoms: C_15  and  N_19
REMARK    5  A    between atoms: N_19  and  C_20
REMARK    6  A    between atoms: C_23  and  O_26
REMARK    7  A    between atoms: O_26  and  C_27
REMARK                            x       y       z     vdW  Elec       q    Type
REMARK                         _______ _______ _______ _____ _____    ______ ____
ROOT
ATOM      1  N   UNL     1       0.414  -4.879  -1.105  0.00  0.00    -0.297 N 
ATOM      2  C   UNL     1       0.537  -6.263  -1.065  0.00  0.00    +0.149 A 
ATOM      3  C   UNL     1       0.475  -7.015  -2.240  0.00  0.00    +0.106 A 
ATOM      4  C   UNL     1       0.604  -8.402  -2.143  0.00  0.00    +0.149 A 
ATOM      5  N   UNL     1       0.781  -8.950  -0.943  0.00  0.00    -0.219 NA
ATOM      6  C   UNL     1       0.834  -8.204   0.141  0.00  0.00    +0.225 A 
ATOM      7  N   UNL     1       0.721  -6.892   0.093  0.00  0.00    -0.219 NA
ATOM      8  H   UNL     1       0.202  -4.435  -1.941  0.00  0.00    +0.154 HD
ENDROOT
BRANCH   1  19
ATOM      9  C   UNL     1      -1.540   1.058   0.649  0.00  0.00    +0.063 C 
ATOM     10  C   UNL     1      -0.975  -0.329   0.477  0.00  0.00    +0.013 A 
ATOM     11  C   UNL     1      -1.204  -1.011  -0.715  0.00  0.00    +0.021 A 
ATOM     12  C   UNL     1      -0.699  -2.269  -0.888  0.00  0.00    +0.013 A 
ATOM     13  C   UNL     1       0.045  -2.836   0.161  0.00  0.00    +0.020 A 
ATOM     14  C   UNL     1       0.240  -2.088   1.348  0.00  0.00    +0.048 A 
ATOM     15  N   UNL     1      -0.277  -0.859   1.452  0.00  0.00    -0.358 N 
ATOM     16  C   UNL     1       0.983  -2.651   2.399  0.00  0.00    +0.026 A 
ATOM     17  C   UNL     1       1.506  -3.902   2.271  0.00  0.00    +0.004 A 
ATOM     18  C   UNL     1       1.319  -4.645   1.111  0.00  0.00    +0.024 A 
ATOM     19  C   UNL     1       0.597  -4.130   0.054  0.00  0.00    +0.042 A 
ATOM     20  H   UNL     1      -0.136  -0.351   2.266  0.00  0.00    +0.166 HD
ENDBRANCH   1  19
BRANCH   3  21
ATOM     21  N   UNL     1       0.287  -6.393  -3.485  0.00  0.00    -0.353 N 
ATOM     22  H   UNL     1       0.198  -5.429  -3.537  0.00  0.00    +0.143 HD
ATOM     23  H   UNL     1       0.245  -6.929  -4.293  0.00  0.00    +0.143 HD
ENDBRANCH   3  21
BRANCH   4  24
ATOM     24  N   UNL     1       0.549  -9.197  -3.282  0.00  0.00    -0.298 N 
ATOM     25  H   UNL     1       0.498  -8.786  -4.159  0.00  0.00    +0.154 HD
BRANCH  24  26
ATOM     26  C   UNL     1       0.567 -10.592  -3.163  0.00  0.00    +0.033 A 
ATOM     27  C   UNL     1       1.186 -11.364  -4.137  0.00  0.00    +0.027 A 
ATOM     28  C   UNL     1       1.203 -12.740  -4.018  0.00  0.00    +0.048 A 
ATOM     29  C   UNL     1       0.602 -13.351  -2.927  0.00  0.00    +0.130 A 
ATOM     30  C   UNL     1      -0.017 -12.579  -1.954  0.00  0.00    +0.048 A 
ATOM     31  C   UNL     1      -0.030 -11.203  -2.068  0.00  0.00    +0.027 A 
BRANCH  29  32
ATOM     32  O   UNL     1       0.619 -14.705  -2.812  0.00  0.00    -0.406 OA
BRANCH  32  33
ATOM     33  C   UNL     1      -0.020 -15.267  -1.663  0.00  0.00    +0.575 C 
ATOM     34  F   UNL     1      -1.371 -14.905  -1.658  0.00  0.00    -0.133 F 
ATOM     35  F   UNL     1       0.090 -16.661  -1.703  0.00  0.00    -0.133 F 
ATOM     36  F   UNL     1       0.597 -14.783  -0.504  0.00  0.00    -0.133 F 
ENDBRANCH  32  33
ENDBRANCH  29  32
ENDBRANCH  24  26
ENDBRANCH   4  24
TORSDOF 6
