REMARK  Name = ZINC13199558
REMARK  7 active torsions:
REMARK  status: ('A' for Active; 'I' for Inactive)
REMARK    1  A    between atoms: C_1  and  C_2
REMARK    2  A    between atoms: C_5  and  C_8
REMARK    3  A    between atoms: C_8  and  C_10
REMARK    4  A    between atoms: C_8  and  N_15
REMARK    5  A    between atoms: N_15  and  S_16
REMARK    6  A    between atoms: S_16  and  C_19
REMARK    7  A    between atoms: C_21  and  C_27
REMARK                            x       y       z     vdW  Elec       q    Type
REMARK                         _______ _______ _______ _____ _____    ______ ____
ROOT
ATOM      1  N   UNL     1      -1.276   6.977   1.472  0.00  0.00    -0.178 NA
ATOM      2  H   UNL     1      -1.838   6.724   2.221  0.00  0.00    +0.149 HD
ENDROOT
BRANCH   1   3
ATOM      3  S   UNL     1      -1.466   6.231   0.006  0.00  0.00    +0.061 S 
ATOM      4  O   UNL     1      -2.558   5.333   0.145  0.00  0.00    -0.153 OA
ATOM      5  O   UNL     1      -0.174   5.801  -0.401  0.00  0.00    -0.153 OA
BRANCH   3   6
ATOM      6  C   UNL     1      -1.972   7.465  -1.145  0.00  0.00    +0.124 A 
ATOM      7  C   UNL     1      -1.153   7.795  -2.204  0.00  0.00    +0.046 A 
ATOM      8  C   UNL     1      -1.553   8.777  -3.113  0.00  0.00    +0.083 A 
ATOM      9  C   UNL     1      -2.788   9.412  -2.948  0.00  0.00    +0.057 A 
ATOM     10  C   UNL     1      -3.600   9.068  -1.886  0.00  0.00    +0.042 A 
ATOM     11  C   UNL     1      -3.195   8.097  -0.987  0.00  0.00    +0.069 A 
ATOM     12 CL   UNL     1      -4.222   7.670   0.346  0.00  0.00    -0.081 Cl
ATOM     13 CL   UNL     1      -3.298  10.630  -4.075  0.00  0.00    -0.083 Cl
BRANCH   8  14
ATOM     14  C   UNL     1      -0.679   9.139  -4.246  0.00  0.00    +0.388 C 
ATOM     15  O   UNL     1      -1.032   9.990  -5.037  0.00  0.00    -0.241 OA
ATOM     16  O   UNL     1       0.510   8.525  -4.401  0.00  0.00    -0.241 OA
ENDBRANCH   8  14
ENDBRANCH   3   6
ENDBRANCH   1   3
BRANCH   1  17
ATOM     17  C   UNL     1      -0.259   8.018   1.639  0.00  0.00    +0.143 C 
BRANCH  17  22
ATOM     18  C   UNL     1      -2.235  12.082   5.241  0.00  0.00    +0.044 C 
ATOM     19  C   UNL     1      -1.719  11.022   4.302  0.00  0.00    -0.050 A 
ATOM     20  C   UNL     1      -0.993  11.384   3.183  0.00  0.00    +0.004 A 
ATOM     21  C   UNL     1      -0.521  10.412   2.321  0.00  0.00    +0.006 A 
ATOM     22  C   UNL     1      -0.774   9.078   2.578  0.00  0.00    -0.024 A 
ATOM     23  C   UNL     1      -1.504   8.716   3.695  0.00  0.00    +0.006 A 
ATOM     24  C   UNL     1      -1.972   9.687   4.559  0.00  0.00    +0.004 A 
ENDBRANCH  17  22
BRANCH  17  25
ATOM     25  C   UNL     1       0.996   7.408   2.208  0.00  0.00    +0.013 A 
ATOM     26  C   UNL     1       2.284   7.596   1.830  0.00  0.00    +0.013 A 
ATOM     27  C   UNL     1       3.286   6.926   2.507  0.00  0.00    +0.008 A 
ATOM     28  C   UNL     1       2.950   6.093   3.522  0.00  0.00    +0.045 A 
ATOM     29  S   UNL     1       1.171   6.245   3.551  0.00  0.00    -0.100 S 
ENDBRANCH  17  25
ENDBRANCH   1  17
TORSDOF 6
