REMARK  Name = ZINC31468886
REMARK  8 active torsions:
REMARK  status: ('A' for Active; 'I' for Inactive)
REMARK    1  A    between atoms: C_1  and  C_2
REMARK    2  A    between atoms: C_8  and  N_10
REMARK    3  A    between atoms: N_10  and  C_11
REMARK    4  A    between atoms: N_10  and  C_19
REMARK    5  A    between atoms: C_11  and  C_12
REMARK    6  A    between atoms: N_17  and  C_18
REMARK    7  A    between atoms: C_19  and  C_20
REMARK    8  A    between atoms: N_25  and  C_26
REMARK                            x       y       z     vdW  Elec       q    Type
REMARK                         _______ _______ _______ _____ _____    ______ ____
ROOT
ATOM      1  N   UNL     1       0.029  -0.032  -0.305  0.00  0.00    +0.393 N 
ATOM      2  H   UNL     1       0.778  -0.618   0.248  0.00  0.00    -0.080 HD
ENDROOT
BRANCH   1   9
ATOM      3  C   UNL     1      -1.883   0.945  -2.252  0.00  0.00    +0.006 C 
ATOM      4  C   UNL     1      -0.382   0.879  -2.541  0.00  0.00    -0.028 C 
ATOM      5  C   UNL     1      -0.159   0.636  -4.035  0.00  0.00    +0.002 C 
ATOM      6  C   UNL     1      -0.815  -0.686  -4.440  0.00  0.00    +0.000 C 
ATOM      7  C   UNL     1      -0.191  -1.830  -3.639  0.00  0.00    -0.002 C 
ATOM      8  C   UNL     1      -0.413  -1.587  -2.144  0.00  0.00    -0.015 C 
ATOM      9  C   UNL     1       0.242  -0.265  -1.740  0.00  0.00    -0.064 C 
ENDBRANCH   1   9
BRANCH   1  10
ATOM     10  C   UNL     1       0.224   1.384   0.033  0.00  0.00    +0.020 C 
BRANCH  10  11
ATOM     11  C   UNL     1       1.689   1.726  -0.062  0.00  0.00    +0.204 C 
ATOM     12  O   UNL     1       2.481   0.897  -0.457  0.00  0.00    -0.277 OA
ATOM     13  N   UNL     1       2.119   2.954   0.291  0.00  0.00    -0.242 N 
ATOM     14  C   UNL     1       3.429   3.259   0.206  0.00  0.00    +0.306 C 
ATOM     15  O   UNL     1       4.222   2.428  -0.190  0.00  0.00    -0.252 OA
ATOM     16  N   UNL     1       3.859   4.487   0.559  0.00  0.00    -0.302 N 
ATOM     17  C   UNL     1       5.282   4.819   0.466  0.00  0.00    +0.129 C 
ATOM     18  H   UNL     1       1.401   3.706   0.648  0.00  0.00    +0.159 HD
ATOM     19  H   UNL     1       3.140   5.239   0.916  0.00  0.00    +0.150 HD
ENDBRANCH  10  11
ENDBRANCH   1  10
BRANCH   1  20
ATOM     20  C   UNL     1      -1.302  -0.494   0.111  0.00  0.00    +0.020 C 
BRANCH  20  21
ATOM     21  C   UNL     1      -1.253  -1.972   0.400  0.00  0.00    +0.204 C 
ATOM     22  O   UNL     1      -0.193  -2.560   0.376  0.00  0.00    -0.277 OA
ATOM     23  N   UNL     1      -2.388  -2.641   0.686  0.00  0.00    -0.242 N 
ATOM     24  C   UNL     1      -2.344  -3.963   0.944  0.00  0.00    +0.306 C 
ATOM     25  O   UNL     1      -1.282  -4.552   0.920  0.00  0.00    -0.252 OA
ATOM     26  N   UNL     1      -3.479  -4.631   1.230  0.00  0.00    -0.302 N 
ATOM     27  C   UNL     1      -3.432  -6.068   1.511  0.00  0.00    +0.129 C 
ATOM     28  H   UNL     1      -3.350  -2.107   0.708  0.00  0.00    +0.159 HD
ATOM     29  H   UNL     1      -4.441  -4.098   1.252  0.00  0.00    +0.150 HD
ENDBRANCH  20  21
ENDBRANCH   1  20
TORSDOF 5
