REMARK  Name = ZINC64885787
REMARK  9 active torsions:
REMARK  status: ('A' for Active; 'I' for Inactive)
REMARK    1  A    between atoms: C_1  and  C_2
REMARK    2  A    between atoms: C_2  and  C_3
REMARK    3  A    between atoms: C_2  and  N_18
REMARK    4  A    between atoms: N_5  and  N_6
REMARK    5  A    between atoms: N_9  and  C_10
REMARK    6  A    between atoms: C_10  and  C_11
REMARK    7  A    between atoms: C_11  and  C_12
REMARK    8  A    between atoms: C_12  and  N_13
REMARK    9  A    between atoms: C_19  and  C_21
REMARK                            x       y       z     vdW  Elec       q    Type
REMARK                         _______ _______ _______ _____ _____    ______ ____
ROOT
ATOM      1  C   UNL     1       0.731  -0.503   1.223  0.00  0.00    +0.249 C 
ATOM      2  O   UNL     1       1.725  -1.187   1.099  0.00  0.00    -0.272 OA
ATOM      3  N   UNL     1       0.278  -0.191   2.453  0.00  0.00    -0.232 N 
ATOM      4  H   UNL     1      -0.517   0.356   2.553  0.00  0.00    +0.173 HD
ENDROOT
BRANCH   3   5
ATOM      5  N   UNL     1       0.955  -0.655   3.588  0.00  0.00    -0.218 N 
ATOM      6  C   UNL     1       0.502  -0.342   4.818  0.00  0.00    +0.316 C 
ATOM      7  O   UNL     1       1.090  -0.745   5.803  0.00  0.00    -0.251 OA
ATOM      8  N   UNL     1      -0.603   0.417   4.957  0.00  0.00    -0.298 N 
ATOM      9  H   UNL     1       1.751  -1.201   3.489  0.00  0.00    +0.174 HD
ATOM     10  H   UNL     1      -1.072   0.739   4.171  0.00  0.00    +0.150 HD
BRANCH   8  11
ATOM     11  C   UNL     1      -1.095   0.757   6.294  0.00  0.00    +0.107 C 
BRANCH  11  12
ATOM     12  C   UNL     1      -2.352   1.621   6.170  0.00  0.00    +0.040 C 
BRANCH  12  13
ATOM     13  C   UNL     1      -2.867   1.976   7.567  0.00  0.00    +0.124 C 
BRANCH  13  14
ATOM     14  N   UNL     1      -4.070   2.802   7.448  0.00  0.00    -0.338 N 
ATOM     15  C   UNL     1      -4.114   4.168   7.375  0.00  0.00    +0.104 A 
ATOM     16  C   UNL     1      -5.412   4.512   7.275  0.00  0.00    +0.101 A 
ATOM     17  N   UNL     1      -6.141   3.387   7.286  0.00  0.00    -0.352 N 
ATOM     18  C   UNL     1      -5.344   2.358   7.384  0.00  0.00    +0.173 A 
ATOM     19  H   UNL     1      -7.108   3.344   7.226  0.00  0.00    +0.166 HD
ENDBRANCH  13  14
ENDBRANCH  12  13
ENDBRANCH  11  12
ENDBRANCH   8  11
ENDBRANCH   3   5
BRANCH   1  21
ATOM     20  C   UNL     1      -0.019   1.526   0.010  0.00  0.00    +0.038 C 
ATOM     21  C   UNL     1       0.002  -0.004   0.002  0.00  0.00    +0.157 C 
BRANCH  21  22
ATOM     22  N   UNL     1       0.688  -0.476  -1.203  0.00  0.00    -0.304 N 
ATOM     23  C   UNL     1       0.006  -0.608  -2.358  0.00  0.00    +0.217 C 
ATOM     24  O   UNL     1      -1.175  -0.336  -2.400  0.00  0.00    -0.275 OA
ATOM     25  H   UNL     1       1.632  -0.695  -1.170  0.00  0.00    +0.149 HD
BRANCH  23  26
ATOM     26  C   UNL     1       0.712  -1.094  -3.598  0.00  0.00    +0.075 C 
ATOM     27  C   UNL     1       1.849  -0.133  -3.948  0.00  0.00    +0.013 C 
ATOM     28  C   UNL     1       2.565  -0.626  -5.207  0.00  0.00    +0.001 C 
ATOM     29  C   UNL     1       1.572  -0.685  -6.369  0.00  0.00    +0.000 C 
ATOM     30  C   UNL     1       0.434  -1.646  -6.019  0.00  0.00    +0.001 C 
ATOM     31  C   UNL     1      -0.282  -1.153  -4.761  0.00  0.00    +0.013 C 
ENDBRANCH  23  26
ENDBRANCH  21  22
ENDBRANCH   1  21
TORSDOF 8
