REMARK  Name = ZINC67631962
REMARK  10 active torsions:
REMARK  status: ('A' for Active; 'I' for Inactive)
REMARK    1  A    between atoms: C_1  and  C_2
REMARK    2  A    between atoms: C_7  and  C_9
REMARK    3  A    between atoms: C_7  and  N_25
REMARK    4  A    between atoms: C_9  and  N_10
REMARK    5  A    between atoms: N_13  and  N_14
REMARK    6  A    between atoms: C_15  and  C_17
REMARK    7  A    between atoms: C_22  and  O_23
REMARK    8  A    between atoms: O_23  and  C_24
REMARK    9  A    between atoms: N_25  and  C_26
REMARK   10  A    between atoms: N_25  and  C_27
REMARK                            x       y       z     vdW  Elec       q    Type
REMARK                         _______ _______ _______ _____ _____    ______ ____
ROOT
ATOM      1  N   UNL     1       2.821  -1.812  -0.209  0.00  0.00    -0.300 N 
ATOM      2  C   UNL     1       3.509  -1.953  -1.359  0.00  0.00    +0.316 C 
ATOM      3  O   UNL     1       2.942  -2.340  -2.363  0.00  0.00    -0.251 OA
ATOM      4  N   UNL     1       4.825  -1.667  -1.397  0.00  0.00    -0.218 N 
ATOM      5  H   UNL     1       3.273  -1.504   0.592  0.00  0.00    +0.150 HD
ATOM      6  H   UNL     1       5.320  -1.768  -2.225  0.00  0.00    +0.174 HD
ENDROOT
BRANCH   4   7
ATOM      7  N   UNL     1       5.479  -1.222  -0.240  0.00  0.00    -0.229 N 
ATOM      8  C   UNL     1       6.795  -0.935  -0.278  0.00  0.00    +0.264 C 
ATOM      9  O   UNL     1       7.415  -1.062  -1.315  0.00  0.00    -0.269 OA
ATOM     10  H   UNL     1       4.983  -1.120   0.588  0.00  0.00    +0.173 HD
BRANCH   8  11
ATOM     11  C   UNL     1       7.483  -0.466   0.941  0.00  0.00    +0.080 A 
ATOM     12  C   UNL     1       6.775  -0.324   2.137  0.00  0.00    +0.017 A 
ATOM     13  C   UNL     1       7.423   0.114   3.271  0.00  0.00    +0.001 A 
ATOM     14  C   UNL     1       8.775   0.414   3.231  0.00  0.00    +0.004 A 
ATOM     15  C   UNL     1       9.487   0.278   2.056  0.00  0.00    +0.046 A 
ATOM     16  C   UNL     1       8.851  -0.167   0.906  0.00  0.00    +0.132 A 
BRANCH  16  17
ATOM     17  O   UNL     1       9.550  -0.306  -0.248  0.00  0.00    -0.494 OA
ATOM     18  C   UNL     1      10.942   0.018  -0.207  0.00  0.00    +0.277 C 
ENDBRANCH  16  17
ENDBRANCH   8  11
ENDBRANCH   4   7
BRANCH   1  19
ATOM     19  C   UNL     1       1.390  -2.124  -0.168  0.00  0.00    +0.094 C 
BRANCH  19  25
ATOM     20  C   UNL     1       0.315   1.904   0.992  0.00  0.00    +0.007 C 
ATOM     21  C   UNL     1       0.182   0.424   0.627  0.00  0.00    -0.015 C 
ATOM     22  C   UNL     1      -1.290   0.013   0.691  0.00  0.00    +0.003 C 
ATOM     23  C   UNL     1      -1.422  -1.467   0.326  0.00  0.00    -0.001 C 
ATOM     24  C   UNL     1      -0.613  -2.310   1.314  0.00  0.00    -0.010 C 
ATOM     25  C   UNL     1       0.859  -1.899   1.249  0.00  0.00    -0.050 C 
ATOM     26  C   UNL     1       0.992  -0.419   1.614  0.00  0.00    -0.007 C 
BRANCH  25  27
ATOM     27  N   UNL     1       1.636  -2.708   2.197  0.00  0.00    +0.381 N 
ATOM     28  C   UNL     1       1.078  -2.551   3.547  0.00  0.00    -0.096 C 
ATOM     29  C   UNL     1       1.572  -4.122   1.802  0.00  0.00    -0.096 C 
ATOM     30  H   UNL     1       2.597  -2.401   2.193  0.00  0.00    -0.082 HD
ENDBRANCH  25  27
ENDBRANCH  19  25
ENDBRANCH   1  19
TORSDOF 6
