REMARK  Name = ZINC50541559
REMARK  9 active torsions:
REMARK  status: ('A' for Active; 'I' for Inactive)
REMARK    1  A    between atoms: C_1  and  C_2
REMARK    2  A    between atoms: C_2  and  N_3
REMARK    3  A    between atoms: C_5  and  C_8
REMARK    4  A    between atoms: C_8  and  C_9
REMARK    5  A    between atoms: C_9  and  N_21
REMARK    6  A    between atoms: C_11  and  C_20
REMARK    7  A    between atoms: C_15  and  C_17
REMARK    8  A    between atoms: C_17  and  C_18
REMARK    9  A    between atoms: C_17  and  C_19
REMARK                            x       y       z     vdW  Elec       q    Type
REMARK                         _______ _______ _______ _____ _____    ______ ____
ROOT
ATOM      1  C   UNL     1      -4.423  -3.774  -0.889  0.00  0.00    -0.064 C 
ATOM      2  C   UNL     1      -4.823  -3.490   0.552  0.00  0.00    -0.009 C 
ATOM      3  C   UNL     1      -4.708  -4.683   1.485  0.00  0.00    -0.015 C 
ATOM      4  C   UNL     1      -5.346  -5.936   0.896  0.00  0.00    +0.003 C 
ATOM      5  C   UNL     1      -4.776  -6.226  -0.490  0.00  0.00    +0.003 C 
ATOM      6  C   UNL     1      -5.078  -5.048  -1.415  0.00  0.00    -0.020 C 
ATOM      7  C   UNL     1      -3.265  -4.949   1.901  0.00  0.00    +0.007 C 
ENDROOT
BRANCH   1   8
ATOM      8  N   UNL     1      -2.965  -3.859  -1.032  0.00  0.00    +0.382 N 
ATOM      9  H   UNL     1      -2.533  -3.085  -0.548  0.00  0.00    -0.089 HD
ATOM     10  H   UNL     1      -2.638  -4.727  -0.636  0.00  0.00    -0.089 HD
ATOM     11  H   UNL     1      -2.720  -3.822  -2.010  0.00  0.00    -0.089 HD
ENDBRANCH   1   8
BRANCH   6  12
ATOM     12  C   UNL     1      -4.545  -5.353  -2.818  0.00  0.00    -0.015 C 
ATOM     13  C   UNL     1      -3.172  -6.020  -2.709  0.00  0.00    +0.007 C 
ATOM     14  C   UNL     1      -5.513  -6.294  -3.538  0.00  0.00    +0.007 C 
ENDBRANCH   6  12
BRANCH   1  15
ATOM     15  C   UNL     1      -4.910  -2.598  -1.761  0.00  0.00    +0.025 C 
BRANCH  15  18
ATOM     16  N   UNL     1      -2.888   0.348  -1.032  0.00  0.00    -0.271 N 
ATOM     17  C   UNL     1      -3.101  -0.801  -1.706  0.00  0.00    +0.111 A 
ATOM     18  C   UNL     1      -4.276  -1.319  -1.278  0.00  0.00    -0.011 A 
ATOM     19  C   UNL     1      -4.799  -0.456  -0.310  0.00  0.00    +0.138 A 
ATOM     20  N   UNL     1      -3.965   0.541  -0.157  0.00  0.00    -0.179 NA
BRANCH  16  22
ATOM     21  C   UNL     1      -2.214   2.652  -1.499  0.00  0.00    +0.029 C 
ATOM     22  C   UNL     1      -1.732   1.235  -1.184  0.00  0.00    +0.140 C 
ENDBRANCH  16  22
ENDBRANCH  15  18
ENDBRANCH   1  15
TORSDOF 5
