REMARK  Name = ZINC61752325
REMARK  4 active torsions:
REMARK  status: ('A' for Active; 'I' for Inactive)
REMARK    1  A    between atoms: C_1  and  N_2
REMARK    2  A    between atoms: C_6  and  O_9
REMARK    3  A    between atoms: O_9  and  C_10
REMARK    4  A    between atoms: C_13  and  N_17
REMARK                            x       y       z     vdW  Elec       q    Type
REMARK                         _______ _______ _______ _____ _____    ______ ____
ROOT
ATOM      1  C   UNL     1      -0.036  -4.245   2.135  0.00  0.00    +0.132 A 
ATOM      2  C   UNL     1       1.064  -4.980   1.715  0.00  0.00    +0.048 A 
ATOM      3  C   UNL     1       0.976  -6.353   1.603  0.00  0.00    +0.028 A 
ATOM      4  C   UNL     1      -0.213  -7.000   1.912  0.00  0.00    +0.043 A 
ATOM      5  C   UNL     1      -1.314  -6.265   2.333  0.00  0.00    +0.065 A 
ATOM      6  C   UNL     1      -1.223  -4.891   2.449  0.00  0.00    +0.068 A 
ATOM      7 CL   UNL     1      -2.802  -7.072   2.719  0.00  0.00    -0.082 Cl
ENDROOT
BRANCH   4   8
ATOM      8  N   UNL     1      -0.302  -8.393   1.798  0.00  0.00    -0.357 N 
ATOM      9  H   UNL     1       0.466  -8.906   1.504  0.00  0.00    +0.142 HD
ATOM     10  H   UNL     1      -1.133  -8.845   2.014  0.00  0.00    +0.142 HD
ENDBRANCH   4   8
BRANCH   1  11
ATOM     11  O   UNL     1       0.052  -2.893   2.245  0.00  0.00    -0.434 OA
BRANCH  11  17
ATOM     12  C   UNL     1      -0.094   1.465   0.022  0.00  0.00    +0.152 C 
ATOM     13  N   UNL     1      -0.074   0.000   0.011  0.00  0.00    -0.312 N 
ATOM     14  C   UNL     1      -0.109  -0.681  -1.169  0.00  0.00    +0.108 A 
ATOM     15  C   UNL     1      -0.090  -2.031  -1.189  0.00  0.00    +0.132 A 
ATOM     16  N   UNL     1      -0.038  -2.748  -0.067  0.00  0.00    -0.215 NA
ATOM     17  C   UNL     1      -0.001  -2.157   1.107  0.00  0.00    +0.287 A 
ATOM     18  C   UNL     1      -0.015  -0.693   1.170  0.00  0.00    +0.313 A 
ATOM     19  O   UNL     1       0.023  -0.114   2.242  0.00  0.00    -0.262 OA
ENDBRANCH  11  17
ENDBRANCH   1  11
TORSDOF 3
