REMARK  Name = ZINC47524872
REMARK  8 active torsions:
REMARK  status: ('A' for Active; 'I' for Inactive)
REMARK    1  A    between atoms: C_1  and  C_2
REMARK    2  A    between atoms: C_2  and  C_3
REMARK    3  A    between atoms: C_3  and  C_5
REMARK    4  A    between atoms: C_3  and  N_6
REMARK    5  A    between atoms: C_7  and  C_9
REMARK    6  A    between atoms: C_9  and  C_10
REMARK    7  A    between atoms: C_10  and  N_11
REMARK    8  A    between atoms: N_14  and  C_15
REMARK                            x       y       z     vdW  Elec       q    Type
REMARK                         _______ _______ _______ _____ _____    ______ ____
ROOT
ATOM      1  N   UNL     1      -6.323   0.799  -3.554  0.00  0.00    -0.299 N 
ATOM      2  C   UNL     1      -7.666   0.902  -3.590  0.00  0.00    +0.304 C 
ATOM      3  O   UNL     1      -8.320   0.675  -2.590  0.00  0.00    -0.253 OA
ATOM      4  N   UNL     1      -8.285   1.255  -4.734  0.00  0.00    -0.268 N 
ATOM      5  H   UNL     1      -5.801   0.980  -4.351  0.00  0.00    +0.150 HD
ATOM      6  H   UNL     1      -7.761   1.501  -5.512  0.00  0.00    +0.156 HD
ENDROOT
BRANCH   4   7
ATOM      7  C   UNL     1      -9.685   1.267  -4.799  0.00  0.00    +0.051 A 
ATOM      8  C   UNL     1     -10.440   1.642  -3.689  0.00  0.00    +0.028 A 
ATOM      9  C   UNL     1     -11.819   1.639  -3.799  0.00  0.00    +0.043 A 
ATOM     10  C   UNL     1     -12.402   1.265  -5.005  0.00  0.00    +0.099 A 
ATOM     11  N   UNL     1     -11.654   0.914  -6.038  0.00  0.00    -0.348 N 
ATOM     12  C   UNL     1     -10.336   0.911  -5.971  0.00  0.00    +0.107 A 
ATOM     13  N   UNL     1     -13.789   1.259  -5.125  0.00  0.00    -0.317 N 
ATOM     14  C   UNL     1     -14.743   1.628  -4.069  0.00  0.00    +0.106 C 
ATOM     15  C   UNL     1     -16.162   1.445  -4.649  0.00  0.00    +0.020 C 
ATOM     16  C   UNL     1     -15.936   0.443  -5.812  0.00  0.00    +0.020 C 
ATOM     17  C   UNL     1     -14.545   0.887  -6.336  0.00  0.00    +0.106 C 
ATOM     18  H   UNL     1     -12.085   0.657  -6.868  0.00  0.00    +0.167 HD
ENDBRANCH   4   7
BRANCH   1  19
ATOM     19  C   UNL     1      -5.651   0.415  -2.310  0.00  0.00    +0.115 C 
BRANCH  19  20
ATOM     20  C   UNL     1      -4.139   0.373  -2.539  0.00  0.00    +0.114 C 
BRANCH  20  22
ATOM     21  N   UNL     1      -2.104  -0.124  -1.224  0.00  0.00    -0.313 N 
ATOM     22  C   UNL     1      -3.447  -0.022  -1.260  0.00  0.00    +0.215 C 
ATOM     23  O   UNL     1      -4.100  -0.248  -0.263  0.00  0.00    -0.276 OA
ATOM     24  H   UNL     1      -1.582   0.056  -2.021  0.00  0.00    +0.149 HD
BRANCH  21  25
ATOM     25  C   UNL     1      -1.432  -0.509   0.020  0.00  0.00    +0.070 C 
ATOM     26  C   UNL     1      -1.405  -2.034   0.135  0.00  0.00    +0.028 C 
BRANCH  25  28
ATOM     27  C   UNL     1      -0.027   1.558   0.023  0.00  0.00    +0.005 C 
ATOM     28  C   UNL     1       0.001   0.028   0.012  0.00  0.00    +0.018 C 
ENDBRANCH  25  28
ENDBRANCH  21  25
ENDBRANCH  20  22
ENDBRANCH  19  20
ENDBRANCH   1  19
TORSDOF 6
