REMARK  Name = ZINC64114106
REMARK  11 active torsions:
REMARK  status: ('A' for Active; 'I' for Inactive)
REMARK    1  A    between atoms: C_1  and  C_2
REMARK    2  A    between atoms: C_5  and  C_8
REMARK    3  A    between atoms: C_8  and  C_9
REMARK    4  A    between atoms: C_8  and  N_24
REMARK    5  A    between atoms: C_9  and  N_10
REMARK    6  A    between atoms: N_10  and  C_11
REMARK    7  A    between atoms: C_13  and  N_21
REMARK    8  A    between atoms: C_15  and  S_17
REMARK    9  A    between atoms: S_17  and  N_20
REMARK   10  A    between atoms: N_24  and  C_25
REMARK   11  A    between atoms: N_24  and  C_26
REMARK                            x       y       z     vdW  Elec       q    Type
REMARK                         _______ _______ _______ _____ _____    ______ ____
ROOT
ATOM      1  N   UNL     1       1.831  -4.183  -1.454  0.00  0.00    -0.345 N 
ATOM      2  H   UNL     1       1.276  -3.740  -2.115  0.00  0.00    +0.146 HD
ENDROOT
BRANCH   1   3
ATOM      3  C   UNL     1       3.163  -4.481  -1.748  0.00  0.00    +0.031 A 
ATOM      4  C   UNL     1       3.958  -5.120  -0.804  0.00  0.00    +0.055 A 
ATOM      5  C   UNL     1       5.275  -5.414  -1.097  0.00  0.00    +0.130 A 
ATOM      6  C   UNL     1       5.804  -5.071  -2.328  0.00  0.00    +0.061 A 
ATOM      7  C   UNL     1       5.016  -4.433  -3.269  0.00  0.00    +0.109 A 
ATOM      8  C   UNL     1       3.696  -4.142  -2.985  0.00  0.00    +0.051 A 
BRANCH   7   9
ATOM      9  S   UNL     1       5.696  -3.998  -4.836  0.00  0.00    +0.056 S 
ATOM     10  O   UNL     1       4.910  -2.924  -5.334  0.00  0.00    -0.153 OA
ATOM     11  O   UNL     1       7.101  -3.894  -4.654  0.00  0.00    -0.153 OA
BRANCH   9  12
ATOM     12  N   UNL     1       5.443  -5.280  -5.853  0.00  0.00    -0.204 NA
ATOM     13  H   UNL     1       4.991  -6.075  -5.528  0.00  0.00    +0.144 HD
ATOM     14  H   UNL     1       5.748  -5.237  -6.772  0.00  0.00    +0.144 HD
ENDBRANCH   9  12
ENDBRANCH   7   9
BRANCH   5  15
ATOM     15  N   UNL     1       6.122  -6.095  -0.093  0.00  0.00    +0.057 N 
ATOM     16  O   UNL     1       5.660  -6.394   0.984  0.00  0.00    -0.126 OA
ATOM     17  O   UNL     1       7.275  -6.352  -0.349  0.00  0.00    -0.126 OA
ENDBRANCH   5  15
ENDBRANCH   1   3
BRANCH   1  18
ATOM     18  C   UNL     1       1.270  -4.540  -0.149  0.00  0.00    +0.091 C 
BRANCH  18  19
ATOM     19  C   UNL     1      -0.217  -4.182  -0.117  0.00  0.00    -0.021 C 
BRANCH  19  24
ATOM     20  C   UNL     1      -0.830   1.546  -0.581  0.00  0.00    +0.044 C 
ATOM     21  C   UNL     1      -0.670   0.052  -0.460  0.00  0.00    -0.050 A 
ATOM     22  C   UNL     1      -0.852  -0.754  -1.568  0.00  0.00    +0.003 A 
ATOM     23  C   UNL     1      -0.705  -2.125  -1.457  0.00  0.00    +0.002 A 
ATOM     24  C   UNL     1      -0.376  -2.688  -0.238  0.00  0.00    -0.059 A 
ATOM     25  C   UNL     1      -0.193  -1.881   0.870  0.00  0.00    +0.002 A 
ATOM     26  C   UNL     1      -0.335  -0.511   0.757  0.00  0.00    +0.003 A 
ENDBRANCH  19  24
BRANCH  19  27
ATOM     27  N   UNL     1      -0.802  -4.635   1.152  0.00  0.00    +0.382 N 
ATOM     28  C   UNL     1      -2.219  -4.250   1.202  0.00  0.00    -0.096 C 
ATOM     29  C   UNL     1      -0.689  -6.096   1.249  0.00  0.00    -0.096 C 
ATOM     30  H   UNL     1      -0.310  -4.207   1.922  0.00  0.00    -0.082 HD
ENDBRANCH  19  27
ENDBRANCH  18  19
ENDBRANCH   1  18
TORSDOF 8
