REMARK  Name = ZINC64144054
REMARK  6 active torsions:
REMARK  status: ('A' for Active; 'I' for Inactive)
REMARK    1  A    between atoms: C_1  and  N_2
REMARK    2  A    between atoms: C_4  and  C_8
REMARK    3  A    between atoms: N_10  and  C_11
REMARK    4  A    between atoms: C_11  and  C_12
REMARK    5  A    between atoms: C_12  and  C_14
REMARK    6  A    between atoms: C_12  and  C_19
REMARK                            x       y       z     vdW  Elec       q    Type
REMARK                         _______ _______ _______ _____ _____    ______ ____
ROOT
ATOM      1  C   UNL     1       3.587  -2.656   4.912  0.00  0.00    +0.071 C 
ENDROOT
BRANCH   1   2
ATOM      2  C   UNL     1       4.703  -3.321   5.676  0.00  0.00    -0.032 C 
ATOM      3  C   UNL     1       5.553  -2.735   6.550  0.00  0.00    -0.000 A 
ATOM      4  C   UNL     1       5.688  -1.355   7.031  0.00  0.00    +0.010 A 
ATOM      5  C   UNL     1       6.659  -1.065   7.926  0.00  0.00    +0.001 A 
ATOM      6  C   UNL     1       7.537  -2.046   8.405  0.00  0.00    +0.002 A 
ATOM      7  C   UNL     1       7.475  -3.336   8.010  0.00  0.00    +0.026 A 
ATOM      8  C   UNL     1       6.492  -3.753   7.071  0.00  0.00    +0.043 A 
ATOM      9  N   UNL     1       6.233  -4.924   6.540  0.00  0.00    -0.380 N 
ATOM     10  C   UNL     1       5.095  -4.781   5.626  0.00  0.00    +0.145 C 
ATOM     11  H   UNL     1       6.712  -5.747   6.725  0.00  0.00    +0.160 HD
ENDBRANCH   1   2
BRANCH   1  12
ATOM     12  C   UNL     1       2.274  -3.297   5.281  0.00  0.00    -0.002 A 
ATOM     13  C   UNL     1       1.173  -2.731   5.833  0.00  0.00    +0.012 A 
ATOM     14  C   UNL     1       0.068  -3.522   6.087  0.00  0.00    +0.008 A 
ATOM     15  C   UNL     1       0.119  -4.841   5.777  0.00  0.00    +0.045 A 
ATOM     16  S   UNL     1       1.762  -4.998   5.098  0.00  0.00    -0.101 S 
ENDBRANCH   1  12
BRANCH   1  17
ATOM     17  C   UNL     1       3.829  -2.819   3.410  0.00  0.00    +0.117 C 
BRANCH  17  20
ATOM     18  C   UNL     1       2.826  -2.070   1.320  0.00  0.00    +0.243 C 
ATOM     19  O   UNL     1       3.686  -2.689   0.720  0.00  0.00    -0.270 OA
ATOM     20  N   UNL     1       2.811  -2.072   2.668  0.00  0.00    -0.311 N 
ATOM     21  H   UNL     1       2.127  -1.578   3.146  0.00  0.00    +0.149 HD
BRANCH  18  25
ATOM     22  C   UNL     1      -0.018   1.465   0.010  0.00  0.00    +0.128 C 
ATOM     23  N   UNL     1       0.002  -0.004   0.002  0.00  0.00    -0.228 NA
ATOM     24  C   UNL     1       0.710  -0.530   1.186  0.00  0.00    +0.146 C 
ATOM     25  C   UNL     1       1.843  -1.349   0.603  0.00  0.00    +0.045 C 
ATOM     26  H   UNL     1       0.417  -0.286  -2.007  0.00  0.00    +0.166 HD
ATOM     27  C   UNL     1       1.727  -1.251  -0.736  0.00  0.00    +0.094 C 
ATOM     28  N   UNL     1       0.668  -0.478  -1.090  0.00  0.00    -0.284 N 
ENDBRANCH  18  25
ENDBRANCH  17  20
ENDBRANCH   1  17
TORSDOF 5
