REMARK  Name = ZINC42501466
REMARK  8 active torsions:
REMARK  status: ('A' for Active; 'I' for Inactive)
REMARK    1  A    between atoms: C_1  and  C_2
REMARK    2  A    between atoms: C_5  and  N_9
REMARK    3  A    between atoms: C_10  and  C_12
REMARK    4  A    between atoms: C_12  and  C_14
REMARK    5  A    between atoms: C_12  and  N_15
REMARK    6  A    between atoms: N_18  and  C_21
REMARK    7  A    between atoms: C_21  and  C_22
REMARK    8  A    between atoms: N_24  and  C_25
REMARK                            x       y       z     vdW  Elec       q    Type
REMARK                         _______ _______ _______ _____ _____    ______ ____
ROOT
ATOM      1  C   UNL     1      -0.134  -6.344  -1.194  0.00  0.00    +0.017 C 
ATOM      2  C   UNL     1       1.083  -6.886  -0.441  0.00  0.00    -0.004 C 
ENDROOT
BRANCH   1   3
ATOM      3  N   UNL     1      -0.112  -6.834  -2.579  0.00  0.00    +0.389 N 
ATOM      4  C   UNL     1      -1.313  -6.367  -3.282  0.00  0.00    -0.062 C 
ATOM      5  C   UNL     1      -1.281  -6.862  -4.730  0.00  0.00    +0.066 C 
ATOM      6  N   UNL     1      -1.225  -8.331  -4.742  0.00  0.00    -0.298 NA
ATOM      7  C   UNL     1      -0.040  -8.813  -4.019  0.00  0.00    +0.066 C 
ATOM      8  C   UNL     1      -0.082  -8.303  -2.577  0.00  0.00    -0.062 C 
ATOM      9  H   UNL     1       0.710  -6.482  -3.047  0.00  0.00    -0.081 HD
BRANCH   6  10
ATOM     10  C   UNL     1      -1.250  -8.847  -6.117  0.00  0.00    +0.180 C 
BRANCH  10  11
ATOM     11  C   UNL     1      -1.438 -10.342  -6.088  0.00  0.00    +0.227 C 
ATOM     12  O   UNL     1      -1.542 -10.920  -5.027  0.00  0.00    -0.274 OA
ATOM     13  N   UNL     1      -1.492 -11.037  -7.242  0.00  0.00    -0.317 N 
ATOM     14  C   UNL     1      -1.675 -12.490  -7.214  0.00  0.00    +0.128 C 
ATOM     15  H   UNL     1      -1.410 -10.575  -8.091  0.00  0.00    +0.148 HD
ENDBRANCH  10  11
ENDBRANCH   6  10
ENDBRANCH   1   3
BRANCH   1  17
ATOM     16  N   UNL     1      -0.651  -4.149  -0.177  0.00  0.00    -0.285 N 
ATOM     17  C   UNL     1      -0.095  -4.837  -1.194  0.00  0.00    +0.203 C 
ATOM     18  O   UNL     1       0.437  -4.245  -2.108  0.00  0.00    -0.277 OA
ATOM     19  H   UNL     1      -1.020  -4.622   0.585  0.00  0.00    +0.155 HD
BRANCH  16  24
ATOM     20  C   UNL     1      -0.833   1.521  -0.357  0.00  0.00    +0.044 C 
ATOM     21  C   UNL     1      -0.785   0.015  -0.309  0.00  0.00    -0.048 A 
ATOM     22  C   UNL     1       0.234  -0.663  -0.950  0.00  0.00    +0.005 A 
ATOM     23  C   UNL     1       0.282  -2.043  -0.908  0.00  0.00    +0.026 A 
ATOM     24  C   UNL     1      -0.696  -2.750  -0.221  0.00  0.00    +0.069 A 
ATOM     25  C   UNL     1      -1.720  -2.065   0.424  0.00  0.00    +0.145 A 
ATOM     26  C   UNL     1      -1.758  -0.683   0.382  0.00  0.00    +0.043 A 
ATOM     27  F   UNL     1      -2.674  -2.748   1.094  0.00  0.00    -0.204 F 
ENDBRANCH  16  24
ENDBRANCH   1  17
TORSDOF 5
