REMARK  Name = ZINC62097552
REMARK  8 active torsions:
REMARK  status: ('A' for Active; 'I' for Inactive)
REMARK    1  A    between atoms: C_1  and  C_2
REMARK    2  A    between atoms: C_2  and  C_3
REMARK    3  A    between atoms: C_2  and  C_4
REMARK    4  A    between atoms: C_2  and  N_5
REMARK    5  A    between atoms: N_5  and  C_6
REMARK    6  A    between atoms: C_6  and  C_7
REMARK    7  A    between atoms: N_15  and  S_18
REMARK    8  A    between atoms: S_18  and  C_21
REMARK                            x       y       z     vdW  Elec       q    Type
REMARK                         _______ _______ _______ _____ _____    ______ ____
ROOT
ATOM      1  C   UNL     1       2.773  -0.455  -2.457  0.00  0.00    -0.006 A 
ATOM      2  C   UNL     1       2.865   0.120  -3.680  0.00  0.00    +0.122 A 
ATOM      3  N   UNL     1       3.555  -0.531  -4.600  0.00  0.00    -0.233 NA
ATOM      4  C   UNL     1       4.124  -1.687  -4.330  0.00  0.00    +0.161 A 
ATOM      5  S   UNL     1       3.725  -1.944  -2.716  0.00  0.00    -0.059 S 
ATOM      6  N   UNL     1       4.875  -2.494  -5.171  0.00  0.00    -0.307 N 
ATOM      7  C   UNL     1       5.430  -3.766  -4.687  0.00  0.00    +0.124 C 
ATOM      8  C   UNL     1       4.958  -4.891  -5.617  0.00  0.00    +0.128 C 
ATOM      9  N   UNL     1       5.213  -4.490  -7.007  0.00  0.00    -0.178 NA
ATOM     10  C   UNL     1       4.658  -3.218  -7.491  0.00  0.00    +0.128 C 
ATOM     11  C   UNL     1       5.126  -2.096  -6.563  0.00  0.00    +0.124 C 
ENDROOT
BRANCH   9  12
ATOM     12  S   UNL     1       6.110  -5.454  -8.011  0.00  0.00    +0.029 S 
ATOM     13  O   UNL     1       6.662  -4.564  -8.971  0.00  0.00    -0.158 OA
ATOM     14  O   UNL     1       6.955  -6.196  -7.142  0.00  0.00    -0.158 OA
ATOM     15  C   UNL     1       4.904  -6.555  -8.801  0.00  0.00    +0.215 C 
ENDBRANCH   9  12
BRANCH   1  16
ATOM     16  C   UNL     1       2.068   0.031  -1.217  0.00  0.00    -0.037 C 
BRANCH  16  17
ATOM     17  N   UNL     1       0.690  -0.478  -1.207  0.00  0.00    +0.385 N 
ATOM     18  H   UNL     1       0.703  -1.487  -1.212  0.00  0.00    -0.085 HD
ATOM     19  H   UNL     1       0.202  -0.144  -2.024  0.00  0.00    -0.085 HD
BRANCH  17  21
ATOM     20  C   UNL     1      -0.019   1.526   0.010  0.00  0.00    -0.011 C 
ATOM     21  C   UNL     1       0.002  -0.004   0.002  0.00  0.00    -0.076 C 
ATOM     22  C   UNL     1       0.742  -0.511   1.242  0.00  0.00    -0.011 C 
ATOM     23  C   UNL     1      -1.433  -0.534   0.013  0.00  0.00    -0.011 C 
ENDBRANCH  17  21
ENDBRANCH  16  17
ENDBRANCH   1  16
TORSDOF 4
