REMARK  Name = ZINC40940661
REMARK  7 active torsions:
REMARK  status: ('A' for Active; 'I' for Inactive)
REMARK    1  A    between atoms: C_1  and  C_2
REMARK    2  A    between atoms: C_7  and  C_8
REMARK    3  A    between atoms: N_10  and  N_11
REMARK    4  A    between atoms: C_15  and  C_16
REMARK    5  A    between atoms: C_18  and  O_24
REMARK    6  A    between atoms: C_19  and  O_23
REMARK    7  A    between atoms: O_24  and  C_25
REMARK                            x       y       z     vdW  Elec       q    Type
REMARK                         _______ _______ _______ _____ _____    ______ ____
ROOT
ATOM      1  N   UNL     1       0.566  -0.616   5.268  0.00  0.00    -0.169 N 
ATOM      2  C   UNL     1       1.764  -0.289   5.722  0.00  0.00    +0.275 C 
ATOM      3  O   UNL     1       2.776  -0.800   5.280  0.00  0.00    -0.267 OA
ATOM      4  C   UNL     1       1.811   0.728   6.792  0.00  0.00    +0.079 C 
ATOM      5  C   UNL     1       2.882   1.253   7.440  0.00  0.00    +0.028 C 
ATOM      6  S   UNL     1       0.070   1.078   6.997  0.00  0.00    -0.059 S 
ATOM      7  C   UNL     1      -0.553  -0.044   5.756  0.00  0.00    +0.138 C 
ATOM      8  S   UNL     1      -2.179  -0.326   5.298  0.00  0.00    -0.026 S 
ENDROOT
BRANCH   5   9
ATOM      9  C   UNL     1       4.242   0.942   6.982  0.00  0.00    -0.019 A 
ATOM     10  C   UNL     1       4.513   0.829   5.613  0.00  0.00    +0.057 A 
ATOM     11  C   UNL     1       5.794   0.538   5.188  0.00  0.00    +0.163 A 
ATOM     12  C   UNL     1       6.815   0.356   6.121  0.00  0.00    +0.173 A 
ATOM     13  C   UNL     1       6.547   0.468   7.479  0.00  0.00    +0.063 A 
ATOM     14  C   UNL     1       5.273   0.764   7.912  0.00  0.00    +0.027 A 
ATOM     15 BR   UNL     1       7.937   0.219   8.737  0.00  0.00    -0.046 Br
BRANCH  12  16
ATOM     16  O   UNL     1       8.074   0.069   5.700  0.00  0.00    -0.503 OA
ATOM     17  H   UNL     1       8.624   0.849   5.543  0.00  0.00    +0.292 HD
ENDBRANCH  12  16
BRANCH  11  18
ATOM     18  O   UNL     1       6.061   0.427   3.859  0.00  0.00    -0.491 OA
ATOM     19  C   UNL     1       4.968   0.625   2.959  0.00  0.00    +0.277 C 
ENDBRANCH  11  18
ENDBRANCH   5   9
BRANCH   1  22
ATOM     20  C   UNL     1       0.181  -1.192   2.990  0.00  0.00    +0.261 C 
ATOM     21  O   UNL     1       0.026  -0.014   2.732  0.00  0.00    -0.269 OA
ATOM     22  N   UNL     1       0.457  -1.575   4.252  0.00  0.00    -0.222 N 
ATOM     23  H   UNL     1       0.580  -2.515   4.458  0.00  0.00    +0.174 HD
BRANCH  20  30
ATOM     24  C   UNL     1      -0.698  -0.391   0.353  0.00  0.00    +0.044 C 
ATOM     25  C   UNL     1      -0.356  -1.829   0.642  0.00  0.00    -0.038 A 
ATOM     26  C   UNL     1      -0.455  -2.778  -0.355  0.00  0.00    +0.004 A 
ATOM     27  C   UNL     1      -0.143  -4.099  -0.090  0.00  0.00    +0.000 A 
ATOM     28  C   UNL     1       0.271  -4.479   1.175  0.00  0.00    +0.001 A 
ATOM     29  C   UNL     1       0.374  -3.541   2.180  0.00  0.00    +0.013 A 
ATOM     30  C   UNL     1       0.066  -2.204   1.919  0.00  0.00    +0.041 A 
ENDBRANCH  20  30
ENDBRANCH   1  22
TORSDOF 5
