REMARK  Name = ZINC20636053
REMARK  6 active torsions:
REMARK  status: ('A' for Active; 'I' for Inactive)
REMARK    1  A    between atoms: C_1  and  C_2
REMARK    2  A    between atoms: C_2  and  C_3
REMARK    3  A    between atoms: C_2  and  C_4
REMARK    4  A    between atoms: C_5  and  C_16
REMARK    5  A    between atoms: C_9  and  C_14
REMARK    6  A    between atoms: C_10  and  N_13
REMARK                            x       y       z     vdW  Elec       q    Type
REMARK                         _______ _______ _______ _____ _____    ______ ____
ROOT
ATOM      1  C   UNL     1      -1.748   5.243   0.047  0.00  0.00    +0.076 A 
ATOM      2  C   UNL     1      -2.286   3.949   0.045  0.00  0.00    +0.050 A 
ATOM      3  C   UNL     1      -1.212   3.053   0.030  0.00  0.00    +0.166 A 
ATOM      4  N   UNL     1      -1.158   1.715   0.017  0.00  0.00    -0.234 NA
ATOM      5  C   UNL     1      -0.013   1.076   0.008  0.00  0.00    +0.135 A 
ATOM      6  C   UNL     1       1.200   1.797   0.000  0.00  0.00    +0.109 A 
ATOM      7  C   UNL     1       1.153   3.193   0.008  0.00  0.00    +0.139 A 
ATOM      8  N   UNL     1      -0.069   3.809   0.023  0.00  0.00    -0.199 N 
ATOM      9  N   UNL     1      -0.442   5.157   0.034  0.00  0.00    -0.167 NA
ENDROOT
BRANCH   2  10
ATOM     10  C   UNL     1      -3.725   3.595   0.057  0.00  0.00    -0.012 A 
ATOM     11  C   UNL     1      -4.515   3.913   1.161  0.00  0.00    +0.011 A 
ATOM     12  C   UNL     1      -5.855   3.586   1.165  0.00  0.00    +0.039 A 
ATOM     13  C   UNL     1      -6.415   2.933   0.078  0.00  0.00    +0.123 A 
ATOM     14  C   UNL     1      -5.633   2.612  -1.020  0.00  0.00    +0.039 A 
ATOM     15  C   UNL     1      -4.293   2.939  -1.035  0.00  0.00    +0.011 A 
ATOM     16  F   UNL     1      -7.726   2.611   0.089  0.00  0.00    -0.205 F 
ENDBRANCH   2  10
BRANCH   1  18
ATOM     17  C   UNL     1      -2.187   7.330   1.312  0.00  0.00    +0.014 C 
ATOM     18  C   UNL     1      -2.543   6.523   0.062  0.00  0.00    +0.034 C 
ATOM     19  C   UNL     1      -2.212   7.344  -1.186  0.00  0.00    +0.014 C 
ENDBRANCH   1  18
BRANCH   7  20
ATOM     20  N   UNL     1       2.307   3.932   0.001  0.00  0.00    -0.342 N 
ATOM     21  H   UNL     1       2.257   5.030   0.007  0.00  0.00    +0.144 HD
ATOM     22  H   UNL     1       3.284   3.425  -0.012  0.00  0.00    +0.144 HD
ENDBRANCH   7  20
BRANCH   6  23
ATOM     23  C   UNL     1       2.457   1.109  -0.015  0.00  0.00    +0.104 C 
ATOM     24  N   UNL     1       3.453   0.564  -0.027  0.00  0.00    -0.191 NA
ENDBRANCH   6  23
TORSDOF 4
