REMARK  Name = ZINC54909113
REMARK  6 active torsions:
REMARK  status: ('A' for Active; 'I' for Inactive)
REMARK    1  A    between atoms: C_1  and  C_2
REMARK    2  A    between atoms: C_2  and  C_3
REMARK    3  A    between atoms: C_2  and  C_4
REMARK    4  A    between atoms: C_4  and  N_5
REMARK    5  A    between atoms: N_5  and  C_6
REMARK    6  A    between atoms: C_6  and  C_7
REMARK                            x       y       z     vdW  Elec       q    Type
REMARK                         _______ _______ _______ _____ _____    ______ ____
ROOT
ATOM      1  C   UNL     1       4.263  -0.146  -2.369  0.00  0.00    -0.006 A 
ATOM      2  C   UNL     1       5.335  -0.800  -1.860  0.00  0.00    +0.122 A 
ATOM      3  N   UNL     1       6.506  -0.196  -1.951  0.00  0.00    -0.233 NA
ATOM      4  C   UNL     1       6.618   0.989  -2.513  0.00  0.00    +0.161 A 
ATOM      5  S   UNL     1       5.039   1.345  -2.973  0.00  0.00    -0.059 S 
ATOM      6  N   UNL     1       7.760   1.756  -2.688  0.00  0.00    -0.302 N 
ATOM      7  C   UNL     1       7.700   3.074  -3.338  0.00  0.00    +0.135 C 
ATOM      8  C   UNL     1       8.412   4.094  -2.443  0.00  0.00    +0.179 C 
ATOM      9  O   UNL     1       9.713   3.606  -2.107  0.00  0.00    -0.373 OA
ATOM     10  C   UNL     1       9.700   2.383  -1.370  0.00  0.00    +0.139 C 
ATOM     11  C   UNL     1       9.077   1.281  -2.223  0.00  0.00    +0.104 C 
ATOM     12  C   UNL     1       9.957   1.028  -3.450  0.00  0.00    +0.025 C 
ATOM     13  C   UNL     1      11.363   0.625  -3.005  0.00  0.00    +0.002 C 
ATOM     14  C   UNL     1      11.976   1.760  -2.180  0.00  0.00    +0.003 C 
ATOM     15  C   UNL     1      11.117   1.990  -0.964  0.00  0.00    +0.033 C 
ENDROOT
BRANCH   1  16
ATOM     16  C   UNL     1       2.816  -0.564  -2.418  0.00  0.00    -0.038 C 
BRANCH  16  17
ATOM     17  N   UNL     1       2.129  -0.090  -1.209  0.00  0.00    +0.382 N 
ATOM     18  H   UNL     1       2.187   0.916  -1.162  0.00  0.00    -0.085 HD
ATOM     19  H   UNL     1       2.567  -0.491  -0.394  0.00  0.00    -0.085 HD
BRANCH  17  20
ATOM     20  C   UNL     1       0.718  -0.497  -1.257  0.00  0.00    -0.079 C 
BRANCH  20  22
ATOM     21  C   UNL     1      -0.019   1.526   0.010  0.00  0.00    +0.005 C 
ATOM     22  C   UNL     1       0.002  -0.004   0.002  0.00  0.00    -0.034 C 
ATOM     23  C   UNL     1      -1.433  -0.534   0.013  0.00  0.00    +0.005 C 
ENDBRANCH  20  22
ENDBRANCH  17  20
ENDBRANCH  16  17
ENDBRANCH   1  16
TORSDOF 4
