REMARK  Name = ZINC66562048
REMARK  8 active torsions:
REMARK  status: ('A' for Active; 'I' for Inactive)
REMARK    1  A    between atoms: C_1  and  C_2
REMARK    2  A    between atoms: N_5  and  C_9
REMARK    3  A    between atoms: N_12  and  C_15
REMARK    4  A    between atoms: C_15  and  C_16
REMARK    5  A    between atoms: C_16  and  C_18
REMARK    6  A    between atoms: C_19  and  N_28
REMARK    7  A    between atoms: N_20  and  C_27
REMARK    8  A    between atoms: N_23  and  C_26
REMARK                            x       y       z     vdW  Elec       q    Type
REMARK                         _______ _______ _______ _____ _____    ______ ____
ROOT
ATOM      1  C   UNL     1       1.812  -4.741  -6.025  0.00  0.00    +0.002 C 
ENDROOT
BRANCH   1   5
ATOM      2  C   UNL     1       1.500  -2.506  -2.410  0.00  0.00    +0.053 C 
ATOM      3  C   UNL     1       0.683  -2.078  -3.633  0.00  0.00    +0.000 C 
ATOM      4  C   UNL     1       1.300  -2.691  -4.892  0.00  0.00    -0.077 C 
ATOM      5  N   UNL     1       1.290  -4.155  -4.782  0.00  0.00    +0.385 N 
ATOM      6  C   UNL     1       2.130  -4.576  -3.655  0.00  0.00    -0.077 C 
ATOM      7  C   UNL     1       1.545  -4.035  -2.348  0.00  0.00    +0.000 C 
ATOM      8  H   UNL     1       0.345  -4.474  -4.634  0.00  0.00    -0.081 HD
BRANCH   2  12
ATOM      9  C   UNL     1       0.098   1.514   0.060  0.00  0.00    +0.039 C 
ATOM     10  C   UNL     1       0.093  -0.016   0.041  0.00  0.00    +0.129 C 
ATOM     11  C   UNL     1       0.809  -0.514  -1.217  0.00  0.00    +0.116 C 
ATOM     12  N   UNL     1       0.869  -1.983  -1.191  0.00  0.00    -0.295 NA
ATOM     13  C   UNL     1       1.573  -2.454   0.010  0.00  0.00    +0.113 C 
ATOM     14  C   UNL     1       0.849  -1.937   1.256  0.00  0.00    +0.175 C 
ATOM     15  O   UNL     1       0.772  -0.509   1.199  0.00  0.00    -0.374 OA
ENDBRANCH   2  12
ENDBRANCH   1   5
BRANCH   1  16
ATOM     16  C   UNL     1       1.688  -6.242  -5.963  0.00  0.00    +0.155 C 
ATOM     17  O   UNL     1       1.212  -6.772  -4.979  0.00  0.00    -0.294 OA
BRANCH  16  18
ATOM     18  C   UNL     1       2.126  -7.031  -7.048  0.00  0.00    +0.118 A 
ATOM     19  C   UNL     1       2.135  -8.434  -6.967  0.00  0.00    +0.116 A 
ATOM     20  N   UNL     1       2.567  -9.155  -8.043  0.00  0.00    -0.284 N 
ATOM     21  C   UNL     1       2.980  -8.550  -9.168  0.00  0.00    +0.333 A 
ATOM     22  O   UNL     1       3.355  -9.237 -10.098  0.00  0.00    -0.246 OA
ATOM     23  N   UNL     1       2.994  -7.214  -9.303  0.00  0.00    -0.263 N 
ATOM     24  C   UNL     1       2.581  -6.413  -8.300  0.00  0.00    +0.269 A 
ATOM     25  O   UNL     1       2.590  -5.202  -8.427  0.00  0.00    -0.267 OA
ATOM     26  C   UNL     1       3.458  -6.620 -10.559  0.00  0.00    +0.157 C 
ATOM     27  C   UNL     1       2.579 -10.618  -7.969  0.00  0.00    +0.155 C 
BRANCH  19  28
ATOM     28  N   UNL     1       1.720  -9.064  -5.834  0.00  0.00    -0.344 N 
ATOM     29  H   UNL     1       1.342  -8.550  -5.104  0.00  0.00    +0.144 HD
ATOM     30  H   UNL     1       1.802 -10.027  -5.757  0.00  0.00    +0.144 HD
ENDBRANCH  19  28
ENDBRANCH  16  18
ENDBRANCH   1  16
TORSDOF 5
