REMARK  Name = ZINC11842023
REMARK  10 active torsions:
REMARK  status: ('A' for Active; 'I' for Inactive)
REMARK    1  A    between atoms: C_1  and  C_2
REMARK    2  A    between atoms: C_2  and  C_3
REMARK    3  A    between atoms: C_2  and  C_4
REMARK    4  A    between atoms: C_2  and  C_25
REMARK    5  A    between atoms: C_4  and  N_5
REMARK    6  A    between atoms: C_6  and  C_8
REMARK    7  A    between atoms: C_8  and  C_9
REMARK    8  A    between atoms: C_16  and  C_17
REMARK    9  A    between atoms: C_16  and  N_51
REMARK   10  A    between atoms: C_25  and  O_26
REMARK                            x       y       z     vdW  Elec       q    Type
REMARK                         _______ _______ _______ _____ _____    ______ ____
ROOT
ATOM      1  C   UNL     1      -0.715   1.539   1.277  0.00  0.00    +0.028 C 
ATOM      2  C   UNL     1       0.031   1.028   2.476  0.00  0.00    +0.200 C 
ATOM      3  O   UNL     1       0.429  -0.117   2.468  0.00  0.00    -0.278 OA
ATOM      4  N   UNL     1       0.275   1.784   3.552  0.00  0.00    -0.318 N 
ATOM      5  C   UNL     1      -0.130   3.183   3.648  0.00  0.00    +0.085 C 
ATOM      6  C   UNL     1      -1.208   3.490   2.607  0.00  0.00    -0.058 C 
ATOM      7  H   UNL     1       0.741   1.384   4.303  0.00  0.00    +0.149 HD
ATOM      8  N   UNL     1      -0.726   3.014   1.295  0.00  0.00    +0.391 N 
ATOM      9  H   UNL     1       0.230   3.358   1.144  0.00  0.00    -0.080 HD
ENDROOT
BRANCH   1  10
ATOM     10  C   UNL     1      -0.016   1.062   0.002  0.00  0.00    +0.089 C 
BRANCH  10  12
ATOM     11  N   UNL     1       2.240   1.211  -1.003  0.00  0.00    -0.315 N 
ATOM     12  C   UNL     1       1.392   1.599  -0.029  0.00  0.00    +0.212 C 
ATOM     13  O   UNL     1       1.763   2.378   0.823  0.00  0.00    -0.276 OA
ATOM     14  H   UNL     1       1.943   0.588  -1.684  0.00  0.00    +0.149 HD
BRANCH  11  15
ATOM     15  C   UNL     1       3.608   1.732  -1.032  0.00  0.00    +0.112 C 
BRANCH  15  17
ATOM     16  C   UNL     1       4.391  -0.385  -2.103  0.00  0.00    +0.015 C 
ATOM     17  C   UNL     1       4.354   1.139  -2.230  0.00  0.00    +0.004 C 
ATOM     18  C   UNL     1       3.633   1.526  -3.522  0.00  0.00    +0.015 C 
BRANCH  17  19
ATOM     19  C   UNL     1       5.784   1.684  -2.261  0.00  0.00    +0.163 C 
BRANCH  19  20
ATOM     20  O   UNL     1       6.480   1.129  -3.379  0.00  0.00    -0.394 OA
ATOM     21  H   UNL     1       7.395   1.431  -3.461  0.00  0.00    +0.209 HD
ENDBRANCH  19  20
ENDBRANCH  17  19
ENDBRANCH  15  17
ENDBRANCH  11  15
ENDBRANCH  10  12
ENDBRANCH   1  10
BRANCH   8  22
ATOM     22  C   UNL     1      -1.599   3.528   0.215  0.00  0.00    -0.037 C 
BRANCH  22  23
ATOM     23  C   UNL     1      -1.333   5.000   0.031  0.00  0.00    -0.010 A 
ATOM     24  C   UNL     1      -2.072   5.931   0.741  0.00  0.00    +0.126 A 
ATOM     25  C   UNL     1      -1.822   7.283   0.575  0.00  0.00    +0.038 A 
ATOM     26  C   UNL     1      -0.844   7.702  -0.307  0.00  0.00    +0.004 A 
ATOM     27  C   UNL     1      -0.111   6.772  -1.020  0.00  0.00    +0.020 A 
ATOM     28  C   UNL     1      -0.355   5.421  -0.851  0.00  0.00    +0.045 A 
ATOM     29 CL   UNL     1       0.567   4.254  -1.746  0.00  0.00    -0.083 Cl
ATOM     30  F   UNL     1      -3.032   5.522   1.598  0.00  0.00    -0.205 F 
ENDBRANCH  22  23
ENDBRANCH   8  22
TORSDOF 8
