REMARK  Name = ZINC65074801
REMARK  4 active torsions:
REMARK  status: ('A' for Active; 'I' for Inactive)
REMARK    1  A    between atoms: C_3  and  C_8
REMARK    2  A    between atoms: C_8  and  N_9
REMARK    3  A    between atoms: N_18  and  S_21
REMARK    4  A    between atoms: S_21  and  C_24
REMARK                            x       y       z     vdW  Elec       q    Type
REMARK                         _______ _______ _______ _____ _____    ______ ____
ROOT
ATOM      1  N   UNL     1       4.104   2.429   1.357  0.00  0.00    -0.329 N 
ATOM      2  C   UNL     1       5.262   3.119   1.600  0.00  0.00    +0.089 C 
ATOM      3  N   UNL     1       5.938   3.539   0.598  0.00  0.00    -0.374 N 
ATOM      4  C   UNL     1       7.192   4.276   0.717  0.00  0.00    +0.129 C 
ATOM      5  C   UNL     1       7.348   4.823   2.137  0.00  0.00    +0.102 C 
ATOM      6  N   UNL     1       7.087   3.730   3.090  0.00  0.00    -0.303 NA
ATOM      7  C   UNL     1       5.668   3.345   3.029  0.00  0.00    +0.075 C 
ATOM      8  C   UNL     1       5.462   2.058   3.832  0.00  0.00    +0.047 C 
ATOM      9  C   UNL     1       5.915   2.284   5.277  0.00  0.00    +0.111 C 
ATOM     10  N   UNL     1       5.205   3.451   5.818  0.00  0.00    -0.176 NA
ATOM     11  C   UNL     1       5.258   4.718   5.076  0.00  0.00    +0.111 C 
ATOM     12  C   UNL     1       4.812   4.463   3.633  0.00  0.00    +0.047 C 
ATOM     13  H   UNL     1       3.570   2.102   2.098  0.00  0.00    +0.147 HD
ATOM     14  H   UNL     1       7.688   2.940   2.906  0.00  0.00    +0.123 HD
ATOM     15  H   UNL     1       5.596   3.358  -0.291  0.00  0.00    +0.161 HD
ENDROOT
BRANCH  10  16
ATOM     16  S   UNL     1       4.359   3.340   7.238  0.00  0.00    +0.061 S 
ATOM     17  O   UNL     1       3.376   4.367   7.206  0.00  0.00    -0.153 OA
ATOM     18  O   UNL     1       4.023   1.969   7.404  0.00  0.00    -0.153 OA
BRANCH  16  19
ATOM     19  C   UNL     1       5.472   3.748   8.541  0.00  0.00    +0.106 A 
ATOM     20  C   UNL     1       6.225   2.759   9.145  0.00  0.00    +0.029 A 
ATOM     21  C   UNL     1       7.093   3.086  10.167  0.00  0.00    +0.006 A 
ATOM     22  C   UNL     1       7.217   4.402  10.593  0.00  0.00    -0.044 A 
ATOM     23  C   UNL     1       6.471   5.388   9.988  0.00  0.00    -0.042 A 
ATOM     24  C   UNL     1       5.599   5.057   8.958  0.00  0.00    +0.032 A 
ATOM     25  C   UNL     1       6.566   6.837  10.387  0.00  0.00    +0.035 C 
ATOM     26  C   UNL     1       7.212   6.974  11.764  0.00  0.00    +0.005 C 
ATOM     27  C   UNL     1       8.520   6.175  11.767  0.00  0.00    +0.005 C 
ATOM     28  C   UNL     1       8.177   4.687  11.718  0.00  0.00    +0.035 C 
ENDBRANCH  16  19
ENDBRANCH  10  16
BRANCH   1  29
ATOM     29  C   UNL     1       3.672   2.186  -0.021  0.00  0.00    +0.138 C 
BRANCH  29  32
ATOM     30  C   UNL     1      -0.017   1.377   0.010  0.00  0.00    +0.003 A 
ATOM     31  C   UNL     1       1.171   2.086   0.002  0.00  0.00    +0.005 A 
ATOM     32  C   UNL     1       2.378   1.413  -0.013  0.00  0.00    -0.028 A 
ATOM     33  C   UNL     1       2.399   0.030  -0.021  0.00  0.00    +0.043 A 
ATOM     34  C   UNL     1       1.211  -0.679  -0.013  0.00  0.00    +0.124 A 
ATOM     35  C   UNL     1       0.002  -0.004   0.002  0.00  0.00    +0.038 A 
ATOM     36  F   UNL     1       1.230  -2.030  -0.022  0.00  0.00    -0.205 F 
ENDBRANCH  29  32
ENDBRANCH   1  29
TORSDOF 4
