REMARK  Name = ZINC63133572
REMARK  8 active torsions:
REMARK  status: ('A' for Active; 'I' for Inactive)
REMARK    1  A    between atoms: C_1  and  N_2
REMARK    2  A    between atoms: N_2  and  C_3
REMARK    3  A    between atoms: N_2  and  C_22
REMARK    4  A    between atoms: C_3  and  C_4
REMARK    5  A    between atoms: C_4  and  C_5
REMARK    6  A    between atoms: C_5  and  N_6
REMARK    7  A    between atoms: N_9  and  N_10
REMARK    8  A    between atoms: C_11  and  C_13
REMARK                            x       y       z     vdW  Elec       q    Type
REMARK                         _______ _______ _______ _____ _____    ______ ____
ROOT
ATOM      1  N   UNL     1      -2.761  -2.058   3.476  0.00  0.00    -0.298 N 
ATOM      2  C   UNL     1      -2.987  -2.729   4.622  0.00  0.00    +0.316 C 
ATOM      3  O   UNL     1      -2.051  -3.116   5.295  0.00  0.00    -0.251 OA
ATOM      4  N   UNL     1      -4.251  -2.974   5.022  0.00  0.00    -0.218 N 
ATOM      5  H   UNL     1      -3.508  -1.750   2.939  0.00  0.00    +0.150 HD
ATOM      6  H   UNL     1      -4.414  -3.457   5.847  0.00  0.00    +0.174 HD
ENDROOT
BRANCH   4   7
ATOM      7  N   UNL     1      -5.330  -2.529   4.246  0.00  0.00    -0.229 N 
ATOM      8  C   UNL     1      -6.593  -2.773   4.646  0.00  0.00    +0.259 C 
ATOM      9  O   UNL     1      -6.798  -3.379   5.681  0.00  0.00    -0.269 OA
ATOM     10  H   UNL     1      -5.167  -2.045   3.421  0.00  0.00    +0.173 HD
BRANCH   8  11
ATOM     11  C   UNL     1      -7.722  -2.307   3.834  0.00  0.00    +0.044 C 
ATOM     12  C   UNL     1      -9.064  -2.469   4.103  0.00  0.00    +0.008 A 
ATOM     13  C   UNL     1      -9.765  -3.089   5.168  0.00  0.00    +0.010 A 
ATOM     14  C   UNL     1     -11.115  -3.100   5.177  0.00  0.00    +0.001 A 
ATOM     15  C   UNL     1     -11.882  -2.513   4.158  0.00  0.00    +0.002 A 
ATOM     16  C   UNL     1     -11.312  -1.897   3.099  0.00  0.00    +0.026 A 
ATOM     17  C   UNL     1      -9.845  -1.838   3.010  0.00  0.00    +0.043 A 
ATOM     18  N   UNL     1      -9.046  -1.319   2.120  0.00  0.00    -0.380 N 
ATOM     19  C   UNL     1      -7.656  -1.543   2.530  0.00  0.00    +0.154 C 
ATOM     20  H   UNL     1      -9.328  -0.854   1.317  0.00  0.00    +0.160 HD
ENDBRANCH   8  11
ENDBRANCH   4   7
BRANCH   1  21
ATOM     21  C   UNL     1      -1.387  -1.792   3.041  0.00  0.00    +0.107 C 
BRANCH  21  22
ATOM     22  C   UNL     1      -1.411  -1.020   1.720  0.00  0.00    +0.038 C 
BRANCH  22  23
ATOM     23  C   UNL     1       0.024  -0.743   1.267  0.00  0.00    +0.106 C 
BRANCH  23  25
ATOM     24  C   UNL     1      -0.018   1.461   0.010  0.00  0.00    +0.129 C 
ATOM     25  N   UNL     1       0.002  -0.004   0.002  0.00  0.00    -0.333 N 
BRANCH  25  26
ATOM     26  C   UNL     1       0.000  -0.696  -1.211  0.00  0.00    +0.029 A 
ATOM     27  C   UNL     1       0.013  -2.085  -1.221  0.00  0.00    +0.023 A 
ATOM     28  C   UNL     1       0.010  -2.766  -2.422  0.00  0.00    +0.002 A 
ATOM     29  C   UNL     1      -0.005  -2.066  -3.615  0.00  0.00    +0.000 A 
ATOM     30  C   UNL     1      -0.018  -0.684  -3.609  0.00  0.00    +0.002 A 
ATOM     31  C   UNL     1      -0.021   0.004  -2.411  0.00  0.00    +0.023 A 
ENDBRANCH  25  26
ENDBRANCH  23  25
ENDBRANCH  22  23
ENDBRANCH  21  22
ENDBRANCH   1  21
TORSDOF 7
