REMARK  Name = ZINC66243521
REMARK  10 active torsions:
REMARK  status: ('A' for Active; 'I' for Inactive)
REMARK    1  A    between atoms: C_1  and  C_2
REMARK    2  A    between atoms: C_2  and  C_3
REMARK    3  A    between atoms: C_3  and  O_4
REMARK    4  A    between atoms: O_4  and  C_5
REMARK    5  A    between atoms: C_8  and  O_11
REMARK    6  A    between atoms: O_11  and  C_12
REMARK    7  A    between atoms: C_13  and  C_18
REMARK    8  A    between atoms: C_18  and  N_19
REMARK    9  A    between atoms: N_21  and  C_22
REMARK   10  A    between atoms: C_22  and  C_23
REMARK                            x       y       z     vdW  Elec       q    Type
REMARK                         _______ _______ _______ _____ _____    ______ ____
ROOT
ATOM      1  C   UNL     1       3.293  -5.713  -5.516  0.00  0.00    +0.225 A 
ATOM      2  C   UNL     1       4.001  -6.356  -6.524  0.00  0.00    +0.034 A 
ATOM      3  C   UNL     1       4.113  -7.735  -6.493  0.00  0.00    +0.012 A 
ATOM      4  C   UNL     1       3.511  -8.425  -5.449  0.00  0.00    +0.020 A 
ATOM      5  C   UNL     1       2.824  -7.721  -4.481  0.00  0.00    +0.114 A 
ATOM      6  N   UNL     1       2.738  -6.405  -4.535  0.00  0.00    -0.221 NA
ENDROOT
BRANCH   1   7
ATOM      7  O   UNL     1       3.176  -4.361  -5.535  0.00  0.00    -0.438 OA
BRANCH   7  11
ATOM      8  C   UNL     1       1.338  -2.529  -2.325  0.00  0.00    +0.121 A 
ATOM      9  C   UNL     1       2.642  -2.988  -2.209  0.00  0.00    +0.049 A 
ATOM     10  C   UNL     1       3.257  -3.601  -3.283  0.00  0.00    +0.050 A 
ATOM     11  C   UNL     1       2.571  -3.758  -4.478  0.00  0.00    +0.131 A 
ATOM     12  C   UNL     1       1.266  -3.300  -4.595  0.00  0.00    +0.050 A 
ATOM     13  C   UNL     1       0.650  -2.691  -3.519  0.00  0.00    +0.049 A 
BRANCH   8  14
ATOM     14  O   UNL     1       0.732  -1.926  -1.268  0.00  0.00    -0.492 OA
BRANCH  14  15
ATOM     15  C   UNL     1       1.500  -1.793  -0.070  0.00  0.00    +0.229 C 
BRANCH  15  17
ATOM     16  C   UNL     1       1.479  -0.953   2.283  0.00  0.00    +0.007 C 
ATOM     17  C   UNL     1       0.657  -1.095   1.000  0.00  0.00    +0.038 C 
ENDBRANCH  15  17
ENDBRANCH  14  15
ENDBRANCH   8  14
ENDBRANCH   7  11
ENDBRANCH   1   7
BRANCH   2  18
ATOM     18  C   UNL     1       4.636  -5.564  -7.637  0.00  0.00    +0.156 C 
BRANCH  18  19
ATOM     19  N   UNL     1       5.902  -4.994  -7.169  0.00  0.00    -0.354 N 
ATOM     20  C   UNL     1       6.665  -4.225  -8.017  0.00  0.00    +0.169 C 
ATOM     21  N   UNL     1       7.791  -3.718  -7.601  0.00  0.00    -0.355 N 
ATOM     22  N   UNL     1       6.240  -3.992  -9.303  0.00  0.00    -0.371 N 
ATOM     23  H   UNL     1       6.202  -5.158  -6.262  0.00  0.00    +0.163 HD
ATOM     24  H   UNL     1       5.402  -4.370  -9.613  0.00  0.00    +0.159 HD
ATOM     25  H   UNL     1       6.778  -3.450  -9.901  0.00  0.00    +0.159 HD
ATOM     26  H   UNL     1       8.091  -3.882  -6.693  0.00  0.00    +0.162 HD
BRANCH  21  27
ATOM     27  C   UNL     1       8.604  -2.900  -8.504  0.00  0.00    +0.147 C 
BRANCH  27  28
ATOM     28  C   UNL     1       9.864  -2.432  -7.773  0.00  0.00    +0.137 C 
ATOM     29  C   UNL     1      10.667  -1.471  -8.675  0.00  0.00    +0.035 C 
ATOM     30  C   UNL     1      12.133  -1.890  -8.382  0.00  0.00    +0.031 C 
ATOM     31  C   UNL     1      11.963  -3.414  -8.158  0.00  0.00    +0.160 C 
ATOM     32  O   UNL     1      10.702  -3.556  -7.481  0.00  0.00    -0.375 OA
ENDBRANCH  27  28
ENDBRANCH  21  27
ENDBRANCH  18  19
ENDBRANCH   2  18
TORSDOF 9
