REMARK  Name = ZINC44281525
REMARK  6 active torsions:
REMARK  status: ('A' for Active; 'I' for Inactive)
REMARK    1  A    between atoms: C_4  and  C_10
REMARK    2  A    between atoms: C_6  and  N_7
REMARK    3  A    between atoms: C_13  and  C_15
REMARK    4  A    between atoms: C_15  and  C_16
REMARK    5  A    between atoms: C_16  and  C_17
REMARK    6  A    between atoms: C_17  and  N_18
REMARK                            x       y       z     vdW  Elec       q    Type
REMARK                         _______ _______ _______ _____ _____    ______ ____
ROOT
ATOM      1  C   UNL     1       3.695  -0.687  -0.037  0.00  0.00    +0.137 A 
ATOM      2  C   UNL     1       4.730  -0.448  -0.886  0.00  0.00    +0.050 A 
ATOM      3  C   UNL     1       5.750  -1.359  -0.548  0.00  0.00    +0.045 A 
ATOM      4  C   UNL     1       5.293  -2.101   0.480  0.00  0.00    +0.106 A 
ATOM      5  O   UNL     1       4.053  -1.688   0.789  0.00  0.00    -0.460 OA
ENDROOT
BRANCH   1   9
ATOM      6  C   UNL     1      -0.017   1.379   0.010  0.00  0.00    +0.034 A 
ATOM      7  C   UNL     1       1.168   2.094   0.002  0.00  0.00    +0.023 A 
ATOM      8  C   UNL     1       2.378   1.429  -0.013  0.00  0.00    +0.052 A 
ATOM      9  C   UNL     1       2.404   0.032  -0.021  0.00  0.00    +0.038 A 
ATOM     10  C   UNL     1       1.204  -0.681  -0.013  0.00  0.00    +0.045 A 
ATOM     11  C   UNL     1       0.002  -0.004   0.002  0.00  0.00    +0.127 A 
ATOM     12 CL   UNL     1       3.864   2.327  -0.023  0.00  0.00    -0.083 Cl
BRANCH  11  13
ATOM     13  N   UNL     1      -1.271  -0.760   0.010  0.00  0.00    +0.056 N 
ATOM     14  O   UNL     1      -2.325  -0.168   0.023  0.00  0.00    -0.126 OA
ATOM     15  O   UNL     1      -1.256  -1.968   0.004  0.00  0.00    -0.126 OA
ENDBRANCH  11  13
ENDBRANCH   1   9
BRANCH   4  16
ATOM     16  C   UNL     1       6.049  -3.206   1.171  0.00  0.00    +0.072 C 
BRANCH  16  17
ATOM     17  C   UNL     1       6.850  -2.624   2.337  0.00  0.00    -0.012 C 
BRANCH  17  18
ATOM     18  C   UNL     1       7.618  -3.746   3.039  0.00  0.00    -0.086 C 
BRANCH  18  19
ATOM     19  N   UNL     1       8.387  -3.187   4.159  0.00  0.00    +0.378 N 
ATOM     20  H   UNL     1       8.893  -3.927   4.622  0.00  0.00    -0.090 HD
ATOM     21  H   UNL     1       9.039  -2.500   3.810  0.00  0.00    -0.090 HD
ATOM     22  H   UNL     1       7.756  -2.749   4.815  0.00  0.00    -0.090 HD
ENDBRANCH  18  19
ENDBRANCH  17  18
ENDBRANCH  16  17
ENDBRANCH   4  16
TORSDOF 6
