REMARK  Name = ZINC61761826
REMARK  6 active torsions:
REMARK  status: ('A' for Active; 'I' for Inactive)
REMARK    1  A    between atoms: C_1  and  C_2
REMARK    2  A    between atoms: C_2  and  C_3
REMARK    3  A    between atoms: C_2  and  C_4
REMARK    4  A    between atoms: C_2  and  N_5
REMARK    5  A    between atoms: N_12  and  C_13
REMARK    6  A    between atoms: C_16  and  N_19
REMARK                            x       y       z     vdW  Elec       q    Type
REMARK                         _______ _______ _______ _____ _____    ______ ____
ROOT
ATOM      1  N   UNL     1       0.538   0.573  -1.827  0.00  0.00    -0.306 N 
ATOM      2  C   UNL     1      -0.148   0.002  -2.858  0.00  0.00    +0.107 A 
ATOM      3  C   UNL     1       0.502  -0.637  -3.853  0.00  0.00    +0.102 A 
ATOM      4  N   UNL     1       1.831  -0.738  -3.871  0.00  0.00    -0.344 N 
ATOM      5  C   UNL     1       2.558  -0.211  -2.909  0.00  0.00    +0.167 A 
ATOM      6  C   UNL     1       1.887   0.497  -1.813  0.00  0.00    +0.290 A 
ATOM      7  O   UNL     1       2.531   1.000  -0.908  0.00  0.00    -0.264 OA
ATOM      8  N   UNL     1       3.943  -0.320  -2.934  0.00  0.00    -0.297 N 
ATOM      9  H   UNL     1       4.467  -0.002  -2.182  0.00  0.00    +0.154 HD
ATOM     10  H   UNL     1       2.267  -1.205  -4.601  0.00  0.00    +0.167 HD
ENDROOT
BRANCH   8  11
ATOM     11  C   UNL     1       4.580  -0.887  -4.043  0.00  0.00    +0.033 A 
ATOM     12  C   UNL     1       4.144  -0.583  -5.326  0.00  0.00    +0.025 A 
ATOM     13  C   UNL     1       4.773  -1.143  -6.420  0.00  0.00    +0.024 A 
ATOM     14  C   UNL     1       5.842  -2.011  -6.238  0.00  0.00    +0.025 A 
ATOM     15  C   UNL     1       6.279  -2.315  -4.955  0.00  0.00    +0.024 A 
ATOM     16  C   UNL     1       5.654  -1.750  -3.861  0.00  0.00    +0.025 A 
BRANCH  14  17
ATOM     17  N   UNL     1       6.479  -2.579  -7.346  0.00  0.00    -0.358 N 
ATOM     18  H   UNL     1       6.174  -2.367  -8.242  0.00  0.00    +0.142 HD
ATOM     19  H   UNL     1       7.226  -3.185  -7.219  0.00  0.00    +0.142 HD
ENDBRANCH  14  17
ENDBRANCH   8  11
BRANCH   1  21
ATOM     20  C   UNL     1       0.269   2.728  -0.702  0.00  0.00    +0.034 C 
ATOM     21  C   UNL     1      -0.178   1.265  -0.753  0.00  0.00    +0.040 C 
ATOM     22  C   UNL     1       0.134   0.590   0.585  0.00  0.00    +0.034 C 
ATOM     23  C   UNL     1      -1.683   1.200  -1.018  0.00  0.00    +0.034 C 
ENDBRANCH   1  21
TORSDOF 3
