REMARK  Name = ZINC12955689
REMARK  9 active torsions:
REMARK  status: ('A' for Active; 'I' for Inactive)
REMARK    1  A    between atoms: C_1  and  N_2
REMARK    2  A    between atoms: C_3  and  C_15
REMARK    3  A    between atoms: N_7  and  C_8
REMARK    4  A    between atoms: C_15  and  S_16
REMARK    5  A    between atoms: S_16  and  C_17
REMARK    6  A    between atoms: N_18  and  N_19
REMARK    7  A    between atoms: C_20  and  C_21
REMARK    8  A    between atoms: C_24  and  O_27
REMARK    9  A    between atoms: O_27  and  C_28
REMARK                            x       y       z     vdW  Elec       q    Type
REMARK                         _______ _______ _______ _____ _____    ______ ____
ROOT
ATOM      1  S   UNL     1      -2.649  -0.520  -2.487  0.00  0.00    -0.085 S 
ENDROOT
BRANCH   1   2
ATOM      2  C   UNL     1      -3.047  -0.018  -4.128  0.00  0.00    +0.146 C 
ATOM      3  N   UNL     1      -4.306   0.040  -4.513  0.00  0.00    -0.259 N 
ATOM      4  N   UNL     1      -2.044   0.313  -5.007  0.00  0.00    -0.338 N 
ATOM      5  H   UNL     1      -1.118   0.271  -4.724  0.00  0.00    +0.144 HD
ATOM      6  H   UNL     1      -2.263   0.590  -5.910  0.00  0.00    +0.144 HD
ATOM      7  H   UNL     1      -4.525   0.317  -5.417  0.00  0.00    +0.191 HD
BRANCH   3   8
ATOM      8  N   UNL     1      -5.248  -0.271  -3.688  0.00  0.00    -0.180 NA
ATOM      9  C   UNL     1      -6.495  -0.213  -4.069  0.00  0.00    +0.140 C 
BRANCH   9  10
ATOM     10  C   UNL     1      -7.569  -0.568  -3.127  0.00  0.00    -0.005 A 
ATOM     11  C   UNL     1      -7.256  -0.961  -1.822  0.00  0.00    +0.013 A 
ATOM     12  C   UNL     1      -8.266  -1.292  -0.945  0.00  0.00    +0.046 A 
ATOM     13  C   UNL     1      -9.592  -1.236  -1.354  0.00  0.00    +0.120 A 
ATOM     14  C   UNL     1      -9.908  -0.846  -2.650  0.00  0.00    +0.046 A 
ATOM     15  C   UNL     1      -8.906  -0.507  -3.533  0.00  0.00    +0.013 A 
BRANCH  13  16
ATOM     16  O   UNL     1     -10.583  -1.564  -0.485  0.00  0.00    -0.495 OA
ATOM     17  C   UNL     1     -11.925  -1.484  -0.972  0.00  0.00    +0.277 C 
ENDBRANCH  13  16
ENDBRANCH   9  10
ENDBRANCH   3   8
ENDBRANCH   1   2
BRANCH   1  18
ATOM     18  C   UNL     1      -0.838  -0.444  -2.431  0.00  0.00    +0.133 C 
BRANCH  18  21
ATOM     19  C   UNL     1      -0.982   1.260   0.164  0.00  0.00    +0.171 C 
ATOM     20  N   UNL     1      -0.430  -0.094   0.071  0.00  0.00    -0.282 N 
ATOM     21  C   UNL     1      -0.359  -0.855  -1.062  0.00  0.00    +0.065 A 
ATOM     22  C   UNL     1       0.210  -2.037  -0.748  0.00  0.00    +0.106 A 
ATOM     23  C   UNL     1       0.512  -2.024   0.634  0.00  0.00    +0.286 A 
ATOM     24  O   UNL     1       1.034  -2.926   1.264  0.00  0.00    -0.265 OA
ATOM     25  N   UNL     1       0.123  -0.831   1.127  0.00  0.00    -0.216 N 
ATOM     26 BR   UNL     1       0.546  -3.461  -1.945  0.00  0.00    -0.043 Br
BRANCH  25  27
ATOM     27  C   UNL     1       0.246  -0.406   2.454  0.00  0.00    +0.067 A 
ATOM     28  C   UNL     1       0.761   0.853   2.736  0.00  0.00    +0.028 A 
ATOM     29  C   UNL     1       0.881   1.269   4.048  0.00  0.00    +0.002 A 
ATOM     30  C   UNL     1       0.489   0.435   5.079  0.00  0.00    +0.000 A 
ATOM     31  C   UNL     1      -0.025  -0.818   4.800  0.00  0.00    +0.002 A 
ATOM     32  C   UNL     1      -0.152  -1.239   3.491  0.00  0.00    +0.028 A 
ENDBRANCH  25  27
ENDBRANCH  18  21
ENDBRANCH   1  18
TORSDOF 7
