REMARK  Name = ZINC35571953
REMARK  9 active torsions:
REMARK  status: ('A' for Active; 'I' for Inactive)
REMARK    1  A    between atoms: C_1  and  C_2
REMARK    2  A    between atoms: C_2  and  C_3
REMARK    3  A    between atoms: C_3  and  C_4
REMARK    4  A    between atoms: C_4  and  C_6
REMARK    5  A    between atoms: C_4  and  C_7
REMARK    6  A    between atoms: C_7  and  C_9
REMARK    7  A    between atoms: C_7  and  N_20
REMARK    8  A    between atoms: N_20  and  C_21
REMARK    9  A    between atoms: C_21  and  C_22
REMARK                            x       y       z     vdW  Elec       q    Type
REMARK                         _______ _______ _______ _____ _____    ______ ____
ROOT
ATOM      1  C   UNL     1      -2.713  -4.075   0.182  0.00  0.00    -0.042 A 
ATOM      2  C   UNL     1      -2.848  -4.644   1.436  0.00  0.00    +0.009 A 
ATOM      3  C   UNL     1      -2.721  -6.006   1.590  0.00  0.00    -0.017 A 
ATOM      4  C   UNL     1      -2.457  -6.825   0.498  0.00  0.00    +0.038 A 
ATOM      5  C   UNL     1      -2.322  -6.246  -0.761  0.00  0.00    +0.043 A 
ATOM      6  C   UNL     1      -2.456  -4.880  -0.914  0.00  0.00    +0.044 A 
ATOM      7 CL   UNL     1      -2.294  -4.167  -2.489  0.00  0.00    -0.083 Cl
ATOM      8  N   UNL     1      -2.373  -8.157   0.904  0.00  0.00    -0.285 N 
ATOM      9  C   UNL     1      -2.567  -8.300   2.226  0.00  0.00    +0.222 C 
ATOM     10  O   UNL     1      -2.550  -9.341   2.848  0.00  0.00    -0.275 OA
ATOM     11  C   UNL     1      -2.810  -6.918   2.792  0.00  0.00    +0.133 C 
ATOM     12  H   UNL     1      -2.197  -8.896   0.300  0.00  0.00    +0.155 HD
ENDROOT
BRANCH   1  13
ATOM     13  C   UNL     1      -2.851  -2.585   0.009  0.00  0.00    -0.037 C 
BRANCH  13  14
ATOM     14  N   UNL     1      -3.571  -2.023   1.160  0.00  0.00    +0.384 N 
ATOM     15  H   UNL     1      -3.106  -2.295   2.013  0.00  0.00    -0.085 HD
ATOM     16  H   UNL     1      -3.585  -1.017   1.090  0.00  0.00    -0.085 HD
BRANCH  14  17
ATOM     17  C   UNL     1      -4.950  -2.532   1.170  0.00  0.00    -0.085 C 
ATOM     18  C   UNL     1      -5.666  -2.038   2.429  0.00  0.00    -0.017 C 
ENDBRANCH  14  17
ENDBRANCH  13  14
BRANCH  13  19
ATOM     19  C   UNL     1      -1.462  -1.951  -0.081  0.00  0.00    -0.024 C 
ATOM     20  C   UNL     1      -0.721  -2.153   1.242  0.00  0.00    +0.006 C 
BRANCH  19  21
ATOM     21  C   UNL     1      -1.602  -0.453  -0.363  0.00  0.00    +0.002 C 
BRANCH  21  23
ATOM     22  C   UNL     1      -0.354   1.659  -0.837  0.00  0.00    +0.004 C 
ATOM     23  C   UNL     1      -0.214   0.162  -0.555  0.00  0.00    -0.003 C 
ENDBRANCH  21  23
ENDBRANCH  19  21
ENDBRANCH  13  19
ENDBRANCH   1  13
TORSDOF 6
