REMARK  Name = ZINC20455226
REMARK  8 active torsions:
REMARK  status: ('A' for Active; 'I' for Inactive)
REMARK    1  A    between atoms: C_1  and  C_2
REMARK    2  A    between atoms: C_2  and  C_3
REMARK    3  A    between atoms: C_3  and  N_4
REMARK    4  A    between atoms: C_7  and  N_10
REMARK    5  A    between atoms: C_12  and  N_21
REMARK    6  A    between atoms: C_15  and  C_17
REMARK    7  A    between atoms: N_19  and  C_20
REMARK    8  A    between atoms: N_21  and  C_22
REMARK                            x       y       z     vdW  Elec       q    Type
REMARK                         _______ _______ _______ _____ _____    ______ ____
ROOT
ATOM      1  N   UNL     1       4.137  -0.725   0.583  0.00  0.00    +0.388 N 
ATOM      2  C   UNL     1       2.885  -0.378  -0.137  0.00  0.00    -0.094 C 
ATOM      3  C   UNL     1       2.244   0.703   0.769  0.00  0.00    -0.090 C 
ATOM      4  C   UNL     1       3.467   1.505   1.270  0.00  0.00    -0.024 C 
ATOM      5  C   UNL     1       4.665   0.551   1.113  0.00  0.00    +0.018 C 
ATOM      6  H   UNL     1       3.958  -1.453   1.388  0.00  0.00    -0.080 HD
ENDROOT
BRANCH   1  10
ATOM      7  N   UNL     1       6.675  -3.673  -1.045  0.00  0.00    -0.302 NA
ATOM      8  C   UNL     1       7.326  -2.492  -0.464  0.00  0.00    +0.083 C 
ATOM      9  C   UNL     1       6.348  -1.777   0.470  0.00  0.00    +0.000 C 
ATOM     10  C   UNL     1       5.105  -1.360  -0.321  0.00  0.00    -0.065 C 
ATOM     11  C   UNL     1       4.473  -2.602  -0.957  0.00  0.00    +0.000 C 
ATOM     12  C   UNL     1       5.507  -3.294  -1.849  0.00  0.00    +0.083 C 
BRANCH   7  13
ATOM     13  C   UNL     1       7.627  -4.462  -1.839  0.00  0.00    +0.084 C 
BRANCH  13  15
ATOM     14  C   UNL     1       7.862  -6.355  -3.453  0.00  0.00    +0.005 C 
ATOM     15  C   UNL     1       6.870  -5.534  -2.626  0.00  0.00    +0.012 C 
ENDBRANCH  13  15
ENDBRANCH   7  13
ENDBRANCH   1  10
BRANCH   5  16
ATOM     16  C   UNL     1       5.317   0.320   2.452  0.00  0.00    +0.199 C 
ATOM     17  O   UNL     1       5.361  -0.798   2.920  0.00  0.00    -0.278 OA
ATOM     18  N   UNL     1       5.851   1.356   3.128  0.00  0.00    -0.320 N 
ATOM     19  C   UNL     1       6.485   1.131   4.430  0.00  0.00    +0.128 C 
ATOM     20  H   UNL     1       5.812   2.369   2.703  0.00  0.00    +0.148 HD
ENDBRANCH   5  16
BRANCH   3  21
ATOM     21  N   UNL     1       1.341   1.563  -0.007  0.00  0.00    +0.382 N 
ATOM     22  H   UNL     1       1.341   2.576   0.421  0.00  0.00    -0.085 HD
ATOM     23  H   UNL     1       1.683   1.606  -1.052  0.00  0.00    -0.085 HD
BRANCH  21  24
ATOM     24  C   UNL     1      -0.033   1.042   0.017  0.00  0.00    -0.065 C 
ATOM     25  C   UNL     1      -0.745   1.541   1.276  0.00  0.00    -0.024 C 
ATOM     26  C   UNL     1      -0.780   3.071   1.269  0.00  0.00    +0.005 C 
ATOM     27  C   UNL     1      -1.533   3.559   0.030  0.00  0.00    -0.010 C 
ATOM     28  C   UNL     1      -2.963   3.016   0.055  0.00  0.00    +0.007 C 
ATOM     29  C   UNL     1      -2.928   1.486   0.062  0.00  0.00    -0.010 C 
ATOM     30  C   UNL     1      -2.176   0.999   1.301  0.00  0.00    +0.005 C 
ATOM     31  C   UNL     1      -2.216   0.987  -1.197  0.00  0.00    +0.005 C 
ATOM     32  C   UNL     1      -0.785   1.530  -1.222  0.00  0.00    -0.024 C 
ATOM     33  C   UNL     1      -0.820   3.059  -1.229  0.00  0.00    +0.005 C 
ENDBRANCH  21  24
ENDBRANCH   3  21
TORSDOF 6
