REMARK  Name = ZINC01930635
REMARK  8 active torsions:
REMARK  status: ('A' for Active; 'I' for Inactive)
REMARK    1  A    between atoms: C_1  and  C_2
REMARK    2  A    between atoms: C_9  and  N_18
REMARK    3  A    between atoms: C_10  and  C_11
REMARK    4  A    between atoms: N_13  and  C_14
REMARK    5  A    between atoms: C_14  and  C_15
REMARK    6  A    between atoms: C_15  and  C_16
REMARK    7  A    between atoms: C_16  and  O_17
REMARK    8  A    between atoms: C_19  and  C_21
REMARK                            x       y       z     vdW  Elec       q    Type
REMARK                         _______ _______ _______ _____ _____    ______ ____
ROOT
ATOM      1  C   UNL     1     -10.181  -2.673  -0.064  0.00  0.00    +0.008 C 
ATOM      2  C   UNL     1      -9.190  -1.541  -0.345  0.00  0.00    -0.009 C 
ATOM      3  C   UNL     1      -9.551  -0.317   0.501  0.00  0.00    +0.008 C 
ATOM      4  C   UNL     1      -8.727   0.890   0.049  0.00  0.00    +0.037 C 
ATOM      5  C   UNL     1      -7.254   0.502   0.038  0.00  0.00    -0.023 A 
ATOM      6  C   UNL     1      -6.876  -0.795   0.029  0.00  0.00    -0.004 A 
ATOM      7  S   UNL     1      -5.106  -0.751   0.014  0.00  0.00    -0.077 S 
ATOM      8  C   UNL     1      -4.869   0.966   0.030  0.00  0.00    +0.085 A 
ATOM      9  C   UNL     1      -6.165   1.464   0.039  0.00  0.00    +0.069 A 
ATOM     10  C   UNL     1      -7.770  -1.996   0.025  0.00  0.00    +0.046 C 
ENDROOT
BRANCH   9  11
ATOM     11  C   UNL     1      -6.425   2.907   0.049  0.00  0.00    +0.247 C 
ATOM     12  O   UNL     1      -6.538   3.512  -1.001  0.00  0.00    -0.270 OA
ATOM     13  N   UNL     1      -6.539   3.563   1.221  0.00  0.00    -0.311 N 
ATOM     14  H   UNL     1      -6.449   3.080   2.058  0.00  0.00    +0.149 HD
BRANCH  13  15
ATOM     15  C   UNL     1      -6.798   5.004   1.231  0.00  0.00    +0.107 C 
BRANCH  15  16
ATOM     16  C   UNL     1      -6.882   5.497   2.677  0.00  0.00    +0.046 C 
BRANCH  16  17
ATOM     17  C   UNL     1      -7.153   7.003   2.688  0.00  0.00    +0.157 C 
BRANCH  17  18
ATOM     18  O   UNL     1      -7.231   7.464   4.038  0.00  0.00    -0.395 OA
ATOM     19  H   UNL     1      -7.401   8.412   4.121  0.00  0.00    +0.209 HD
ENDBRANCH  17  18
ENDBRANCH  16  17
ENDBRANCH  15  16
ENDBRANCH  13  15
ENDBRANCH   9  11
BRANCH   8  20
ATOM     20  N   UNL     1      -3.676   1.670   0.029  0.00  0.00    -0.275 N 
ATOM     21  C   UNL     1      -2.503   1.008   0.019  0.00  0.00    +0.249 C 
ATOM     22  O   UNL     1      -2.491  -0.208   0.013  0.00  0.00    -0.270 OA
ATOM     23  H   UNL     1      -3.686   2.640   0.034  0.00  0.00    +0.156 HD
BRANCH  21  24
ATOM     24  C   UNL     1      -1.230   1.759   0.017  0.00  0.00    +0.037 A 
ATOM     25  C   UNL     1      -0.013   1.076   0.008  0.00  0.00    +0.013 A 
ATOM     26  C   UNL     1       1.172   1.783   0.000  0.00  0.00    +0.001 A 
ATOM     27  C   UNL     1       1.155   3.167   0.009  0.00  0.00    +0.000 A 
ATOM     28  C   UNL     1      -0.048   3.850   0.024  0.00  0.00    +0.001 A 
ATOM     29  C   UNL     1      -1.240   3.155   0.031  0.00  0.00    +0.013 A 
ENDBRANCH  21  24
ENDBRANCH   8  20
TORSDOF 7
