REMARK  Name = ZINC63303928
REMARK  10 active torsions:
REMARK  status: ('A' for Active; 'I' for Inactive)
REMARK    1  A    between atoms: C_1  and  C_2
REMARK    2  A    between atoms: C_2  and  C_3
REMARK    3  A    between atoms: C_2  and  N_9
REMARK    4  A    between atoms: C_3  and  N_4
REMARK    5  A    between atoms: N_12  and  C_13
REMARK    6  A    between atoms: C_13  and  C_14
REMARK    7  A    between atoms: C_14  and  C_15
REMARK    8  A    between atoms: C_14  and  O_25
REMARK    9  A    between atoms: C_15  and  O_16
REMARK   10  A    between atoms: O_16  and  C_17
REMARK                            x       y       z     vdW  Elec       q    Type
REMARK                         _______ _______ _______ _____ _____    ______ ____
ROOT
ATOM      1  N   UNL     1      -1.372  -0.511   0.012  0.00  0.00    -0.295 N 
ATOM      2  C   UNL     1      -2.051  -0.643  -1.145  0.00  0.00    +0.300 C 
ATOM      3  O   UNL     1      -1.522  -0.341  -2.197  0.00  0.00    -0.253 OA
ATOM      4  N   UNL     1      -3.315  -1.109  -1.135  0.00  0.00    -0.297 N 
ATOM      5  H   UNL     1      -1.794  -0.752   0.852  0.00  0.00    +0.151 HD
ATOM      6  H   UNL     1      -3.737  -1.350  -0.295  0.00  0.00    +0.150 HD
ENDROOT
BRANCH   1   8
ATOM      7  C   UNL     1      -0.019   1.526   0.010  0.00  0.00    +0.029 C 
ATOM      8  C   UNL     1       0.002  -0.004   0.002  0.00  0.00    +0.091 C 
BRANCH   8   9
ATOM      9  C   UNL     1       0.742  -0.511   1.242  0.00  0.00    +0.144 C 
BRANCH   9  10
ATOM     10  N   UNL     1       0.866  -1.969   1.174  0.00  0.00    -0.337 N 
ATOM     11  C   UNL     1      -0.028  -2.884   1.661  0.00  0.00    +0.104 A 
ATOM     12  C   UNL     1       0.474  -4.103   1.387  0.00  0.00    +0.101 A 
ATOM     13  N   UNL     1       1.643  -3.937   0.750  0.00  0.00    -0.352 N 
ATOM     14  C   UNL     1       1.882  -2.662   0.614  0.00  0.00    +0.173 A 
ATOM     15  H   UNL     1       2.218  -4.653   0.436  0.00  0.00    +0.166 HD
ENDBRANCH   9  10
ENDBRANCH   8   9
ENDBRANCH   1   8
BRANCH   4  16
ATOM     16  C   UNL     1      -4.053  -1.252  -2.393  0.00  0.00    +0.140 C 
BRANCH  16  17
ATOM     17  C   UNL     1      -5.453  -1.797  -2.104  0.00  0.00    +0.169 C 
BRANCH  17  18
ATOM     18  O   UNL     1      -5.346  -3.072  -1.467  0.00  0.00    -0.387 OA
ATOM     19  H   UNL     1      -4.884  -3.738  -1.994  0.00  0.00    +0.210 HD
ENDBRANCH  17  18
BRANCH  17  20
ATOM     20  C   UNL     1      -6.223  -1.947  -3.417  0.00  0.00    +0.262 C 
BRANCH  20  21
ATOM     21  O   UNL     1      -7.567  -2.344  -3.139  0.00  0.00    -0.488 OA
BRANCH  21  22
ATOM     22  C   UNL     1      -8.392  -2.522  -4.205  0.00  0.00    +0.140 A 
ATOM     23  C   UNL     1      -7.915  -2.324  -5.492  0.00  0.00    +0.047 A 
ATOM     24  C   UNL     1      -8.754  -2.505  -6.575  0.00  0.00    +0.005 A 
ATOM     25  C   UNL     1     -10.069  -2.884  -6.377  0.00  0.00    +0.022 A 
ATOM     26  C   UNL     1     -10.548  -3.082  -5.094  0.00  0.00    +0.063 A 
ATOM     27  C   UNL     1      -9.710  -2.908  -4.007  0.00  0.00    +0.101 A 
ATOM     28 CL   UNL     1     -10.309  -3.164  -2.398  0.00  0.00    -0.078 Cl
ATOM     29 CL   UNL     1     -12.200  -3.558  -4.849  0.00  0.00    -0.082 Cl
ENDBRANCH  21  22
ENDBRANCH  20  21
ENDBRANCH  17  20
ENDBRANCH  16  17
ENDBRANCH   4  16
TORSDOF 9
