REMARK  Name = ZINC55300220
REMARK  5 active torsions:
REMARK  status: ('A' for Active; 'I' for Inactive)
REMARK    1  A    between atoms: C_1  and  C_2
REMARK    2  A    between atoms: C_2  and  N_3
REMARK    3  A    between atoms: N_3  and  C_4
REMARK    4  A    between atoms: C_4  and  C_6
REMARK    5  A    between atoms: C_4  and  C_17
REMARK                            x       y       z     vdW  Elec       q    Type
REMARK                         _______ _______ _______ _____ _____    ______ ____
ROOT
ATOM      1  C   UNL     1      -1.356  -1.981   0.004  0.00  0.00    -0.008 C 
ENDROOT
BRANCH   1   2
ATOM      2  C   UNL     1      -0.737  -2.482   1.284  0.00  0.00    -0.037 A 
ATOM      3  C   UNL     1      -0.772  -1.698   2.421  0.00  0.00    +0.053 A 
ATOM      4  C   UNL     1      -0.204  -2.157   3.600  0.00  0.00    +0.162 A 
ATOM      5  C   UNL     1       0.400  -3.408   3.635  0.00  0.00    +0.163 A 
ATOM      6  C   UNL     1       0.434  -4.190   2.491  0.00  0.00    +0.069 A 
ATOM      7  C   UNL     1      -0.138  -3.729   1.319  0.00  0.00    +0.046 A 
ATOM      8 CL   UNL     1      -0.100  -4.713  -0.110  0.00  0.00    -0.083 Cl
ATOM      9  O   UNL     1       0.956  -3.881   4.784  0.00  0.00    -0.485 OA
ATOM     10  C   UNL     1       1.232  -2.919   5.809  0.00  0.00    +0.270 C 
ATOM     11  C   UNL     1      -0.000  -2.017   5.965  0.00  0.00    +0.270 C 
ATOM     12  O   UNL     1      -0.245  -1.371   4.711  0.00  0.00    -0.485 OA
ENDBRANCH   1   2
BRANCH   1  13
ATOM     13  C   UNL     1      -2.787  -2.510  -0.111  0.00  0.00    +0.134 C 
ATOM     14  C   UNL     1      -2.760  -4.036  -0.241  0.00  0.00    +0.190 C 
ATOM     15  O   UNL     1      -4.102  -4.531  -0.236  0.00  0.00    -0.375 OA
ATOM     16  C   UNL     1      -4.840  -4.174   0.937  0.00  0.00    +0.188 C 
ATOM     17  C   UNL     1      -4.867  -2.648   1.068  0.00  0.00    +0.188 C 
ATOM     18  O   UNL     1      -3.525  -2.151   1.062  0.00  0.00    -0.373 OA
ENDBRANCH   1  13
BRANCH   1  19
ATOM     19  N   UNL     1      -1.376  -0.512   0.012  0.00  0.00    +0.385 N 
ATOM     20  H   UNL     1      -1.848  -0.187   0.843  0.00  0.00    -0.085 HD
ATOM     21  H   UNL     1      -1.864  -0.178  -0.805  0.00  0.00    -0.085 HD
BRANCH  19  23
ATOM     22  C   UNL     1      -0.019   1.526   0.010  0.00  0.00    -0.017 C 
ATOM     23  C   UNL     1       0.002  -0.004   0.002  0.00  0.00    -0.085 C 
ENDBRANCH  19  23
ENDBRANCH   1  19
TORSDOF 4
