REMARK  Name = ZINC40515149
REMARK  3 active torsions:
REMARK  status: ('A' for Active; 'I' for Inactive)
REMARK    1  A    between atoms: C_1  and  C_2
REMARK    2  A    between atoms: C_4  and  C_17
REMARK    3  A    between atoms: C_7  and  C_8
REMARK                            x       y       z     vdW  Elec       q    Type
REMARK                         _______ _______ _______ _____ _____    ______ ____
ROOT
ATOM      1  C   UNL     1      -0.018   1.503   0.010  0.00  0.00    +0.044 C 
ATOM      2  C   UNL     1       0.002  -0.004   0.002  0.00  0.00    -0.035 A 
ATOM      3  C   UNL     1       0.006  -0.707  -1.190  0.00  0.00    +0.027 A 
ATOM      4  C   UNL     1       0.026  -2.090  -1.165  0.00  0.00    +0.041 A 
ATOM      5  N   UNL     1       0.040  -2.751  -0.024  0.00  0.00    -0.232 NA
ATOM      6  C   UNL     1       0.037  -2.128   1.142  0.00  0.00    +0.165 A 
ATOM      7  C   UNL     1       0.023  -0.727   1.199  0.00  0.00    +0.059 A 
ATOM      8  N   UNL     1       0.052  -2.869   2.323  0.00  0.00    -0.220 N 
ATOM      9  C   UNL     1      -0.389  -4.147   2.473  0.00  0.00    +0.136 A 
ATOM     10  C   UNL     1      -0.198  -4.496   3.766  0.00  0.00    +0.079 A 
ATOM     11  C   UNL     1       0.376  -3.403   4.428  0.00  0.00    +0.154 A 
ATOM     12  N   UNL     1       0.531  -2.433   3.565  0.00  0.00    -0.172 NA
ATOM     13 CL   UNL     1      -0.596  -6.028   4.480  0.00  0.00    -0.080 Cl
ATOM     14  C   UNL     1       0.030  -2.854  -2.464  0.00  0.00    +0.065 C 
ENDROOT
BRANCH   7  15
ATOM     15  C   UNL     1       0.026  -0.027   2.500  0.00  0.00    +0.098 C 
ATOM     16  N   UNL     1       1.080  -0.127   3.308  0.00  0.00    -0.387 N 
ATOM     17  N   UNL     1      -1.027   0.703   2.866  0.00  0.00    -0.344 N 
ATOM     18  H   UNL     1       1.847  -0.658   3.042  0.00  0.00    +0.157 HD
ATOM     19  H   UNL     1      -1.795   0.775   2.277  0.00  0.00    +0.144 HD
ATOM     20  H   UNL     1      -1.026   1.163   3.720  0.00  0.00    +0.144 HD
ATOM     21  H   UNL     1       1.082   0.333   4.162  0.00  0.00    +0.157 HD
ENDBRANCH   7  15
TORSDOF 1
