REMARK  Name = ZINC65381673
REMARK  11 active torsions:
REMARK  status: ('A' for Active; 'I' for Inactive)
REMARK    1  A    between atoms: C_1  and  C_2
REMARK    2  A    between atoms: C_2  and  C_3
REMARK    3  A    between atoms: C_2  and  C_4
REMARK    4  A    between atoms: C_2  and  O_23
REMARK    5  A    between atoms: C_5  and  C_6
REMARK    6  A    between atoms: C_9  and  C_11
REMARK    7  A    between atoms: N_13  and  C_14
REMARK    8  A    between atoms: C_14  and  C_15
REMARK    9  A    between atoms: C_15  and  N_20
REMARK   10  A    between atoms: N_20  and  C_21
REMARK   11  A    between atoms: N_20  and  C_22
REMARK                            x       y       z     vdW  Elec       q    Type
REMARK                         _______ _______ _______ _____ _____    ______ ____
ROOT
ATOM      1  C   UNL     1      -6.336  -4.067   0.237  0.00  0.00    +0.279 C 
ATOM      2  O   UNL     1      -7.550  -4.027   0.165  0.00  0.00    -0.267 OA
ATOM      3  N   UNL     1      -5.697  -5.253   0.195  0.00  0.00    -0.310 N 
ATOM      4  H   UNL     1      -4.729  -5.284   0.253  0.00  0.00    +0.149 HD
ENDROOT
BRANCH   1   8
ATOM      5  C   UNL     1      -3.873  -1.440   0.570  0.00  0.00    +0.179 A 
ATOM      6  C   UNL     1      -5.018  -0.673   0.552  0.00  0.00    +0.059 A 
ATOM      7  C   UNL     1      -6.096  -1.554   0.425  0.00  0.00    +0.056 A 
ATOM      8  C   UNL     1      -5.569  -2.826   0.370  0.00  0.00    +0.191 A 
ATOM      9  O   UNL     1      -4.225  -2.733   0.453  0.00  0.00    -0.442 OA
BRANCH   5  11
ATOM     10  C   UNL     1      -1.438  -0.538   0.782  0.00  0.00    -0.060 C 
ATOM     11  C   UNL     1      -2.535  -0.944   0.687  0.00  0.00    -0.026 C 
BRANCH  10  13
ATOM     12  C   UNL     1      -0.091   1.498   1.013  0.00  0.00    +0.055 C 
ATOM     13  C   UNL     1      -0.062  -0.028   0.902  0.00  0.00    +0.121 C 
ATOM     14  C   UNL     1       0.593  -0.618   2.153  0.00  0.00    +0.055 C 
BRANCH  13  15
ATOM     15  O   UNL     1       0.689  -0.407  -0.253  0.00  0.00    -0.377 OA
ATOM     16  H   UNL     1       1.607  -0.104  -0.241  0.00  0.00    +0.211 HD
ENDBRANCH  13  15
ENDBRANCH  10  13
ENDBRANCH   5  11
ENDBRANCH   1   8
BRANCH   3  17
ATOM     17  C   UNL     1      -6.464  -6.494   0.062  0.00  0.00    +0.093 C 
BRANCH  17  18
ATOM     18  C   UNL     1      -5.502  -7.675  -0.081  0.00  0.00    -0.041 C 
ATOM     19  C   UNL     1      -6.315  -8.968  -0.103  0.00  0.00    +0.001 C 
ATOM     20  C   UNL     1      -6.701  -9.337  -1.563  0.00  0.00    +0.068 C 
ATOM     21  S   UNL     1      -5.131  -8.878  -2.421  0.00  0.00    -0.162 S 
ATOM     22  C   UNL     1      -4.646  -7.465  -1.345  0.00  0.00    +0.059 C 
BRANCH  18  23
ATOM     23  N   UNL     1      -4.614  -7.701   1.089  0.00  0.00    +0.381 N 
ATOM     24  C   UNL     1      -5.407  -7.947   2.301  0.00  0.00    -0.096 C 
ATOM     25  C   UNL     1      -3.622  -8.773   0.927  0.00  0.00    -0.096 C 
ATOM     26  H   UNL     1      -4.140  -6.814   1.172  0.00  0.00    -0.082 HD
ENDBRANCH  18  23
ENDBRANCH  17  18
ENDBRANCH   3  17
TORSDOF 7
