REMARK  Name = ZINC65506491
REMARK  6 active torsions:
REMARK  status: ('A' for Active; 'I' for Inactive)
REMARK    1  A    between atoms: C_1  and  C_2
REMARK    2  A    between atoms: C_2  and  C_28
REMARK    3  A    between atoms: C_4  and  C_9
REMARK    4  A    between atoms: C_11  and  C_22
REMARK    5  A    between atoms: N_15  and  C_16
REMARK    6  A    between atoms: C_16  and  C_17
REMARK                            x       y       z     vdW  Elec       q    Type
REMARK                         _______ _______ _______ _____ _____    ______ ____
ROOT
ATOM      1  C   UNL     1      -3.636  -0.595   1.293  0.00  0.00    -0.041 C 
ATOM      2  C   UNL     1      -3.511  -2.130   1.254  0.00  0.00    +0.069 C 
ATOM      3  N   UNL     1      -4.018  -2.604   2.564  0.00  0.00    -0.327 NA
ATOM      4  C   UNL     1      -3.849  -1.440   3.471  0.00  0.00    +0.006 C 
ATOM      5  N   UNL     1      -4.208  -0.272   2.622  0.00  0.00    +0.396 N 
ATOM      6  H   UNL     1      -4.987  -2.876   2.499  0.00  0.00    +0.120 HD
ATOM      7  H   UNL     1      -5.210  -0.176   2.559  0.00  0.00    -0.079 HD
ENDROOT
BRANCH   1  11
ATOM      8  C   UNL     1      -0.389   1.944  -0.141  0.00  0.00    +0.041 C 
ATOM      9  C   UNL     1      -0.346   0.439  -0.418  0.00  0.00    +0.064 C 
ATOM     10  C   UNL     1      -1.757  -0.143  -0.295  0.00  0.00    +0.036 C 
ATOM     11  C   UNL     1      -2.257   0.052   1.140  0.00  0.00    -0.018 C 
ATOM     12  C   UNL     1      -1.270  -0.607   2.107  0.00  0.00    +0.030 C 
ATOM     13  C   UNL     1       0.122  -0.007   1.891  0.00  0.00    +0.161 C 
ATOM     14  O   UNL     1       0.514  -0.195   0.530  0.00  0.00    -0.374 OA
ATOM     15  C   UNL     1       0.185   0.196  -1.832  0.00  0.00    +0.041 C 
ENDBRANCH   1  11
BRANCH   2  16
ATOM     16  C   UNL     1      -4.348  -2.692   0.135  0.00  0.00    -0.032 A 
ATOM     17  C   UNL     1      -5.712  -2.846   0.302  0.00  0.00    +0.005 A 
ATOM     18  C   UNL     1      -6.480  -3.362  -0.725  0.00  0.00    +0.000 A 
ATOM     19  C   UNL     1      -5.885  -3.724  -1.919  0.00  0.00    +0.000 A 
ATOM     20  C   UNL     1      -4.521  -3.570  -2.086  0.00  0.00    +0.000 A 
ATOM     21  C   UNL     1      -3.754  -3.050  -1.061  0.00  0.00    +0.005 A 
ENDBRANCH   2  16
BRANCH   5  22
ATOM     22  C   UNL     1      -3.605   0.956   3.155  0.00  0.00    -0.001 C 
BRANCH  22  23
ATOM     23  C   UNL     1      -4.303   1.345   4.433  0.00  0.00    +0.090 A 
ATOM     24  N   UNL     1      -3.895   1.030   5.681  0.00  0.00    -0.350 N 
ATOM     25  C   UNL     1      -4.802   1.569   6.552  0.00  0.00    +0.103 A 
ATOM     26  C   UNL     1      -5.733   2.195   5.807  0.00  0.00    +0.130 A 
ATOM     27  N   UNL     1      -5.401   2.047   4.516  0.00  0.00    -0.243 NA
ATOM     28  H   UNL     1      -3.106   0.517   5.915  0.00  0.00    +0.166 HD
ENDBRANCH  22  23
ENDBRANCH   5  22
TORSDOF 4
