REMARK  Name = ZINC66533378
REMARK  6 active torsions:
REMARK  status: ('A' for Active; 'I' for Inactive)
REMARK    1  A    between atoms: C_1  and  C_2
REMARK    2  A    between atoms: C_2  and  C_4
REMARK    3  A    between atoms: C_2  and  N_15
REMARK    4  A    between atoms: N_9  and  C_10
REMARK    5  A    between atoms: C_10  and  C_11
REMARK    6  A    between atoms: C_18  and  N_21
REMARK                            x       y       z     vdW  Elec       q    Type
REMARK                         _______ _______ _______ _____ _____    ______ ____
ROOT
ATOM      1  C   UNL     1       1.271  -0.094  -0.848  0.00  0.00    +0.034 C 
ATOM      2  C   UNL     1       0.002  -0.004   0.002  0.00  0.00    +0.140 C 
ENDROOT
BRANCH   2   3
ATOM      3  C   UNL     1      -0.404   1.440   0.147  0.00  0.00    +0.237 C 
ATOM      4  O   UNL     1      -0.219   2.019   1.196  0.00  0.00    -0.274 OA
ATOM      5  N   UNL     1      -0.974   2.087  -0.889  0.00  0.00    -0.239 N 
ATOM      6  C   UNL     1      -1.337   3.378  -0.759  0.00  0.00    +0.306 C 
ATOM      7  O   UNL     1      -1.151   3.959   0.292  0.00  0.00    -0.252 OA
ATOM      8  N   UNL     1      -1.906   4.026  -1.796  0.00  0.00    -0.291 N 
ATOM      9  H   UNL     1      -1.122   1.623  -1.728  0.00  0.00    +0.159 HD
ATOM     10  H   UNL     1      -2.054   3.562  -2.635  0.00  0.00    +0.151 HD
BRANCH   8  11
ATOM     11  C   UNL     1      -2.301   5.429  -1.655  0.00  0.00    +0.219 C 
BRANCH  11  12
ATOM     12  C   UNL     1      -2.918   5.920  -2.966  0.00  0.00    +0.405 C 
ATOM     13  F   UNL     1      -4.043   5.147  -3.270  0.00  0.00    -0.169 F 
ATOM     14  F   UNL     1      -3.295   7.260  -2.832  0.00  0.00    -0.169 F 
ATOM     15  F   UNL     1      -1.978   5.801  -3.996  0.00  0.00    -0.169 F 
ENDBRANCH  11  12
ENDBRANCH   8  11
ENDBRANCH   2   3
BRANCH   2  16
ATOM     16  N   UNL     1       0.261  -0.576   1.330  0.00  0.00    -0.292 NA
ATOM     17  C   UNL     1       0.277  -2.043   1.278  0.00  0.00    +0.083 C 
ATOM     18  C   UNL     1       0.402  -2.604   2.696  0.00  0.00    +0.000 C 
ATOM     19  C   UNL     1       1.694  -2.084   3.333  0.00  0.00    -0.066 C 
ATOM     20  C   UNL     1       1.673  -0.553   3.331  0.00  0.00    +0.000 C 
ATOM     21  C   UNL     1       1.511  -0.051   1.895  0.00  0.00    +0.083 C 
BRANCH  19  22
ATOM     22  N   UNL     1       1.791  -2.572   4.715  0.00  0.00    +0.382 N 
ATOM     23  C   UNL     1       3.047  -2.089   5.326  0.00  0.00    -0.079 C 
ATOM     24  C   UNL     1       3.518  -3.252   6.235  0.00  0.00    -0.020 C 
ATOM     25  C   UNL     1       3.121  -4.490   5.389  0.00  0.00    -0.020 C 
ATOM     26  C   UNL     1       1.804  -4.047   4.720  0.00  0.00    -0.079 C 
ATOM     27  H   UNL     1       1.004  -2.237   5.250  0.00  0.00    -0.081 HD
ENDBRANCH  19  22
ENDBRANCH   2  16
TORSDOF 5
