REMARK  Name = ZINC43111770
REMARK  9 active torsions:
REMARK  status: ('A' for Active; 'I' for Inactive)
REMARK    1  A    between atoms: C_1  and  C_2
REMARK    2  A    between atoms: C_2  and  C_3
REMARK    3  A    between atoms: C_2  and  C_4
REMARK    4  A    between atoms: C_2  and  O_5
REMARK    5  A    between atoms: O_5  and  C_6
REMARK    6  A    between atoms: N_8  and  N_9
REMARK    7  A    between atoms: N_12  and  C_13
REMARK    8  A    between atoms: C_13  and  C_14
REMARK    9  A    between atoms: C_14  and  N_20
REMARK                            x       y       z     vdW  Elec       q    Type
REMARK                         _______ _______ _______ _____ _____    ______ ____
ROOT
ATOM      1  N   UNL     1       3.960  -5.395  -6.069  0.00  0.00    -0.216 N 
ATOM      2  C   UNL     1       3.828  -4.055  -6.017  0.00  0.00    +0.316 C 
ATOM      3  O   UNL     1       2.722  -3.551  -6.055  0.00  0.00    -0.251 OA
ATOM      4  N   UNL     1       4.922  -3.273  -5.923  0.00  0.00    -0.300 N 
ATOM      5  H   UNL     1       3.172  -5.958  -6.137  0.00  0.00    +0.174 HD
ATOM      6  H   UNL     1       5.804  -3.675  -5.893  0.00  0.00    +0.150 HD
ENDROOT
BRANCH   1   9
ATOM      7  C   UNL     1       5.366  -7.316  -6.078  0.00  0.00    +0.417 C 
ATOM      8  O   UNL     1       6.471  -7.820  -6.040  0.00  0.00    -0.225 OA
ATOM      9  N   UNL     1       5.234  -5.976  -6.026  0.00  0.00    -0.198 N 
ATOM     10  H   UNL     1       6.021  -5.413  -5.958  0.00  0.00    +0.176 HD
BRANCH   7  11
ATOM     11  O   UNL     1       4.273  -8.097  -6.171  0.00  0.00    -0.444 OA
BRANCH  11  13
ATOM     12  C   UNL     1       5.208  -9.961  -4.950  0.00  0.00    +0.055 C 
ATOM     13  C   UNL     1       4.487  -9.509  -6.222  0.00  0.00    +0.107 C 
ATOM     14  C   UNL     1       5.343  -9.852  -7.443  0.00  0.00    +0.055 C 
ATOM     15  C   UNL     1       3.139 -10.226  -6.327  0.00  0.00    +0.055 C 
ENDBRANCH  11  13
ENDBRANCH   7  11
ENDBRANCH   1   9
BRANCH   4  16
ATOM     16  C   UNL     1       4.779  -1.816  -5.867  0.00  0.00    +0.094 C 
BRANCH  16  17
ATOM     17  C   UNL     1       6.149  -1.178  -5.633  0.00  0.00    -0.050 C 
ATOM     18  C   UNL     1       5.983   0.331  -5.442  0.00  0.00    -0.010 C 
ATOM     19  C   UNL     1       5.345   0.937  -6.694  0.00  0.00    -0.001 C 
ATOM     20  C   UNL     1       6.244   0.672  -7.904  0.00  0.00    -0.000 C 
ATOM     21  C   UNL     1       6.410  -0.837  -8.095  0.00  0.00    -0.001 C 
ATOM     22  C   UNL     1       7.048  -1.442  -6.843  0.00  0.00    -0.010 C 
BRANCH  17  23
ATOM     23  N   UNL     1       6.762  -1.759  -4.431  0.00  0.00    +0.384 N 
ATOM     24  C   UNL     1       5.878  -1.542  -3.280  0.00  0.00    -0.078 C 
ATOM     25  C   UNL     1       6.473  -2.216  -2.041  0.00  0.00    -0.019 C 
ATOM     26  C   UNL     1       7.850  -1.613  -1.751  0.00  0.00    -0.004 C 
ATOM     27  C   UNL     1       8.740  -1.779  -2.986  0.00  0.00    -0.019 C 
ATOM     28  C   UNL     1       8.061  -1.121  -4.189  0.00  0.00    -0.078 C 
ATOM     29  H   UNL     1       6.895  -2.750  -4.569  0.00  0.00    -0.081 HD
ENDBRANCH  17  23
ENDBRANCH  16  17
ENDBRANCH   4  16
TORSDOF 6
