REMARK  Name = ZINC20463808
REMARK  9 active torsions:
REMARK  status: ('A' for Active; 'I' for Inactive)
REMARK    1  A    between atoms: C_1  and  C_2
REMARK    2  A    between atoms: C_5  and  C_24
REMARK    3  A    between atoms: C_6  and  N_8
REMARK    4  A    between atoms: C_12  and  N_13
REMARK    5  A    between atoms: N_13  and  C_14
REMARK    6  A    between atoms: C_14  and  C_15
REMARK    7  A    between atoms: C_15  and  N_16
REMARK    8  A    between atoms: N_16  and  C_17
REMARK    9  A    between atoms: N_16  and  C_18
REMARK                            x       y       z     vdW  Elec       q    Type
REMARK                         _______ _______ _______ _____ _____    ______ ____
ROOT
ATOM      1  N   UNL     1       0.046  -3.147   2.230  0.00  0.00    -0.217 N 
ATOM      2  C   UNL     1       1.215  -3.258   2.894  0.00  0.00    +0.263 C 
ATOM      3  O   UNL     1       2.223  -2.716   2.481  0.00  0.00    -0.269 OA
ATOM      4  C   UNL     1       1.239  -4.054   4.135  0.00  0.00    +0.113 C 
ATOM      5  C   UNL     1       2.399  -4.212   4.868  0.00  0.00    +0.085 C 
ATOM      6  C   UNL     1      -0.030  -4.674   4.558  0.00  0.00    +0.256 C 
ATOM      7  O   UNL     1      -0.090  -5.345   5.571  0.00  0.00    -0.270 OA
ATOM      8  N   UNL     1      -1.123  -4.476   3.793  0.00  0.00    -0.263 N 
ATOM      9  C   UNL     1      -1.072  -3.735   2.678  0.00  0.00    +0.150 C 
ATOM     10  S   UNL     1      -2.511  -3.533   1.772  0.00  0.00    -0.018 S 
ATOM     11  H   UNL     1      -1.966  -4.877   4.058  0.00  0.00    +0.157 HD
ENDROOT
BRANCH   1  17
ATOM     12  C   UNL     1      -0.644   1.175  -0.012  0.00  0.00    +0.044 C 
ATOM     13  C   UNL     1      -0.334  -0.299  -0.066  0.00  0.00    -0.049 A 
ATOM     14  C   UNL     1      -0.095  -0.910  -1.284  0.00  0.00    +0.004 A 
ATOM     15  C   UNL     1       0.191  -2.262  -1.337  0.00  0.00    +0.005 A 
ATOM     16  C   UNL     1       0.238  -3.006  -0.174  0.00  0.00    -0.029 A 
ATOM     17  C   UNL     1      -0.001  -2.395   1.049  0.00  0.00    +0.046 A 
ATOM     18  C   UNL     1      -0.282  -1.036   1.100  0.00  0.00    +0.027 A 
ATOM     19  C   UNL     1       0.549  -4.479  -0.234  0.00  0.00    +0.045 C 
ENDBRANCH   1  17
BRANCH   5  20
ATOM     20  N   UNL     1       2.356  -4.805   6.079  0.00  0.00    -0.351 N 
ATOM     21  H   UNL     1       1.502  -5.048   6.470  0.00  0.00    +0.145 HD
BRANCH  20  22
ATOM     22  C   UNL     1       3.599  -5.082   6.803  0.00  0.00    +0.082 C 
BRANCH  22  23
ATOM     23  C   UNL     1       3.272  -5.753   8.139  0.00  0.00    -0.061 C 
BRANCH  23  24
ATOM     24  N   UNL     1       4.518  -6.031   8.865  0.00  0.00    +0.377 N 
ATOM     25  C   UNL     1       5.173  -4.764   9.217  0.00  0.00    -0.097 C 
ATOM     26  C   UNL     1       4.213  -6.782  10.091  0.00  0.00    -0.097 C 
ATOM     27  H   UNL     1       5.134  -6.577   8.281  0.00  0.00    -0.083 HD
ENDBRANCH  23  24
ENDBRANCH  22  23
ENDBRANCH  20  22
ENDBRANCH   5  20
TORSDOF 5
