REMARK  Name = ZINC51542702
REMARK  6 active torsions:
REMARK  status: ('A' for Active; 'I' for Inactive)
REMARK    1  A    between atoms: C_1  and  C_2
REMARK    2  A    between atoms: C_8  and  C_10
REMARK    3  A    between atoms: C_10  and  O_11
REMARK    4  A    between atoms: O_11  and  C_12
REMARK    5  A    between atoms: C_16  and  C_18
REMARK    6  A    between atoms: C_18  and  N_19
REMARK                            x       y       z     vdW  Elec       q    Type
REMARK                         _______ _______ _______ _____ _____    ______ ____
ROOT
ATOM      1  C   UNL     1       4.251  -0.494   2.340  0.00  0.00    +0.215 A 
ATOM      2  C   UNL     1       4.987  -1.035   3.387  0.00  0.00    +0.068 A 
ATOM      3  C   UNL     1       6.347  -0.790   3.451  0.00  0.00    +0.027 A 
ATOM      4  C   UNL     1       6.927  -0.009   2.459  0.00  0.00    +0.061 A 
ATOM      5  C   UNL     1       6.134   0.496   1.447  0.00  0.00    +0.046 A 
ATOM      6  N   UNL     1       4.840   0.240   1.411  0.00  0.00    -0.218 NA
ATOM      7 CL   UNL     1       8.630   0.329   2.491  0.00  0.00    -0.082 Cl
ENDROOT
BRANCH   1   8
ATOM      8  O   UNL     1       2.916  -0.727   2.266  0.00  0.00    -0.476 OA
BRANCH   8   9
ATOM      9  C   UNL     1       2.217  -0.148   1.163  0.00  0.00    +0.235 C 
BRANCH   9  16
ATOM     10  C   UNL     1      -0.019   1.526   0.010  0.00  0.00    +0.008 C 
ATOM     11  C   UNL     1       0.002  -0.004   0.002  0.00  0.00    -0.004 C 
ATOM     12  C   UNL     1      -1.432  -0.538   0.023  0.00  0.00    +0.030 C 
ATOM     13  C   UNL     1      -2.060  -0.279   1.361  0.00  0.00    -0.031 C 
ATOM     14  C   UNL     1      -1.393   0.012   2.432  0.00  0.00    -0.031 C 
ATOM     15  C   UNL     1       0.102   0.141   2.482  0.00  0.00    +0.034 C 
ATOM     16  C   UNL     1       0.734  -0.517   1.249  0.00  0.00    +0.033 C 
ENDBRANCH   9  16
ENDBRANCH   8   9
ENDBRANCH   1   8
BRANCH   5  17
ATOM     17  C   UNL     1       6.755   1.344   0.367  0.00  0.00    -0.028 C 
BRANCH  17  18
ATOM     18  N   UNL     1       7.197   0.483  -0.738  0.00  0.00    +0.382 N 
ATOM     19  H   UNL     1       7.613   1.051  -1.461  0.00  0.00    -0.090 HD
ATOM     20  H   UNL     1       7.877  -0.179  -0.398  0.00  0.00    -0.090 HD
ATOM     21  H   UNL     1       6.403  -0.013  -1.115  0.00  0.00    -0.090 HD
ENDBRANCH  17  18
ENDBRANCH   5  17
TORSDOF 5
