REMARK  Name = ZINC53036010
REMARK  7 active torsions:
REMARK  status: ('A' for Active; 'I' for Inactive)
REMARK    1  A    between atoms: C_1  and  C_2
REMARK    2  A    between atoms: C_5  and  O_22
REMARK    3  A    between atoms: C_8  and  C_21
REMARK    4  A    between atoms: C_11  and  N_13
REMARK    5  A    between atoms: N_13  and  C_14
REMARK    6  A    between atoms: C_14  and  C_15
REMARK    7  A    between atoms: C_18  and  C_20
REMARK                            x       y       z     vdW  Elec       q    Type
REMARK                         _______ _______ _______ _____ _____    ______ ____
ROOT
ATOM      1  C   UNL     1      -0.110   1.633   0.268  0.00  0.00    +0.044 C 
ATOM      2  C   UNL     1      -0.044   0.130   0.179  0.00  0.00    -0.047 A 
ATOM      3  C   UNL     1      -0.013  -0.485  -1.058  0.00  0.00    +0.007 A 
ATOM      4  C   UNL     1       0.047  -1.862  -1.144  0.00  0.00    +0.046 A 
ATOM      5  C   UNL     1       0.076  -2.625   0.013  0.00  0.00    +0.119 A 
ATOM      6  C   UNL     1       0.044  -2.007   1.257  0.00  0.00    -0.016 A 
ATOM      7  C   UNL     1      -0.010  -0.628   1.338  0.00  0.00    -0.037 A 
ATOM      8  C   UNL     1      -0.028  -0.201   2.790  0.00  0.00    +0.015 C 
ATOM      9  C   UNL     1      -0.413  -1.470   3.580  0.00  0.00    -0.003 C 
ATOM     10  C   UNL     1       0.065  -2.601   2.649  0.00  0.00    -0.036 C 
ATOM     11  C   UNL     1       1.356   0.292   3.216  0.00  0.00    +0.012 C 
ENDROOT
BRANCH  10  12
ATOM     12  N   UNL     1       1.431  -3.000   3.013  0.00  0.00    +0.388 N 
ATOM     13  H   UNL     1       1.803  -3.613   2.303  0.00  0.00    -0.084 HD
ATOM     14  H   UNL     1       2.013  -2.179   3.086  0.00  0.00    -0.084 HD
BRANCH  12  15
ATOM     15  C   UNL     1       1.409  -3.701   4.304  0.00  0.00    -0.006 C 
BRANCH  15  16
ATOM     16  C   UNL     1       2.789  -4.221   4.616  0.00  0.00    +0.088 A 
ATOM     17  C   UNL     1       3.744  -3.560   5.295  0.00  0.00    +0.043 A 
ATOM     18  C   UNL     1       4.869  -4.414   5.355  0.00  0.00    +0.044 A 
ATOM     19  C   UNL     1       4.535  -5.545   4.709  0.00  0.00    +0.102 A 
ATOM     20  O   UNL     1       3.272  -5.425   4.269  0.00  0.00    -0.467 OA
ATOM     21  C   UNL     1       5.424  -6.747   4.517  0.00  0.00    +0.086 C 
ENDBRANCH  15  16
ENDBRANCH  12  15
ENDBRANCH  10  12
BRANCH   5  22
ATOM     22  O   UNL     1       0.134  -3.981  -0.069  0.00  0.00    -0.507 OA
ATOM     23  H   UNL     1       1.031  -4.330  -0.167  0.00  0.00    +0.292 HD
ENDBRANCH   5  22
TORSDOF 4
