REMARK  Name = ZINC34992479
REMARK  10 active torsions:
REMARK  status: ('A' for Active; 'I' for Inactive)
REMARK    1  A    between atoms: C_1  and  C_2
REMARK    2  A    between atoms: C_4  and  C_21
REMARK    3  A    between atoms: C_5  and  C_9
REMARK    4  A    between atoms: C_7  and  C_8
REMARK    5  A    between atoms: C_9  and  N_10
REMARK    6  A    between atoms: N_10  and  C_11
REMARK    7  A    between atoms: C_11  and  C_12
REMARK    8  A    between atoms: C_12  and  N_18
REMARK    9  A    between atoms: N_18  and  C_19
REMARK   10  A    between atoms: N_18  and  C_20
REMARK                            x       y       z     vdW  Elec       q    Type
REMARK                         _______ _______ _______ _____ _____    ______ ____
ROOT
ATOM      1  N   UNL     1       1.559  -4.564  -0.196  0.00  0.00    +0.381 N 
ATOM      2  H   UNL     1       1.712  -4.264  -1.147  0.00  0.00    -0.086 HD
ATOM      3  H   UNL     1       2.291  -4.197   0.394  0.00  0.00    -0.086 HD
ENDROOT
BRANCH   1   4
ATOM      4  C   UNL     1       0.259  -4.066   0.272  0.00  0.00    -0.047 C 
BRANCH   4   9
ATOM      5  C   UNL     1       0.208   1.708   0.041  0.00  0.00    +0.044 C 
ATOM      6  C   UNL     1       0.221   0.203   0.101  0.00  0.00    -0.047 A 
ATOM      7  C   UNL     1       0.008  -0.537  -1.047  0.00  0.00    +0.007 A 
ATOM      8  C   UNL     1       0.021  -1.918  -0.992  0.00  0.00    -0.049 A 
ATOM      9  C   UNL     1       0.246  -2.560   0.211  0.00  0.00    -0.061 A 
ATOM     10  C   UNL     1       0.460  -1.820   1.359  0.00  0.00    +0.005 A 
ATOM     11  C   UNL     1       0.452  -0.439   1.303  0.00  0.00    -0.047 A 
ATOM     12  C   UNL     1       0.691   0.367   2.554  0.00  0.00    +0.044 C 
ATOM     13  C   UNL     1      -0.212  -2.724  -2.244  0.00  0.00    +0.044 C 
ENDBRANCH   4   9
ENDBRANCH   1   4
BRANCH   1  14
ATOM     14  C   UNL     1       1.571  -6.031  -0.137  0.00  0.00    -0.094 C 
BRANCH  14  15
ATOM     15  C   UNL     1       2.949  -6.547  -0.557  0.00  0.00    -0.082 C 
ATOM     16  C   UNL     1       2.927  -8.076  -0.610  0.00  0.00    -0.014 C 
ATOM     17  C   UNL     1       2.574  -8.630   0.772  0.00  0.00    -0.001 C 
ATOM     18  C   UNL     1       3.622  -8.170   1.788  0.00  0.00    -0.000 C 
ATOM     19  C   UNL     1       3.644  -6.641   1.841  0.00  0.00    -0.001 C 
ATOM     20  C   UNL     1       3.997  -6.088   0.459  0.00  0.00    -0.014 C 
BRANCH  15  21
ATOM     21  N   UNL     1       3.287  -6.016  -1.884  0.00  0.00    +0.379 N 
ATOM     22  C   UNL     1       4.576  -6.571  -2.320  0.00  0.00    -0.096 C 
ATOM     23  C   UNL     1       2.241  -6.394  -2.844  0.00  0.00    -0.096 C 
ATOM     24  H   UNL     1       3.353  -5.010  -1.837  0.00  0.00    -0.082 HD
ENDBRANCH  15  21
ENDBRANCH  14  15
ENDBRANCH   1  14
TORSDOF 5
