REMARK  Name = ZINC63197439
REMARK  5 active torsions:
REMARK  status: ('A' for Active; 'I' for Inactive)
REMARK    1  A    between atoms: C_1  and  C_2
REMARK    2  A    between atoms: C_5  and  N_12
REMARK    3  A    between atoms: C_8  and  C_10
REMARK    4  A    between atoms: C_8  and  C_11
REMARK    5  A    between atoms: C_15  and  C_18
REMARK                            x       y       z     vdW  Elec       q    Type
REMARK                         _______ _______ _______ _____ _____    ______ ____
ROOT
ATOM      1  N   UNL     1      -2.721  -2.764   0.111  0.00  0.00    +0.382 N 
ATOM      2  C   UNL     1      -3.476  -2.101  -0.960  0.00  0.00    -0.078 C 
ATOM      3  C   UNL     1      -4.938  -2.550  -0.910  0.00  0.00    -0.017 C 
ATOM      4  C   UNL     1      -5.007  -4.068  -1.099  0.00  0.00    -0.029 C 
ATOM      5  C   UNL     1      -4.156  -4.746  -0.022  0.00  0.00    -0.017 C 
ATOM      6  C   UNL     1      -2.722  -4.216  -0.104  0.00  0.00    -0.078 C 
ATOM      7  H   UNL     1      -3.149  -2.556   1.000  0.00  0.00    -0.081 HD
ENDROOT
BRANCH   1  11
ATOM      8  C   UNL     1       0.112   1.268   0.553  0.00  0.00    +0.007 C 
ATOM      9  C   UNL     1       0.108  -0.245   0.329  0.00  0.00    -0.015 C 
ATOM     10  C   UNL     1      -1.333  -0.758   0.332  0.00  0.00    -0.012 C 
ATOM     11  C   UNL     1      -1.337  -2.272   0.108  0.00  0.00    -0.068 C 
ATOM     12  C   UNL     1      -0.551  -2.954   1.229  0.00  0.00    -0.009 C 
ATOM     13  C   UNL     1       0.891  -2.442   1.227  0.00  0.00    -0.036 C 
ATOM     14  C   UNL     1       0.894  -0.928   1.450  0.00  0.00    +0.009 C 
ATOM     15  C   UNL     1       1.677  -3.125   2.348  0.00  0.00    +0.011 C 
ATOM     16  C   UNL     1       1.543  -2.760  -0.120  0.00  0.00    +0.011 C 
ENDBRANCH   1  11
BRANCH   4  17
ATOM     17  C   UNL     1      -6.459  -4.534  -0.972  0.00  0.00    -0.069 C 
ATOM     18  C   UNL     1      -6.534  -6.068  -1.125  0.00  0.00    -0.017 C 
ATOM     19  C   UNL     1      -7.839  -6.275  -1.937  0.00  0.00    -0.021 C 
ATOM     20  C   UNL     1      -7.821  -5.044  -2.878  0.00  0.00    -0.082 C 
ATOM     21  N   UNL     1      -7.272  -3.944  -2.051  0.00  0.00    +0.381 N 
ATOM     22  H   UNL     1      -8.027  -3.406  -1.653  0.00  0.00    -0.086 HD
ATOM     23  H   UNL     1      -6.694  -3.345  -2.622  0.00  0.00    -0.086 HD
ENDBRANCH   4  17
TORSDOF 2
