REMARK  Name = ZINC63284537
REMARK  8 active torsions:
REMARK  status: ('A' for Active; 'I' for Inactive)
REMARK    1  A    between atoms: C_1  and  O_2
REMARK    2  A    between atoms: O_2  and  C_3
REMARK    3  A    between atoms: C_8  and  S_13
REMARK    4  A    between atoms: S_13  and  C_14
REMARK    5  A    between atoms: C_14  and  C_15
REMARK    6  A    between atoms: N_17  and  C_18
REMARK    7  A    between atoms: C_21  and  O_27
REMARK    8  A    between atoms: C_22  and  C_24
REMARK                            x       y       z     vdW  Elec       q    Type
REMARK                         _______ _______ _______ _____ _____    ______ ____
ROOT
ATOM      1  C   UNL     1       4.632  -3.796  -2.337  0.00  0.00    +0.169 C 
ENDROOT
BRANCH   1   2
ATOM      2  C   UNL     1       5.980  -4.405  -2.052  0.00  0.00    +0.227 C 
ATOM      3  O   UNL     1       6.330  -5.406  -2.640  0.00  0.00    -0.275 OA
ATOM      4  N   UNL     1       6.797  -3.838  -1.142  0.00  0.00    -0.285 N 
ATOM      5  H   UNL     1       6.547  -3.001  -0.721  0.00  0.00    +0.155 HD
BRANCH   4   6
ATOM      6  C   UNL     1       8.009  -4.457  -0.806  0.00  0.00    +0.034 A 
ATOM      7  C   UNL     1       8.733  -5.139  -1.779  0.00  0.00    +0.027 A 
ATOM      8  C   UNL     1       9.927  -5.752  -1.458  0.00  0.00    +0.048 A 
ATOM      9  C   UNL     1      10.415  -5.692  -0.161  0.00  0.00    +0.131 A 
ATOM     10  C   UNL     1       9.691  -5.006   0.825  0.00  0.00    +0.106 A 
ATOM     11  C   UNL     1       8.485  -4.383   0.491  0.00  0.00    +0.042 A 
BRANCH  10  12
ATOM     12  C   UNL     1      10.202  -4.937   2.204  0.00  0.00    +0.390 C 
ATOM     13  O   UNL     1       9.568  -4.338   3.062  0.00  0.00    -0.240 OA
ATOM     14  O   UNL     1      11.260  -5.479   2.492  0.00  0.00    -0.240 OA
ENDBRANCH  10  12
BRANCH   9  15
ATOM     15  O   UNL     1      11.589  -6.295   0.153  0.00  0.00    -0.506 OA
ATOM     16  H   UNL     1      12.364  -5.727   0.045  0.00  0.00    +0.292 HD
ENDBRANCH   9  15
ENDBRANCH   4   6
ENDBRANCH   1   2
BRANCH   1  17
ATOM     17  S   UNL     1       3.777  -4.782  -3.597  0.00  0.00    -0.106 S 
BRANCH  17  23
ATOM     18  C   UNL     1       0.620  -0.576  -1.084  0.00  0.00    +0.122 A 
ATOM     19  C   UNL     1       1.215   0.243  -2.132  0.00  0.00    +0.048 A 
ATOM     20  C   UNL     1       1.826  -0.303  -3.200  0.00  0.00    +0.031 A 
ATOM     21  C   UNL     1       1.904  -1.766  -3.328  0.00  0.00    +0.061 A 
ATOM     22  N   UNL     1       2.424  -2.539  -4.238  0.00  0.00    -0.355 N 
ATOM     23  C   UNL     1       2.193  -3.928  -3.823  0.00  0.00    +0.236 C 
ATOM     24  N   UNL     1       1.467  -3.865  -2.549  0.00  0.00    -0.355 N 
ATOM     25  C   UNL     1       1.298  -2.603  -2.258  0.00  0.00    +0.064 A 
ATOM     26  C   UNL     1       0.656  -1.930  -1.127  0.00  0.00    +0.073 A 
ATOM     27  H   UNL     1       2.882  -2.250  -5.043  0.00  0.00    +0.162 HD
ATOM     28  H   UNL     1       1.168  -4.621  -2.020  0.00  0.00    +0.162 HD
BRANCH  18  30
ATOM     29  C   UNL     1       0.006   1.464  -0.032  0.00  0.00    +0.277 C 
ATOM     30  O   UNL     1       0.018   0.035  -0.033  0.00  0.00    -0.495 OA
ENDBRANCH  18  30
ENDBRANCH  17  23
ENDBRANCH   1  17
TORSDOF 7
