REMARK  Name = ZINC64062500
REMARK  7 active torsions:
REMARK  status: ('A' for Active; 'I' for Inactive)
REMARK    1  A    between atoms: C_1  and  O_2
REMARK    2  A    between atoms: O_2  and  C_3
REMARK    3  A    between atoms: C_10  and  C_18
REMARK    4  A    between atoms: C_20  and  O_35
REMARK    5  A    between atoms: C_22  and  O_34
REMARK    6  A    between atoms: N_24  and  C_27
REMARK    7  A    between atoms: C_27  and  C_28
REMARK                            x       y       z     vdW  Elec       q    Type
REMARK                         _______ _______ _______ _____ _____    ______ ____
ROOT
ATOM      1  C   UNL     1       4.011  -4.988  -5.211  0.00  0.00    +0.179 C 
ATOM      2  C   UNL     1       3.009  -5.682  -6.086  0.00  0.00    +0.200 C 
ATOM      3  N   UNL     1       3.059  -6.931  -6.342  0.00  0.00    -0.204 NA
ATOM      4  C   UNL     1       4.075  -7.832  -5.823  0.00  0.00    +0.334 C 
ATOM      5  N   UNL     1       5.268  -7.119  -5.388  0.00  0.00    -0.252 N 
ATOM      6  C   UNL     1       5.258  -5.817  -5.093  0.00  0.00    +0.233 C 
ATOM      7  O   UNL     1       6.286  -5.292  -4.719  0.00  0.00    -0.275 OA
ENDROOT
BRANCH   1  14
ATOM      8  C   UNL     1       0.606  -0.607  -1.056  0.00  0.00    +0.121 A 
ATOM      9  C   UNL     1       1.172   0.195  -2.062  0.00  0.00    +0.047 A 
ATOM     10  C   UNL     1       1.785  -0.326  -3.146  0.00  0.00    +0.029 A 
ATOM     11  C   UNL     1       1.877  -1.780  -3.304  0.00  0.00    +0.043 A 
ATOM     12  N   UNL     1       2.429  -2.527  -4.233  0.00  0.00    -0.376 N 
ATOM     13  C   UNL     1       2.142  -3.925  -3.931  0.00  0.00    +0.124 C 
ATOM     14  C   UNL     1       3.409  -4.777  -3.821  0.00  0.00    +0.101 C 
ATOM     15  N   UNL     1       3.044  -6.077  -3.236  0.00  0.00    -0.310 NA
ATOM     16  C   UNL     1       2.601  -5.980  -1.842  0.00  0.00    +0.085 C 
ATOM     17  C   UNL     1       1.285  -5.183  -1.760  0.00  0.00    +0.048 C 
ATOM     18  C   UNL     1       1.488  -3.914  -2.558  0.00  0.00    -0.036 C 
ATOM     19  C   UNL     1       1.288  -2.630  -2.238  0.00  0.00    +0.003 A 
ATOM     20  C   UNL     1       0.646  -1.960  -1.101  0.00  0.00    +0.055 A 
ATOM     21  H   UNL     1       2.354  -6.548  -3.802  0.00  0.00    +0.122 HD
ATOM     22  H   UNL     1       2.941  -2.204  -4.991  0.00  0.00    +0.160 HD
BRANCH   8  24
ATOM     23  C   UNL     1      -0.017   1.425   0.010  0.00  0.00    +0.277 C 
ATOM     24  O   UNL     1       0.002  -0.004   0.002  0.00  0.00    -0.495 OA
ENDBRANCH   8  24
ENDBRANCH   1  14
BRANCH   4  25
ATOM     25  O   UNL     1       3.535  -8.551  -4.713  0.00  0.00    -0.356 OA
ATOM     26  H   UNL     1       2.759  -9.085  -4.931  0.00  0.00    +0.214 HD
ENDBRANCH   4  25
BRANCH   2  27
ATOM     27  O   UNL     1       2.011  -4.952  -6.627  0.00  0.00    -0.495 OA
ATOM     28  H   UNL     1       1.403  -5.464  -7.179  0.00  0.00    +0.293 HD
ENDBRANCH   2  27
BRANCH   5  29
ATOM     29  C   UNL     1       6.526  -7.861  -5.268  0.00  0.00    +0.147 C 
BRANCH  29  30
ATOM     30  C   UNL     1       7.267  -7.807  -6.580  0.00  0.00    -0.030 A 
ATOM     31  C   UNL     1       7.047  -8.779  -7.538  0.00  0.00    +0.005 A 
ATOM     32  C   UNL     1       7.727  -8.730  -8.741  0.00  0.00    +0.000 A 
ATOM     33  C   UNL     1       8.626  -7.709  -8.985  0.00  0.00    +0.000 A 
ATOM     34  C   UNL     1       8.845  -6.737  -8.027  0.00  0.00    +0.000 A 
ATOM     35  C   UNL     1       8.162  -6.783  -6.826  0.00  0.00    +0.005 A 
ENDBRANCH  29  30
ENDBRANCH   5  29
TORSDOF 6
