REMARK  Name = ZINC05463747
REMARK  7 active torsions:
REMARK  status: ('A' for Active; 'I' for Inactive)
REMARK    1  A    between atoms: C_1  and  C_2
REMARK    2  A    between atoms: C_2  and  O_3
REMARK    3  A    between atoms: O_3  and  C_4
REMARK    4  A    between atoms: C_6  and  C_11
REMARK    5  A    between atoms: C_9  and  O_10
REMARK    6  A    between atoms: N_12  and  N_13
REMARK    7  A    between atoms: C_14  and  C_15
REMARK                            x       y       z     vdW  Elec       q    Type
REMARK                         _______ _______ _______ _____ _____    ______ ____
ROOT
ATOM      1  N   UNL     1      -2.551   3.341   1.475  0.00  0.00    -0.221 N 
ATOM      2  C   UNL     1      -1.702   4.303   0.972  0.00  0.00    +0.139 C 
ATOM      3  H   UNL     1      -2.333   2.402   1.375  0.00  0.00    +0.176 HD
ATOM      4  H   UNL     1      -2.787   5.928   1.544  0.00  0.00    +0.157 HD
ATOM      5  N   UNL     1      -1.942   5.602   1.075  0.00  0.00    -0.384 N 
ATOM      6  H   UNL     1      -1.278   6.280   0.683  0.00  0.00    +0.157 HD
ENDROOT
BRANCH   2   7
ATOM      7  C   UNL     1      -0.456   3.902   0.279  0.00  0.00    +0.144 A 
ATOM      8  C   UNL     1       0.460   4.889  -0.145  0.00  0.00    +0.167 A 
ATOM      9  N   UNL     1       1.575   4.544  -0.764  0.00  0.00    -0.115 N 
ATOM     10  C   UNL     1       1.836   3.250  -0.991  0.00  0.00    +0.112 A 
ATOM     11  C   UNL     1       3.014   2.856  -1.648  0.00  0.00    +0.031 A 
ATOM     12  C   UNL     1       3.256   1.534  -1.866  0.00  0.00    +0.002 A 
ATOM     13  C   UNL     1       2.350   0.560  -1.448  0.00  0.00    +0.002 A 
ATOM     14  C   UNL     1       1.199   0.903  -0.809  0.00  0.00    +0.030 A 
ATOM     15  C   UNL     1       0.914   2.259  -0.565  0.00  0.00    +0.092 A 
ATOM     16  N   UNL     1      -0.212   2.622   0.056  0.00  0.00    -0.239 NA
ATOM     17  O   UNL     1       2.490   5.538  -1.187  0.00  0.00    -0.162 OA
ATOM     18  N   UNL     1       0.189   6.229   0.090  0.00  0.00    -0.340 N 
ATOM     19  H   UNL     1       0.917   6.852   0.240  0.00  0.00    +0.144 HD
ATOM     20  H   UNL     1      -0.729   6.543   0.105  0.00  0.00    +0.144 HD
ENDBRANCH   2   7
BRANCH   1  22
ATOM     21  C   UNL     1      -4.529   2.815   2.605  0.00  0.00    +0.138 C 
ATOM     22  N   UNL     1      -3.729   3.721   2.131  0.00  0.00    -0.189 NA
BRANCH  21  25
ATOM     23  C   UNL     1      -7.792   2.622   4.452  0.00  0.00    +0.162 A 
ATOM     24  C   UNL     1      -6.631   2.241   3.805  0.00  0.00    +0.059 A 
ATOM     25  C   UNL     1      -5.769   3.215   3.295  0.00  0.00    -0.002 A 
ATOM     26  C   UNL     1      -6.082   4.568   3.444  0.00  0.00    +0.013 A 
ATOM     27  C   UNL     1      -7.245   4.940   4.086  0.00  0.00    +0.050 A 
ATOM     28  C   UNL     1      -8.101   3.973   4.593  0.00  0.00    +0.158 A 
BRANCH  28  29
ATOM     29  O   UNL     1      -9.243   4.345   5.229  0.00  0.00    -0.503 OA
ATOM     30  H   UNL     1      -9.140   4.471   6.182  0.00  0.00    +0.292 HD
ENDBRANCH  28  29
BRANCH  23  31
ATOM     31  O   UNL     1      -8.634   1.677   4.950  0.00  0.00    -0.489 OA
BRANCH  31  33
ATOM     32  C   UNL     1      -9.316  -0.599   5.392  0.00  0.00    +0.048 C 
ATOM     33  C   UNL     1      -8.255   0.311   4.770  0.00  0.00    +0.226 C 
ENDBRANCH  31  33
ENDBRANCH  23  31
ENDBRANCH  21  25
ENDBRANCH   1  22
TORSDOF 6
