REMARK  Name = ZINC35724038
REMARK  7 active torsions:
REMARK  status: ('A' for Active; 'I' for Inactive)
REMARK    1  A    between atoms: C_1  and  C_2
REMARK    2  A    between atoms: C_2  and  C_3
REMARK    3  A    between atoms: C_7  and  C_23
REMARK    4  A    between atoms: C_9  and  S_12
REMARK    5  A    between atoms: S_12  and  C_13
REMARK    6  A    between atoms: N_17  and  C_18
REMARK    7  A    between atoms: C_23  and  N_24
REMARK                            x       y       z     vdW  Elec       q    Type
REMARK                         _______ _______ _______ _____ _____    ______ ____
ROOT
ATOM      1  C   UNL     1       0.742  -0.511   1.242  0.00  0.00    -0.010 C 
ATOM      2  C   UNL     1      -0.042  -0.124   2.497  0.00  0.00    +0.004 C 
ATOM      3  C   UNL     1       0.698  -0.630   3.737  0.00  0.00    +0.003 C 
ATOM      4  C   UNL     1       0.828  -2.153   3.666  0.00  0.00    -0.015 C 
ATOM      5  C   UNL     1       1.612  -2.541   2.410  0.00  0.00    +0.056 C 
ATOM      6  C   UNL     1       0.872  -2.034   1.171  0.00  0.00    +0.018 C 
ENDROOT
BRANCH   1   8
ATOM      7  C   UNL     1      -0.019   1.526   0.010  0.00  0.00    +0.004 C 
ATOM      8  C   UNL     1       0.002  -0.004   0.002  0.00  0.00    +0.000 C 
ENDBRANCH   1   8
BRANCH   5   9
ATOM      9  S   UNL     1       3.264  -1.795   2.475  0.00  0.00    -0.081 S 
BRANCH   9  10
ATOM     10  C   UNL     1       4.081  -2.446   1.056  0.00  0.00    +0.210 A 
ATOM     11  N   UNL     1       3.571  -3.275   0.172  0.00  0.00    -0.102 NA
ATOM     12  N   UNL     1       4.434  -3.551  -0.738  0.00  0.00    -0.022 NA
ATOM     13  N   UNL     1       5.540  -2.930  -0.508  0.00  0.00    -0.043 NA
ATOM     14  N   UNL     1       5.351  -2.181   0.667  0.00  0.00    -0.217 N 
BRANCH  14  15
ATOM     15  C   UNL     1       6.320  -1.305   1.329  0.00  0.00    +0.112 C 
ATOM     16  C   UNL     1       6.801  -0.213   0.350  0.00  0.00    +0.027 C 
ATOM     17  C   UNL     1       8.301  -0.032   0.691  0.00  0.00    +0.002 C 
ATOM     18  C   UNL     1       8.761  -1.480   0.991  0.00  0.00    +0.002 C 
ATOM     19  C   UNL     1       7.566  -2.110   1.736  0.00  0.00    +0.027 C 
ENDBRANCH  14  15
ENDBRANCH   9  10
ENDBRANCH   5   9
BRANCH   4  20
ATOM     20  C   UNL     1       1.568  -2.660   4.906  0.00  0.00    -0.082 C 
BRANCH  20  21
ATOM     21  N   UNL     1       0.759  -2.394   6.102  0.00  0.00    +0.378 N 
ATOM     22  H   UNL     1       0.600  -1.401   6.187  0.00  0.00    -0.090 HD
ATOM     23  H   UNL     1      -0.127  -2.870   6.021  0.00  0.00    -0.090 HD
ATOM     24  H   UNL     1       1.247  -2.728   6.920  0.00  0.00    -0.090 HD
ENDBRANCH  20  21
ENDBRANCH   4  20
TORSDOF 6
