REMARK  Name = ZINC46337927
REMARK  6 active torsions:
REMARK  status: ('A' for Active; 'I' for Inactive)
REMARK    1  A    between atoms: C_1  and  C_2
REMARK    2  A    between atoms: N_8  and  C_9
REMARK    3  A    between atoms: C_9  and  C_11
REMARK    4  A    between atoms: C_9  and  C_12
REMARK    5  A    between atoms: C_12  and  N_13
REMARK    6  A    between atoms: N_16  and  N_17
REMARK                            x       y       z     vdW  Elec       q    Type
REMARK                         _______ _______ _______ _____ _____    ______ ____
ROOT
ATOM      1  N   UNL     1       2.681  -2.166   2.419  0.00  0.00    -0.300 N 
ATOM      2  C   UNL     1       3.111  -2.984   3.400  0.00  0.00    +0.316 C 
ATOM      3  O   UNL     1       3.673  -2.522   4.375  0.00  0.00    -0.251 OA
ATOM      4  N   UNL     1       2.919  -4.314   3.301  0.00  0.00    -0.219 N 
ATOM      5  H   UNL     1       2.233  -2.535   1.642  0.00  0.00    +0.150 HD
ATOM      6  H   UNL     1       3.228  -4.903   4.007  0.00  0.00    +0.174 HD
ENDROOT
BRANCH   4   7
ATOM      7  N   UNL     1       2.272  -4.847   2.178  0.00  0.00    -0.246 N 
ATOM      8  C   UNL     1       2.073  -6.221   2.076  0.00  0.00    +0.158 A 
ATOM      9  C   UNL     1       1.434  -6.753   0.956  0.00  0.00    +0.050 A 
ATOM     10  C   UNL     1       1.260  -8.125   0.899  0.00  0.00    +0.053 A 
ATOM     11  C   UNL     1       1.734  -8.890   1.965  0.00  0.00    +0.176 A 
ATOM     12  N   UNL     1       2.328  -8.297   2.987  0.00  0.00    -0.128 NA
ATOM     13  N   UNL     1       2.495  -7.026   3.038  0.00  0.00    -0.131 NA
ATOM     14  N   UNL     1       1.580 -10.281   1.953  0.00  0.00    -0.220 N 
ATOM     15  C   UNL     1       1.988 -11.139   2.924  0.00  0.00    +0.116 A 
ATOM     16  C   UNL     1       1.654 -12.390   2.531  0.00  0.00    +0.041 A 
ATOM     17  C   UNL     1       1.023 -12.297   1.285  0.00  0.00    +0.135 A 
ATOM     18  N   UNL     1       0.973 -11.036   0.941  0.00  0.00    -0.173 NA
ATOM     19  H   UNL     1       1.962  -4.258   1.472  0.00  0.00    +0.172 HD
ENDBRANCH   4   7
BRANCH   1  20
ATOM     20  C   UNL     1       2.890  -0.720   2.527  0.00  0.00    +0.090 C 
BRANCH  20  21
ATOM     21  C   UNL     1       2.164  -0.013   1.381  0.00  0.00    -0.054 C 
ATOM     22  C   UNL     1       2.540   1.470   1.377  0.00  0.00    -0.012 C 
BRANCH  21  29
ATOM     23  C   UNL     1       0.785  -2.028  -0.005  0.00  0.00    -0.013 C 
ATOM     24  C   UNL     1       0.328  -1.554   1.376  0.00  0.00    -0.071 C 
ATOM     25  C   UNL     1      -1.192  -1.688   1.484  0.00  0.00    -0.016 C 
ATOM     26  C   UNL     1      -1.645  -1.212   2.867  0.00  0.00    -0.003 C 
ATOM     27  C   UNL     1      -1.173   0.229   3.080  0.00  0.00    -0.019 C 
ATOM     28  C   UNL     1       0.347   0.292   2.914  0.00  0.00    -0.078 C 
ATOM     29  N   UNL     1       0.713  -0.150   1.562  0.00  0.00    +0.384 N 
ATOM     30  H   UNL     1       0.235   0.422   0.882  0.00  0.00    -0.081 HD
ENDBRANCH  21  29
ENDBRANCH  20  21
ENDBRANCH   1  20
TORSDOF 4
