REMARK  Name = ZINC39576857
REMARK  8 active torsions:
REMARK  status: ('A' for Active; 'I' for Inactive)
REMARK    1  A    between atoms: C_1  and  C_2
REMARK    2  A    between atoms: C_4  and  C_10
REMARK    3  A    between atoms: C_7  and  C_9
REMARK    4  A    between atoms: C_10  and  C_12
REMARK    5  A    between atoms: C_10  and  N_13
REMARK    6  A    between atoms: N_13  and  C_14
REMARK    7  A    between atoms: C_14  and  C_15
REMARK    8  A    between atoms: C_15  and  C_16
REMARK                            x       y       z     vdW  Elec       q    Type
REMARK                         _______ _______ _______ _____ _____    ______ ____
ROOT
ATOM      1  N   UNL     1       2.060   0.005  -3.194  0.00  0.00    +0.381 N 
ATOM      2  H   UNL     1       2.588  -0.847  -3.077  0.00  0.00    -0.086 HD
ATOM      3  H   UNL     1       1.250  -0.177  -3.767  0.00  0.00    -0.086 HD
ENDROOT
BRANCH   1   4
ATOM      4  C   UNL     1       1.629   0.498  -1.879  0.00  0.00    -0.064 C 
ATOM      5  C   UNL     1       2.848   0.655  -0.968  0.00  0.00    -0.013 C 
BRANCH   4   8
ATOM      6  C   UNL     1       0.106   1.587   0.080  0.00  0.00    +0.052 C 
ATOM      7  C   UNL     1       0.052   0.058   0.059  0.00  0.00    +0.175 C 
ATOM      8  C   UNL     1       0.652  -0.500  -1.255  0.00  0.00    +0.041 C 
ATOM      9  C   UNL     1       1.380  -1.738  -0.759  0.00  0.00    +0.019 C 
ATOM     10  C   UNL     1       1.480  -1.637   0.549  0.00  0.00    +0.091 C 
ATOM     11  O   UNL     1       0.937  -0.503   1.048  0.00  0.00    -0.493 OA
ATOM     12  C   UNL     1       2.137  -2.686   1.409  0.00  0.00    +0.085 C 
ENDBRANCH   4   8
ENDBRANCH   1   4
BRANCH   1  13
ATOM     13  C   UNL     1       2.903   1.018  -3.844  0.00  0.00    -0.077 C 
BRANCH  13  14
ATOM     14  C   UNL     1       3.352   0.504  -5.213  0.00  0.00    +0.018 C 
BRANCH  14  15
ATOM     15  C   UNL     1       4.217   1.543  -5.880  0.00  0.00    -0.024 A 
ATOM     16  C   UNL     1       5.658   1.727  -5.694  0.00  0.00    +0.003 A 
ATOM     17  C   UNL     1       6.627   1.083  -4.923  0.00  0.00    +0.010 A 
ATOM     18  C   UNL     1       7.925   1.507  -4.971  0.00  0.00    +0.001 A 
ATOM     19  C   UNL     1       8.288   2.574  -5.781  0.00  0.00    +0.002 A 
ATOM     20  C   UNL     1       7.348   3.225  -6.550  0.00  0.00    +0.026 A 
ATOM     21  C   UNL     1       6.021   2.810  -6.516  0.00  0.00    +0.047 A 
ATOM     22  N   UNL     1       4.876   3.240  -7.149  0.00  0.00    -0.360 N 
ATOM     23  C   UNL     1       3.813   2.470  -6.763  0.00  0.00    +0.087 A 
ATOM     24  H   UNL     1       4.831   3.977  -7.779  0.00  0.00    +0.165 HD
ENDBRANCH  14  15
ENDBRANCH  13  14
ENDBRANCH   1  13
TORSDOF 5
