REMARK  Name = ZINC34681140
REMARK  4 active torsions:
REMARK  status: ('A' for Active; 'I' for Inactive)
REMARK    1  A    between atoms: C_1  and  C_2
REMARK    2  A    between atoms: C_7  and  N_8
REMARK    3  A    between atoms: N_11  and  C_12
REMARK    4  A    between atoms: C_25  and  C_27
REMARK                            x       y       z     vdW  Elec       q    Type
REMARK                         _______ _______ _______ _____ _____    ______ ____
ROOT
ATOM      1  C   UNL     1      -0.044  -0.673   6.006  0.00  0.00    +0.051 A 
ATOM      2  C   UNL     1       0.020  -2.065   6.056  0.00  0.00    +0.028 A 
ATOM      3  C   UNL     1       0.009  -2.680   7.294  0.00  0.00    +0.043 A 
ATOM      4  C   UNL     1      -0.065  -1.896   8.440  0.00  0.00    +0.099 A 
ATOM      5  N   UNL     1      -0.126  -0.577   8.355  0.00  0.00    -0.348 N 
ATOM      6  C   UNL     1      -0.111   0.044   7.190  0.00  0.00    +0.107 A 
ATOM      7  N   UNL     1      -0.077  -2.506   9.692  0.00  0.00    -0.315 N 
ATOM      8  C   UNL     1      -0.315  -1.667  10.876  0.00  0.00    +0.108 C 
ATOM      9  C   UNL     1      -1.278  -2.316  11.873  0.00  0.00    +0.038 C 
ATOM     10  C   UNL     1      -2.425  -2.984  11.140  0.00  0.00    +0.110 C 
ATOM     11  N   UNL     1      -2.006  -4.339  10.784  0.00  0.00    -0.293 N 
ATOM     12  C   UNL     1      -1.221  -4.666   9.644  0.00  0.00    +0.127 C 
ATOM     13  C   UNL     1       0.141  -3.940   9.763  0.00  0.00    +0.125 C 
ATOM     14  C   UNL     1      -2.389  -5.348  11.591  0.00  0.00    +0.282 C 
ATOM     15  O   UNL     1      -2.057  -6.490  11.338  0.00  0.00    -0.267 OA
ATOM     16  H   UNL     1      -0.178  -0.052   9.169  0.00  0.00    +0.167 HD
ENDROOT
BRANCH   1  20
ATOM     17  N   UNL     1      -0.408  -0.022   2.468  0.00  0.00    -0.269 N 
ATOM     18  C   UNL     1      -0.512  -0.621   3.671  0.00  0.00    +0.308 C 
ATOM     19  O   UNL     1      -1.035  -1.715   3.763  0.00  0.00    -0.252 OA
ATOM     20  N   UNL     1      -0.036  -0.006   4.772  0.00  0.00    -0.268 N 
ATOM     21  H   UNL     1       0.065   0.820   2.384  0.00  0.00    +0.156 HD
ATOM     22  H   UNL     1       0.312   0.897   4.711  0.00  0.00    +0.156 HD
BRANCH  17  29
ATOM     23  C   UNL     1      -1.500   1.676   0.463  0.00  0.00    +0.045 C 
ATOM     24  C   UNL     1      -1.527   0.175   0.336  0.00  0.00    -0.029 A 
ATOM     25  C   UNL     1      -2.088  -0.415  -0.779  0.00  0.00    +0.005 A 
ATOM     26  C   UNL     1      -2.113  -1.793  -0.896  0.00  0.00    +0.000 A 
ATOM     27  C   UNL     1      -1.577  -2.584   0.103  0.00  0.00    +0.002 A 
ATOM     28  C   UNL     1      -1.014  -2.001   1.221  0.00  0.00    +0.023 A 
ATOM     29  C   UNL     1      -0.983  -0.617   1.339  0.00  0.00    +0.038 A 
ENDBRANCH  17  29
ENDBRANCH   1  20
BRANCH  14  30
ATOM     30  C   UNL     1      -3.207  -5.067  12.776  0.00  0.00    +0.189 A 
ATOM     31  C   UNL     1      -3.588  -5.976  13.721  0.00  0.00    +0.054 A 
ATOM     32  C   UNL     1      -4.354  -5.278  14.667  0.00  0.00    +0.042 A 
ATOM     33  C   UNL     1      -4.407  -3.989  14.263  0.00  0.00    +0.196 A 
ATOM     34  O   UNL     1      -3.711  -3.866  13.125  0.00  0.00    -0.458 OA
ENDBRANCH  14  30
TORSDOF 3
