REMARK  Name = ZINC45896291
REMARK  6 active torsions:
REMARK  status: ('A' for Active; 'I' for Inactive)
REMARK    1  A    between atoms: C_1  and  C_2
REMARK    2  A    between atoms: C_2  and  N_3
REMARK    3  A    between atoms: C_12  and  O_13
REMARK    4  A    between atoms: C_14  and  N_15
REMARK    5  A    between atoms: N_18  and  C_19
REMARK    6  A    between atoms: C_19  and  C_20
REMARK                            x       y       z     vdW  Elec       q    Type
REMARK                         _______ _______ _______ _____ _____    ______ ____
ROOT
ATOM      1  N   UNL     1       0.460  -1.349  -1.114  0.00  0.00    -0.383 N 
ATOM      2  C   UNL     1       1.767  -1.492  -1.054  0.00  0.00    +0.075 A 
ATOM      3  C   UNL     1       2.560  -1.841  -2.254  0.00  0.00    +0.042 A 
ATOM      4  C   UNL     1       1.954  -2.031  -3.492  0.00  0.00    +0.013 A 
ATOM      5  C   UNL     1       2.728  -2.355  -4.587  0.00  0.00    +0.001 A 
ATOM      6  C   UNL     1       4.101  -2.491  -4.455  0.00  0.00    +0.004 A 
ATOM      7  C   UNL     1       4.712  -2.306  -3.232  0.00  0.00    +0.047 A 
ATOM      8  C   UNL     1       3.949  -1.979  -2.119  0.00  0.00    +0.141 A 
ATOM      9  O   UNL     1       4.528  -1.793  -0.913  0.00  0.00    -0.424 OA
ATOM     10  C   UNL     1       3.823  -1.477   0.185  0.00  0.00    +0.309 A 
ATOM     11  C   UNL     1       2.478  -1.312   0.168  0.00  0.00    +0.140 A 
ATOM     12  H   UNL     1       0.009  -1.360  -1.973  0.00  0.00    +0.160 HD
ENDROOT
BRANCH  11  13
ATOM     13  N   UNL     1       1.788  -0.973   1.350  0.00  0.00    -0.262 N 
ATOM     14  C   UNL     1       1.289   0.269   1.506  0.00  0.00    +0.304 C 
ATOM     15  O   UNL     1       1.500   1.119   0.662  0.00  0.00    -0.253 OA
ATOM     16  N   UNL     1       0.557   0.569   2.597  0.00  0.00    -0.297 N 
ATOM     17  H   UNL     1       1.672  -1.634   2.050  0.00  0.00    +0.157 HD
ATOM     18  H   UNL     1       0.390  -0.109   3.270  0.00  0.00    +0.150 HD
BRANCH  16  19
ATOM     19  C   UNL     1       0.016   1.920   2.767  0.00  0.00    +0.137 C 
BRANCH  19  20
ATOM     20  C   UNL     1      -0.769   1.993   4.078  0.00  0.00    +0.135 C 
ATOM     21  C   UNL     1      -1.381   3.405   4.261  0.00  0.00    +0.035 C 
ATOM     22  C   UNL     1      -2.579   3.088   5.197  0.00  0.00    +0.031 C 
ATOM     23  C   UNL     1      -3.010   1.687   4.716  0.00  0.00    +0.160 C 
ATOM     24  O   UNL     1      -1.892   1.098   4.038  0.00  0.00    -0.375 OA
ENDBRANCH  19  20
ENDBRANCH  16  19
ENDBRANCH  11  13
BRANCH   1  26
ATOM     25  C   UNL     1      -1.769  -1.578  -0.133  0.00  0.00    +0.026 C 
ATOM     26  C   UNL     1      -0.315  -1.172   0.117  0.00  0.00    +0.109 C 
ENDBRANCH   1  26
BRANCH  10  27
ATOM     27  O   UNL     1       4.483  -1.308   1.354  0.00  0.00    -0.479 OA
ATOM     28  H   UNL     1       5.439  -1.437   1.288  0.00  0.00    +0.295 HD
ENDBRANCH  10  27
TORSDOF 5
