REMARK  Name = ZINC49178456
REMARK  5 active torsions:
REMARK  status: ('A' for Active; 'I' for Inactive)
REMARK    1  A    between atoms: C_1  and  C_2
REMARK    2  A    between atoms: C_5  and  O_16
REMARK    3  A    between atoms: C_6  and  N_8
REMARK    4  A    between atoms: C_11  and  C_13
REMARK    5  A    between atoms: O_16  and  C_17
REMARK                            x       y       z     vdW  Elec       q    Type
REMARK                         _______ _______ _______ _____ _____    ______ ____
ROOT
ATOM      1  N   UNL     1       0.052  -2.795   2.400  0.00  0.00    -0.236 N 
ATOM      2  C   UNL     1       0.045  -2.227   3.634  0.00  0.00    +0.115 A 
ATOM      3  C   UNL     1       0.065  -3.235   4.537  0.00  0.00    +0.054 A 
ATOM      4  C   UNL     1       0.084  -4.427   3.774  0.00  0.00    +0.147 A 
ATOM      5  N   UNL     1       0.070  -4.075   2.503  0.00  0.00    -0.162 NA
ENDROOT
BRANCH   1  11
ATOM      6  C   UNL     1      -0.018   1.503   0.010  0.00  0.00    +0.044 C 
ATOM      7  C   UNL     1       0.002  -0.004   0.002  0.00  0.00    -0.048 A 
ATOM      8  C   UNL     1       0.006  -0.687  -1.201  0.00  0.00    +0.007 A 
ATOM      9  C   UNL     1       0.025  -2.069  -1.215  0.00  0.00    +0.048 A 
ATOM     10  C   UNL     1       0.041  -2.774  -0.022  0.00  0.00    +0.145 A 
ATOM     11  C   UNL     1       0.037  -2.087   1.190  0.00  0.00    +0.107 A 
ATOM     12  C   UNL     1       0.023  -0.699   1.196  0.00  0.00    +0.034 A 
BRANCH  10  13
ATOM     13  O   UNL     1       0.059  -4.133  -0.034  0.00  0.00    -0.493 OA
ATOM     14  C   UNL     1       0.061  -4.771  -1.313  0.00  0.00    +0.277 C 
ENDBRANCH  10  13
ENDBRANCH   1  11
BRANCH   4  15
ATOM     15  C   UNL     1       0.111  -5.806   4.302  0.00  0.00    +0.262 C 
ATOM     16  O   UNL     1       0.117  -5.997   5.503  0.00  0.00    -0.269 OA
ATOM     17  N   UNL     1       0.127  -6.853   3.453  0.00  0.00    -0.324 N 
ATOM     18  H   UNL     1       0.122  -6.700   2.495  0.00  0.00    +0.145 HD
ATOM     19  H   UNL     1       0.145  -7.758   3.800  0.00  0.00    +0.145 HD
ENDBRANCH   4  15
TORSDOF 3
