REMARK  Name = ZINC42014811
REMARK  6 active torsions:
REMARK  status: ('A' for Active; 'I' for Inactive)
REMARK    1  A    between atoms: C_1  and  C_2
REMARK    2  A    between atoms: C_5  and  C_21
REMARK    3  A    between atoms: C_6  and  N_8
REMARK    4  A    between atoms: C_9  and  C_13
REMARK    5  A    between atoms: C_16  and  N_20
REMARK    6  A    between atoms: C_17  and  C_19
REMARK                            x       y       z     vdW  Elec       q    Type
REMARK                         _______ _______ _______ _____ _____    ______ ____
ROOT
ATOM      1  N   UNL     1      -0.184  -2.796   2.334  0.00  0.00    -0.192 N 
ATOM      2  C   UNL     1       0.102  -2.214   3.534  0.00  0.00    +0.187 A 
ATOM      3  N   UNL     1       0.571  -3.163   4.318  0.00  0.00    -0.108 NA
ATOM      4  N   UNL     1       0.598  -4.287   3.697  0.00  0.00    -0.022 NA
ATOM      5  N   UNL     1       0.153  -4.152   2.495  0.00  0.00    -0.039 NA
ENDROOT
BRANCH   1  11
ATOM      6  C   UNL     1      -3.713  -0.107   0.213  0.00  0.00    +0.044 C 
ATOM      7  C   UNL     1      -2.416  -0.869   0.134  0.00  0.00    -0.048 A 
ATOM      8  C   UNL     1      -1.740  -0.960  -1.069  0.00  0.00    +0.004 A 
ATOM      9  C   UNL     1      -0.549  -1.659  -1.146  0.00  0.00    +0.006 A 
ATOM     10  C   UNL     1      -0.031  -2.268  -0.020  0.00  0.00    -0.025 A 
ATOM     11  C   UNL     1      -0.707  -2.179   1.190  0.00  0.00    +0.073 A 
ATOM     12  C   UNL     1      -1.900  -1.472   1.264  0.00  0.00    +0.031 A 
ATOM     13  C   UNL     1       1.266  -3.030  -0.104  0.00  0.00    +0.046 C 
ENDBRANCH   1  11
BRANCH   2  14
ATOM     14  C   UNL     1      -0.080  -0.790   3.887  0.00  0.00    +0.021 A 
ATOM     15  C   UNL     1      -0.001   0.192   2.897  0.00  0.00    +0.013 A 
ATOM     16  C   UNL     1      -0.171   1.518   3.229  0.00  0.00    +0.023 A 
ATOM     17  C   UNL     1      -0.421   1.879   4.549  0.00  0.00    +0.028 A 
ATOM     18  C   UNL     1      -0.500   0.904   5.537  0.00  0.00    -0.029 A 
ATOM     19  C   UNL     1      -0.337  -0.424   5.210  0.00  0.00    +0.016 A 
ATOM     20  C   UNL     1      -0.770   1.300   6.966  0.00  0.00    +0.045 C 
BRANCH  17  21
ATOM     21  N   UNL     1      -0.592   3.223   4.882  0.00  0.00    -0.358 N 
ATOM     22  H   UNL     1      -0.537   3.904   4.194  0.00  0.00    +0.142 HD
ATOM     23  H   UNL     1      -0.767   3.476   5.802  0.00  0.00    +0.142 HD
ENDBRANCH  17  21
ENDBRANCH   2  14
TORSDOF 3
