REMARK  Name = ZINC63513851
REMARK  5 active torsions:
REMARK  status: ('A' for Active; 'I' for Inactive)
REMARK    1  A    between atoms: C_1  and  C_2
REMARK    2  A    between atoms: C_4  and  C_12
REMARK    3  A    between atoms: C_12  and  C_13
REMARK    4  A    between atoms: C_13  and  N_14
REMARK    5  A    between atoms: C_15  and  C_17
REMARK                            x       y       z     vdW  Elec       q    Type
REMARK                         _______ _______ _______ _____ _____    ______ ____
ROOT
ATOM      1  N   UNL     1       0.998  -0.729  -4.977  0.00  0.00    -0.314 N 
ATOM      2  C   UNL     1       1.751  -1.249  -5.967  0.00  0.00    +0.227 C 
ATOM      3  O   UNL     1       2.732  -1.910  -5.699  0.00  0.00    -0.275 OA
ATOM      4  H   UNL     1       0.214  -0.200  -5.192  0.00  0.00    +0.149 HD
ENDROOT
BRANCH   2   5
ATOM      5  C   UNL     1       1.375  -1.008  -7.406  0.00  0.00    +0.188 C 
ATOM      6  C   UNL     1       2.395  -1.681  -8.329  0.00  0.00    +0.063 C 
ATOM      7  C   UNL     1       3.669  -0.875  -8.360  0.00  0.00    -0.003 A 
ATOM      8  C   UNL     1       4.836  -1.498  -8.773  0.00  0.00    +0.022 A 
ATOM      9  C   UNL     1       6.024  -0.795  -8.821  0.00  0.00    +0.018 A 
ATOM     10  C   UNL     1       6.053   0.540  -8.458  0.00  0.00    +0.019 A 
ATOM     11  C   UNL     1       4.895   1.165  -8.045  0.00  0.00    +0.048 A 
ATOM     12  C   UNL     1       3.698   0.458  -7.991  0.00  0.00    +0.135 A 
ATOM     13  O   UNL     1       2.583   1.108  -7.559  0.00  0.00    -0.425 OA
ATOM     14  C   UNL     1       1.398   0.478  -7.702  0.00  0.00    +0.325 C 
ATOM     15  O   UNL     1       0.404   1.069  -8.051  0.00  0.00    -0.250 OA
ATOM     16 BR   UNL     1       7.610  -1.657  -9.384  0.00  0.00    -0.050 Br
ENDBRANCH   2   5
BRANCH   1  17
ATOM     17  C   UNL     1       1.364  -0.963  -3.578  0.00  0.00    +0.108 C 
BRANCH  17  18
ATOM     18  C   UNL     1       0.353  -0.268  -2.664  0.00  0.00    +0.052 C 
BRANCH  18  21
ATOM     19  C   UNL     1      -0.019   1.526   0.010  0.00  0.00    +0.035 C 
ATOM     20  C   UNL     1       0.002  -0.004   0.002  0.00  0.00    +0.103 C 
ATOM     21  C   UNL     1       0.729  -0.509  -1.224  0.00  0.00    -0.037 C 
ATOM     22  C   UNL     1       1.785  -1.220  -0.768  0.00  0.00    -0.001 A 
ATOM     23  C   UNL     1       2.858  -1.954  -1.449  0.00  0.00    +0.010 A 
ATOM     24  C   UNL     1       3.797  -2.583  -0.705  0.00  0.00    +0.001 A 
ATOM     25  C   UNL     1       3.770  -2.551   0.696  0.00  0.00    +0.002 A 
ATOM     26  C   UNL     1       2.817  -1.897   1.393  0.00  0.00    +0.026 A 
ATOM     27  C   UNL     1       1.780  -1.201   0.712  0.00  0.00    +0.043 A 
ATOM     28  N   UNL     1       0.758  -0.506   1.155  0.00  0.00    -0.378 N 
ATOM     29  H   UNL     1       0.540  -0.349   2.087  0.00  0.00    +0.160 HD
ENDBRANCH  18  21
ENDBRANCH  17  18
ENDBRANCH   1  17
TORSDOF 4
