REMARK  Name = ZINC63982243
REMARK  7 active torsions:
REMARK  status: ('A' for Active; 'I' for Inactive)
REMARK    1  A    between atoms: C_1  and  C_2
REMARK    2  A    between atoms: C_7  and  C_8
REMARK    3  A    between atoms: C_8  and  C_9
REMARK    4  A    between atoms: C_8  and  N_24
REMARK    5  A    between atoms: C_9  and  C_10
REMARK    6  A    between atoms: C_10  and  N_12
REMARK    7  A    between atoms: N_21  and  C_22
REMARK                            x       y       z     vdW  Elec       q    Type
REMARK                         _______ _______ _______ _____ _____    ______ ____
ROOT
ATOM      1  C   UNL     1      -1.271   0.829   2.630  0.00  0.00    +0.125 C 
ENDROOT
BRANCH   1   2
ATOM      2  C   UNL     1      -1.167   1.856   3.728  0.00  0.00    +0.241 C 
ATOM      3  O   UNL     1      -0.122   1.995   4.333  0.00  0.00    -0.274 OA
BRANCH   2   4
ATOM      4  N   UNL     1      -2.218   2.610   4.034  0.00  0.00    -0.147 NA
ATOM      5  C   UNL     1      -2.100   3.583   4.933  0.00  0.00    +0.201 A 
ATOM      6  N   UNL     1      -0.992   3.835   5.679  0.00  0.00    -0.326 N 
ATOM      7  C   UNL     1      -1.256   4.927   6.499  0.00  0.00    +0.067 A 
ATOM      8  C   UNL     1      -0.502   5.606   7.446  0.00  0.00    +0.047 A 
ATOM      9  C   UNL     1      -1.048   6.681   8.119  0.00  0.00    +0.043 A 
ATOM     10  C   UNL     1      -2.347   7.086   7.852  0.00  0.00    +0.022 A 
ATOM     11  C   UNL     1      -3.104   6.417   6.912  0.00  0.00    +0.029 A 
ATOM     12  C   UNL     1      -2.565   5.335   6.230  0.00  0.00    +0.068 A 
ATOM     13  N   UNL     1      -3.065   4.486   5.248  0.00  0.00    -0.315 N 
ATOM     14  C   UNL     1      -4.404   4.551   4.658  0.00  0.00    +0.152 C 
ATOM     15 CL   UNL     1      -0.105   7.529   9.304  0.00  0.00    -0.083 Cl
ATOM     16  H   UNL     1      -0.159   3.339   5.645  0.00  0.00    +0.169 HD
ENDBRANCH   2   4
ENDBRANCH   1   2
BRANCH   1  17
ATOM     17  C   UNL     1       0.069   0.104   2.482  0.00  0.00    +0.114 C 
BRANCH  17  24
ATOM     18  C   UNL     1       2.497  -1.034   1.406  0.00  0.00    +0.044 C 
ATOM     19  C   UNL     1       1.165  -1.380   0.791  0.00  0.00    -0.045 A 
ATOM     20  C   UNL     1       1.105  -2.246  -0.285  0.00  0.00    +0.004 A 
ATOM     21  C   UNL     1      -0.116  -2.564  -0.850  0.00  0.00    +0.000 A 
ATOM     22  C   UNL     1      -1.277  -2.015  -0.338  0.00  0.00    +0.000 A 
ATOM     23  C   UNL     1      -1.217  -1.149   0.738  0.00  0.00    +0.006 A 
ATOM     24  C   UNL     1       0.004  -0.835   1.305  0.00  0.00    -0.024 A 
ENDBRANCH  17  24
BRANCH  17  25
ATOM     25  N   UNL     1       0.349  -0.658   3.701  0.00  0.00    -0.292 N 
ATOM     26  C   UNL     1      -0.468  -1.666   4.068  0.00  0.00    +0.298 C 
ATOM     27  O   UNL     1      -1.384  -2.001   3.343  0.00  0.00    -0.253 OA
ATOM     28  N   UNL     1      -0.269  -2.302   5.240  0.00  0.00    -0.313 N 
ATOM     29  H   UNL     1       1.122  -0.438   4.243  0.00  0.00    +0.151 HD
ATOM     30  H   UNL     1       0.463  -2.034   5.818  0.00  0.00    +0.146 HD
ATOM     31  H   UNL     1      -0.856  -3.026   5.504  0.00  0.00    +0.146 HD
ENDBRANCH  17  25
ENDBRANCH   1  17
TORSDOF 5
