REMARK  Name = ZINC67603777
REMARK  5 active torsions:
REMARK  status: ('A' for Active; 'I' for Inactive)
REMARK    1  A    between atoms: C_1  and  C_2
REMARK    2  A    between atoms: C_8  and  C_12
REMARK    3  A    between atoms: C_12  and  N_13
REMARK    4  A    between atoms: C_16  and  C_20
REMARK    5  A    between atoms: C_16  and  C_21
REMARK                            x       y       z     vdW  Elec       q    Type
REMARK                         _______ _______ _______ _____ _____    ______ ____
ROOT
ATOM      1  N   UNL     1       1.062  -6.614  -1.294  0.00  0.00    -0.218 N 
ATOM      2  C   UNL     1       0.448  -7.045  -2.414  0.00  0.00    +0.247 C 
ATOM      3  O   UNL     1      -0.737  -7.253  -2.565  0.00  0.00    -0.273 OA
ATOM      4  C   UNL     1       1.546  -7.215  -3.445  0.00  0.00    +0.112 C 
ATOM      5  N   UNL     1       2.766  -6.823  -2.718  0.00  0.00    -0.285 N 
ATOM      6  C   UNL     1       2.381  -6.484  -1.474  0.00  0.00    +0.310 C 
ATOM      7  O   UNL     1       3.147  -6.106  -0.610  0.00  0.00    -0.252 OA
ATOM      8  C   UNL     1       1.310  -6.289  -4.640  0.00  0.00    +0.042 C 
ATOM      9  H   UNL     1       3.670  -6.809  -3.069  0.00  0.00    +0.151 HD
ENDROOT
BRANCH   4  10
ATOM     10  C   UNL     1       1.635  -8.672  -3.901  0.00  0.00    +0.018 C 
ATOM     11  C   UNL     1       1.953  -9.566  -2.699  0.00  0.00    -0.013 C 
ATOM     12  C   UNL     1       2.120 -11.011  -3.174  0.00  0.00    -0.082 C 
ATOM     13  N   UNL     1       3.218 -11.086  -4.146  0.00  0.00    +0.379 N 
ATOM     14  C   UNL     1       2.888 -10.289  -5.333  0.00  0.00    -0.082 C 
ATOM     15  C   UNL     1       2.751  -8.816  -4.940  0.00  0.00    -0.013 C 
ATOM     16  H   UNL     1       4.062 -10.729  -3.725  0.00  0.00    -0.086 HD
ATOM     17  H   UNL     1       3.360 -12.048  -4.417  0.00  0.00    -0.086 HD
ENDBRANCH   4  10
BRANCH   1  18
ATOM     18  C   UNL     1       0.370  -6.318  -0.038  0.00  0.00    +0.171 C 
BRANCH  18  26
ATOM     19  C   UNL     1      -0.018   1.503   0.010  0.00  0.00    +0.053 C 
ATOM     20  C   UNL     1       0.002  -0.004   0.002  0.00  0.00    +0.007 A 
ATOM     21  C   UNL     1      -1.021  -0.858   0.002  0.00  0.00    +0.107 A 
ATOM     22  N   UNL     1      -0.811  -2.216  -0.007  0.00  0.00    -0.263 N 
ATOM     23  C   UNL     1      -1.768  -3.192  -0.009  0.00  0.00    +0.259 A 
ATOM     24  O   UNL     1      -2.951  -2.887  -0.002  0.00  0.00    -0.267 OA
ATOM     25  C   UNL     1      -1.393  -4.535  -0.019  0.00  0.00    +0.093 A 
ATOM     26  C   UNL     1      -0.057  -4.872  -0.027  0.00  0.00    +0.041 A 
ATOM     27  N   UNL     1       0.851  -3.899  -0.025  0.00  0.00    -0.337 N 
ATOM     28  C   UNL     1       0.491  -2.640  -0.016  0.00  0.00    +0.158 A 
ATOM     29  S   UNL     1       1.403  -1.111  -0.018  0.00  0.00    -0.056 S 
ATOM     30  H   UNL     1       1.794  -4.126  -0.031  0.00  0.00    +0.168 HD
ENDBRANCH  18  26
ENDBRANCH   1  18
TORSDOF 3
