REMARK  Name = ZINC66947683
REMARK  5 active torsions:
REMARK  status: ('A' for Active; 'I' for Inactive)
REMARK    1  A    between atoms: C_1  and  N_2
REMARK    2  A    between atoms: N_2  and  C_3
REMARK    3  A    between atoms: N_2  and  C_4
REMARK    4  A    between atoms: C_4  and  C_5
REMARK    5  A    between atoms: C_12  and  C_14
REMARK                            x       y       z     vdW  Elec       q    Type
REMARK                         _______ _______ _______ _____ _____    ______ ____
ROOT
ATOM      1  C   UNL     1      -2.641   0.110  -0.352  0.00  0.00    +0.060 C 
ATOM      2  C   UNL     1      -3.681   0.123   0.773  0.00  0.00    +0.021 C 
ATOM      3  C   UNL     1      -4.933   0.863   0.296  0.00  0.00    +0.003 C 
ATOM      4  C   UNL     1      -4.572   2.311  -0.045  0.00  0.00    +0.019 C 
ATOM      5  C   UNL     1      -3.542   2.323  -1.179  0.00  0.00    +0.108 C 
ATOM      6  N   UNL     1      -2.396   1.491  -0.789  0.00  0.00    -0.296 N 
ATOM      7  C   UNL     1      -1.143   1.987  -0.827  0.00  0.00    +0.252 C 
ATOM      8  O   UNL     1      -0.202   1.289  -0.497  0.00  0.00    -0.270 OA
ENDROOT
BRANCH   7   9
ATOM      9  C   UNL     1      -0.912   3.373  -1.267  0.00  0.00    +0.102 A 
ATOM     10  C   UNL     1       0.034   4.160  -0.636  0.00  0.00    +0.028 A 
ATOM     11  C   UNL     1       0.233   5.488  -1.082  0.00  0.00    -0.001 A 
ATOM     12  C   UNL     1       1.187   6.309  -0.461  0.00  0.00    +0.010 A 
ATOM     13  C   UNL     1       1.372   7.588  -0.898  0.00  0.00    +0.001 A 
ATOM     14  C   UNL     1       0.622   8.088  -1.955  0.00  0.00    +0.002 A 
ATOM     15  C   UNL     1      -0.320   7.303  -2.581  0.00  0.00    +0.026 A 
ATOM     16  C   UNL     1      -0.528   5.993  -2.154  0.00  0.00    +0.049 A 
ATOM     17  N   UNL     1      -1.470   5.204  -2.779  0.00  0.00    -0.321 N 
ATOM     18  H   UNL     1      -1.985   5.567  -3.516  0.00  0.00    +0.169 HD
ATOM     19  C   UNL     1      -1.680   3.934  -2.384  0.00  0.00    +0.261 A 
ATOM     20  O   UNL     1      -2.513   3.251  -2.953  0.00  0.00    -0.267 OA
ENDBRANCH   7   9
BRANCH   1  21
ATOM     21  C   UNL     1      -1.338  -0.505   0.162  0.00  0.00    -0.057 C 
BRANCH  21  23
ATOM     22  C   UNL     1      -1.661  -2.607  -0.948  0.00  0.00    -0.097 C 
ATOM     23  N   UNL     1      -1.522  -1.949   0.358  0.00  0.00    +0.377 N 
ATOM     24  C   UNL     1      -0.356  -2.500   1.062  0.00  0.00    -0.097 C 
ATOM     25  H   UNL     1      -2.353  -2.111   0.906  0.00  0.00    -0.083 HD
ENDBRANCH  21  23
ENDBRANCH   1  21
TORSDOF 3
