REMARK  Name = ZINC23753095
REMARK  5 active torsions:
REMARK  status: ('A' for Active; 'I' for Inactive)
REMARK    1  A    between atoms: C_1  and  C_2
REMARK    2  A    between atoms: C_2  and  C_4
REMARK    3  A    between atoms: C_2  and  N_10
REMARK    4  A    between atoms: N_13  and  S_16
REMARK    5  A    between atoms: S_16  and  C_19
REMARK                            x       y       z     vdW  Elec       q    Type
REMARK                         _______ _______ _______ _____ _____    ______ ____
ROOT
ATOM      1  N   UNL     1       0.919  -0.489   1.329  0.00  0.00    +0.389 N 
ATOM      2  C   UNL     1       0.114   0.198   0.311  0.00  0.00    -0.060 C 
ATOM      3  C   UNL     1       0.179   1.710   0.548  0.00  0.00    +0.091 C 
ATOM      4  N   UNL     1       1.592   2.115   0.600  0.00  0.00    -0.180 NA
ATOM      5  C   UNL     1       2.494   1.379   1.499  0.00  0.00    +0.091 C 
ATOM      6  C   UNL     1       2.337  -0.121   1.224  0.00  0.00    -0.060 C 
ATOM      7  H   UNL     1       0.561  -0.162   2.316  0.00  0.00    -0.081 HD
ENDROOT
BRANCH   4   8
ATOM      8  S   UNL     1       2.153   3.366  -0.329  0.00  0.00    +0.061 S 
ATOM      9  O   UNL     1       3.548   3.155  -0.494  0.00  0.00    -0.153 OA
ATOM     10  O   UNL     1       1.264   3.483  -1.432  0.00  0.00    -0.153 OA
BRANCH   8  11
ATOM     11  C   UNL     1       1.975   4.840   0.620  0.00  0.00    +0.105 A 
ATOM     12  C   UNL     1       0.809   5.578   0.537  0.00  0.00    +0.028 A 
ATOM     13  C   UNL     1       0.668   6.732   1.285  0.00  0.00    +0.002 A 
ATOM     14  C   UNL     1       1.695   7.152   2.108  0.00  0.00    +0.000 A 
ATOM     15  C   UNL     1       2.863   6.417   2.187  0.00  0.00    +0.002 A 
ATOM     16  C   UNL     1       3.003   5.260   1.443  0.00  0.00    +0.028 A 
ENDBRANCH   8  11
ENDBRANCH   4   8
BRANCH   1  18
ATOM     17  C   UNL     1       0.890  -2.391  -0.214  0.00  0.00    -0.004 C 
ATOM     18  C   UNL     1       0.746  -1.946   1.243  0.00  0.00    +0.017 C 
BRANCH  18  19
ATOM     19  C   UNL     1      -0.623  -2.319   1.750  0.00  0.00    +0.207 C 
ATOM     20  O   UNL     1      -1.471  -1.464   1.892  0.00  0.00    -0.277 OA
ATOM     21  N   UNL     1      -0.905  -3.604   2.045  0.00  0.00    -0.242 N 
ATOM     22  C   UNL     1      -2.130  -3.938   2.498  0.00  0.00    +0.303 C 
ATOM     23  O   UNL     1      -2.980  -3.081   2.641  0.00  0.00    -0.253 OA
ATOM     24  N   UNL     1      -2.411  -5.222   2.794  0.00  0.00    -0.313 N 
ATOM     25  H   UNL     1      -0.136  -4.379   1.916  0.00  0.00    +0.159 HD
ATOM     26  H   UNL     1      -3.411  -5.495   3.164  0.00  0.00    +0.146 HD
ATOM     27  H   UNL     1      -1.642  -5.998   2.665  0.00  0.00    +0.146 HD
ENDBRANCH  18  19
ENDBRANCH   1  18
TORSDOF 4
