REMARK  Name = ZINC67229616
REMARK  8 active torsions:
REMARK  status: ('A' for Active; 'I' for Inactive)
REMARK    1  A    between atoms: C_1  and  C_2
REMARK    2  A    between atoms: C_8  and  N_10
REMARK    3  A    between atoms: C_14  and  C_16
REMARK    4  A    between atoms: C_16  and  N_17
REMARK    5  A    between atoms: C_24  and  C_26
REMARK    6  A    between atoms: C_26  and  C_27
REMARK    7  A    between atoms: C_26  and  C_28
REMARK    8  A    between atoms: C_26  and  C_29
REMARK                            x       y       z     vdW  Elec       q    Type
REMARK                         _______ _______ _______ _____ _____    ______ ____
ROOT
ATOM      1  N   UNL     1       0.860  -3.653   5.282  0.00  0.00    -0.296 N 
ATOM      2  C   UNL     1       1.480  -2.983   6.274  0.00  0.00    +0.306 C 
ATOM      3  O   UNL     1       2.680  -3.097   6.426  0.00  0.00    -0.252 OA
ATOM      4  N   UNL     1       0.769  -2.188   7.098  0.00  0.00    -0.242 N 
ATOM      5  C   UNL     1       1.389  -1.518   8.089  0.00  0.00    +0.204 C 
ATOM      6  O   UNL     1       2.587  -1.632   8.241  0.00  0.00    -0.277 OA
ATOM      7  H   UNL     1      -0.098  -3.562   5.161  0.00  0.00    +0.151 HD
ATOM      8  H   UNL     1      -0.189  -2.097   6.976  0.00  0.00    +0.159 HD
ENDROOT
BRANCH   1  15
ATOM      9  C   UNL     1       0.744  -3.269   2.414  0.00  0.00    +0.009 C 
ATOM     10  C   UNL     1       0.901  -4.651   3.050  0.00  0.00    +0.006 C 
ATOM     11  C   UNL     1      -0.481  -5.265   3.284  0.00  0.00    +0.005 C 
ATOM     12  C   UNL     1      -0.324  -6.647   3.921  0.00  0.00    +0.000 C 
ATOM     13  C   UNL     1       0.408  -6.513   5.258  0.00  0.00    +0.002 C 
ATOM     14  C   UNL     1       1.790  -5.900   5.024  0.00  0.00    +0.022 C 
ATOM     15  C   UNL     1       1.633  -4.517   4.387  0.00  0.00    +0.077 C 
ENDBRANCH   1  15
BRANCH   5  16
ATOM     16  C   UNL     1       0.594  -0.629   9.010  0.00  0.00    +0.019 C 
BRANCH  16  17
ATOM     17  N   UNL     1       1.493  -0.018   9.998  0.00  0.00    +0.386 N 
ATOM     18  C   UNL     1       0.679   0.635  11.021  0.00  0.00    -0.077 C 
ATOM     19  C   UNL     1       1.429   0.627  12.335  0.00  0.00    +0.000 C 
ATOM     20  C   UNL     1       2.216   1.942  12.483  0.00  0.00    +0.106 C 
ATOM     21  N   UNL     1       2.817   2.349  11.197  0.00  0.00    -0.303 N 
ATOM     22  C   UNL     1       3.442   1.400  10.298  0.00  0.00    +0.089 C 
ATOM     23  C   UNL     1       2.390   0.836   9.316  0.00  0.00    -0.059 C 
ATOM     24  C   UNL     1       2.783   3.650  10.846  0.00  0.00    +0.221 C 
ATOM     25  O   UNL     1       3.354   4.022   9.843  0.00  0.00    -0.275 OA
ATOM     26  H   UNL     1       2.026  -0.752  10.439  0.00  0.00    -0.081 HD
BRANCH  24  27
ATOM     27  C   UNL     1       2.036   4.641  11.700  0.00  0.00    +0.039 C 
ATOM     28  C   UNL     1       2.199   6.045  11.114  0.00  0.00    +0.020 C 
ATOM     29  C   UNL     1       0.552   4.270  11.732  0.00  0.00    +0.020 C 
ATOM     30  C   UNL     1       2.599   4.614  13.123  0.00  0.00    +0.020 C 
ENDBRANCH  24  27
ENDBRANCH  16  17
ENDBRANCH   5  16
TORSDOF 4
