REMARK  Name = ZINC64031735
REMARK  4 active torsions:
REMARK  status: ('A' for Active; 'I' for Inactive)
REMARK    1  A    between atoms: C_7  and  C_10
REMARK    2  A    between atoms: C_11  and  C_12
REMARK    3  A    between atoms: C_11  and  C_14
REMARK    4  A    between atoms: N_16  and  C_17
REMARK                            x       y       z     vdW  Elec       q    Type
REMARK                         _______ _______ _______ _____ _____    ______ ____
ROOT
ATOM      1  C   UNL     1       0.661  -3.129  -0.069  0.00  0.00    +0.030 C 
ATOM      2  C   UNL     1       1.143  -4.427  -0.138  0.00  0.00    +0.114 C 
ENDROOT
BRANCH   1   9
ATOM      3  C   UNL     1       3.994  -0.920  -2.205  0.00  0.00    +0.001 A 
ATOM      4  C   UNL     1       4.614   0.078  -1.442  0.00  0.00    +0.002 A 
ATOM      5  C   UNL     1       4.235   0.345  -0.172  0.00  0.00    +0.026 A 
ATOM      6  C   UNL     1       3.140  -0.433   0.426  0.00  0.00    +0.043 A 
ATOM      7  N   UNL     1       2.582  -0.388   1.607  0.00  0.00    -0.380 N 
ATOM      8  C   UNL     1       1.521  -1.396   1.682  0.00  0.00    +0.149 C 
ATOM      9  C   UNL     1       1.506  -2.090   0.338  0.00  0.00    -0.018 C 
ATOM     10  C   UNL     1       2.507  -1.479  -0.408  0.00  0.00    +0.003 A 
ATOM     11  C   UNL     1       2.980  -1.677  -1.724  0.00  0.00    +0.010 A 
ATOM     12  H   UNL     1       2.832   0.219   2.321  0.00  0.00    +0.160 HD
ENDBRANCH   1   9
BRANCH   2  13
ATOM     13  C   UNL     1       2.596  -4.674  -0.153  0.00  0.00    +0.255 C 
ATOM     14  O   UNL     1       3.371  -3.755   0.028  0.00  0.00    -0.269 OA
ATOM     15  N   UNL     1       3.066  -5.919  -0.366  0.00  0.00    -0.308 N 
ATOM     16  H   UNL     1       2.448  -6.653  -0.511  0.00  0.00    +0.149 HD
BRANCH  15  17
ATOM     17  C   UNL     1       4.510  -6.165  -0.381  0.00  0.00    +0.073 C 
ATOM     18  C   UNL     1       5.005  -6.382   1.050  0.00  0.00    +0.022 C 
ATOM     19  C   UNL     1       6.513  -6.638   1.034  0.00  0.00    +0.002 C 
ATOM     20  C   UNL     1       6.810  -7.884   0.197  0.00  0.00    +0.000 C 
ATOM     21  C   UNL     1       6.315  -7.667  -1.234  0.00  0.00    +0.002 C 
ATOM     22  C   UNL     1       4.807  -7.410  -1.218  0.00  0.00    +0.022 C 
ENDBRANCH  15  17
ENDBRANCH   2  13
BRANCH   2  23
ATOM     23  C   UNL     1       0.229  -5.528  -0.194  0.00  0.00    +0.104 C 
ATOM     24  N   UNL     1      -0.496  -6.402  -0.239  0.00  0.00    -0.191 NA
ENDBRANCH   2  23
TORSDOF 4
