REMARK  Name = ZINC00651346
REMARK  6 active torsions:
REMARK  status: ('A' for Active; 'I' for Inactive)
REMARK    1  A    between atoms: C_4  and  C_7
REMARK    2  A    between atoms: N_9  and  C_10
REMARK    3  A    between atoms: C_10  and  C_17
REMARK    4  A    between atoms: C_11  and  C_12
REMARK    5  A    between atoms: N_19  and  C_20
REMARK    6  A    between atoms: C_23  and  O_26
REMARK                            x       y       z     vdW  Elec       q    Type
REMARK                         _______ _______ _______ _____ _____    ______ ____
ROOT
ATOM      1  C   UNL     1       5.559  -2.804  -0.078  0.00  0.00    +0.098 C 
ATOM      2  C   UNL     1       6.429  -1.869  -0.545  0.00  0.00    +0.043 C 
ENDROOT
BRANCH   2   3
ATOM      3  C   UNL     1       7.533  -2.263  -1.340  0.00  0.00    +0.014 A 
ATOM      4  C   UNL     1       8.587  -1.494  -1.817  0.00  0.00    +0.015 A 
ATOM      5  C   UNL     1       9.550  -2.110  -2.577  0.00  0.00    +0.008 A 
ATOM      6  C   UNL     1       9.444  -3.442  -2.836  0.00  0.00    +0.046 A 
ATOM      7  S   UNL     1       7.938  -3.878  -1.983  0.00  0.00    -0.097 S 
ENDBRANCH   2   3
BRANCH   1  10
ATOM      8  C   UNL     1       3.595  -3.332   1.159  0.00  0.00    +0.248 C 
ATOM      9  O   UNL     1       3.826  -4.515   0.999  0.00  0.00    -0.270 OA
ATOM     10  N   UNL     1       4.401  -2.407   0.601  0.00  0.00    -0.277 N 
ATOM     11  H   UNL     1       4.178  -1.465   0.670  0.00  0.00    +0.155 HD
BRANCH   8  15
ATOM     12  C   UNL     1       0.250  -2.116   3.477  0.00  0.00    +0.000 A 
ATOM     13  C   UNL     1       0.510  -3.463   3.296  0.00  0.00    +0.001 A 
ATOM     14  C   UNL     1       1.594  -3.865   2.544  0.00  0.00    +0.013 A 
ATOM     15  C   UNL     1       2.431  -2.909   1.965  0.00  0.00    +0.037 A 
ATOM     16  C   UNL     1       2.163  -1.552   2.151  0.00  0.00    +0.013 A 
ATOM     17  C   UNL     1       1.075  -1.164   2.906  0.00  0.00    +0.001 A 
ENDBRANCH   8  15
ENDBRANCH   1  10
BRANCH   1  18
ATOM     18  C   UNL     1       5.834  -4.228  -0.286  0.00  0.00    +0.262 C 
ATOM     19  O   UNL     1       6.475  -4.851   0.541  0.00  0.00    -0.268 OA
ATOM     20  N   UNL     1       5.376  -4.848  -1.391  0.00  0.00    -0.280 N 
ATOM     21  H   UNL     1       4.955  -4.333  -2.097  0.00  0.00    +0.155 HD
BRANCH  20  22
ATOM     22  C   UNL     1       5.509  -6.236  -1.521  0.00  0.00    +0.034 A 
ATOM     23  C   UNL     1       5.456  -7.047  -0.395  0.00  0.00    +0.027 A 
ATOM     24  C   UNL     1       5.587  -8.415  -0.523  0.00  0.00    +0.047 A 
ATOM     25  C   UNL     1       5.772  -8.980  -1.777  0.00  0.00    +0.117 A 
ATOM     26  C   UNL     1       5.824  -8.170  -2.902  0.00  0.00    +0.047 A 
ATOM     27  C   UNL     1       5.688  -6.802  -2.776  0.00  0.00    +0.027 A 
BRANCH  25  28
ATOM     28  O   UNL     1       5.902 -10.328  -1.903  0.00  0.00    -0.507 OA
ATOM     29  H   UNL     1       5.064 -10.793  -2.034  0.00  0.00    +0.292 HD
ENDBRANCH  25  28
ENDBRANCH  20  22
ENDBRANCH   1  18
TORSDOF 6
