REMARK  Name = ZINC44610553
REMARK  4 active torsions:
REMARK  status: ('A' for Active; 'I' for Inactive)
REMARK    1  A    between atoms: C_1  and  C_2
REMARK    2  A    between atoms: C_3  and  N_18
REMARK    3  A    between atoms: C_7  and  O_8
REMARK    4  A    between atoms: O_8  and  C_9
REMARK                            x       y       z     vdW  Elec       q    Type
REMARK                         _______ _______ _______ _____ _____    ______ ____
ROOT
ATOM      1  C   UNL     1      -0.041   1.480  -0.004  0.00  0.00    +0.049 C 
ATOM      2  C   UNL     1       0.128  -0.018   0.004  0.00  0.00    +0.012 A 
ATOM      3  C   UNL     1       0.264  -0.709  -1.192  0.00  0.00    +0.031 A 
ATOM      4  C   UNL     1       0.419  -2.090  -1.181  0.00  0.00    +0.023 A 
ATOM      5  C   UNL     1       0.438  -2.774   0.019  0.00  0.00    +0.005 A 
ATOM      6  C   UNL     1       0.302  -2.088   1.211  0.00  0.00    +0.047 A 
ATOM      7  C   UNL     1       0.152  -0.708   1.206  0.00  0.00    +0.135 A 
ENDROOT
BRANCH   3   8
ATOM      8  N   UNL     1       0.244  -0.017  -2.406  0.00  0.00    -0.358 N 
ATOM      9  H   UNL     1       0.135   0.947  -2.413  0.00  0.00    +0.142 HD
ATOM     10  H   UNL     1       0.340  -0.501  -3.241  0.00  0.00    +0.142 HD
ENDBRANCH   3   8
BRANCH   7  11
ATOM     11  O   UNL     1       0.025  -0.034   2.379  0.00  0.00    -0.436 OA
BRANCH  11  12
ATOM     12  C   UNL     1      -0.064  -0.756   3.521  0.00  0.00    +0.243 A 
ATOM     13  C   UNL     1       0.929  -0.694   4.452  0.00  0.00    +0.178 A 
ATOM     14  N   UNL     1       0.858  -1.397   5.580  0.00  0.00    -0.254 NA
ATOM     15  C   UNL     1      -0.167  -2.176   5.838  0.00  0.00    +0.161 A 
ATOM     16  C   UNL     1      -1.218  -2.276   4.910  0.00  0.00    +0.201 A 
ATOM     17  N   UNL     1      -1.149  -1.547   3.751  0.00  0.00    -0.157 N 
ATOM     18  N   UNL     1      -2.323  -1.849   3.052  0.00  0.00    -0.036 NA
ATOM     19  N   UNL     1      -2.991  -2.679   3.780  0.00  0.00    -0.022 NA
ATOM     20  N   UNL     1      -2.358  -2.947   4.867  0.00  0.00    -0.107 NA
ENDBRANCH  11  12
ENDBRANCH   7  11
TORSDOF 3
