REMARK  Name = ZINC53517342
REMARK  6 active torsions:
REMARK  status: ('A' for Active; 'I' for Inactive)
REMARK    1  A    between atoms: C_1  and  N_2
REMARK    2  A    between atoms: N_2  and  C_3
REMARK    3  A    between atoms: N_2  and  C_4
REMARK    4  A    between atoms: C_4  and  C_5
REMARK    5  A    between atoms: C_8  and  C_11
REMARK    6  A    between atoms: C_11  and  N_13
REMARK                            x       y       z     vdW  Elec       q    Type
REMARK                         _______ _______ _______ _____ _____    ______ ____
ROOT
ATOM      1  C   UNL     1      -1.324  -6.246  -0.491  0.00  0.00    +0.270 C 
ATOM      2  O   UNL     1      -1.363  -6.760  -1.595  0.00  0.00    -0.268 OA
ENDROOT
BRANCH   1   3
ATOM      3  N   UNL     1      -1.262  -7.014   0.602  0.00  0.00    -0.143 NA
ATOM      4  C   UNL     1      -1.347  -8.335   0.492  0.00  0.00    +0.199 A 
ATOM      5  N   UNL     1      -1.383  -9.027  -0.678  0.00  0.00    -0.326 N 
ATOM      6  H   UNL     1      -1.350  -8.642  -1.568  0.00  0.00    +0.169 HD
ATOM      7  C   UNL     1      -1.473 -10.383  -0.380  0.00  0.00    +0.065 A 
ATOM      8  C   UNL     1      -1.540 -11.523  -1.168  0.00  0.00    +0.028 A 
ATOM      9  C   UNL     1      -1.625 -12.766  -0.573  0.00  0.00    +0.002 A 
ATOM     10  C   UNL     1      -1.644 -12.880   0.806  0.00  0.00    +0.002 A 
ATOM     11  C   UNL     1      -1.578 -11.752   1.599  0.00  0.00    +0.028 A 
ATOM     12  C   UNL     1      -1.491 -10.498   1.012  0.00  0.00    +0.065 A 
ATOM     13  N   UNL     1      -1.407  -9.210   1.531  0.00  0.00    -0.326 N 
ATOM     14  H   UNL     1      -1.395  -8.977   2.473  0.00  0.00    +0.169 HD
ENDBRANCH   1   3
BRANCH   1  18
ATOM     15  C   UNL     1      -1.388  -2.014  -0.114  0.00  0.00    -0.064 A 
ATOM     16  C   UNL     1      -1.432  -2.594  -1.369  0.00  0.00    +0.002 A 
ATOM     17  C   UNL     1      -1.411  -3.968  -1.498  0.00  0.00    +0.013 A 
ATOM     18  C   UNL     1      -1.346  -4.771  -0.359  0.00  0.00    +0.039 A 
ATOM     19  C   UNL     1      -1.303  -4.180   0.903  0.00  0.00    +0.013 A 
ATOM     20  C   UNL     1      -1.318  -2.805   1.019  0.00  0.00    +0.002 A 
BRANCH  15  21
ATOM     21  C   UNL     1      -1.411  -0.513   0.020  0.00  0.00    -0.044 C 
BRANCH  21  23
ATOM     22  C   UNL     1      -0.062   1.471   0.006  0.00  0.00    -0.096 C 
ATOM     23  N   UNL     1      -0.036   0.002  -0.003  0.00  0.00    +0.379 N 
ATOM     24  C   UNL     1       0.689  -0.482   1.179  0.00  0.00    -0.096 C 
ATOM     25  H   UNL     1       0.430  -0.320  -0.838  0.00  0.00    -0.082 HD
ENDBRANCH  21  23
ENDBRANCH  15  21
ENDBRANCH   1  18
TORSDOF 4
