REMARK  Name = ZINC67614588
REMARK  10 active torsions:
REMARK  status: ('A' for Active; 'I' for Inactive)
REMARK    1  A    between atoms: C_1  and  C_2
REMARK    2  A    between atoms: C_2  and  C_3
REMARK    3  A    between atoms: C_2  and  C_4
REMARK    4  A    between atoms: C_4  and  C_6
REMARK    5  A    between atoms: C_4  and  N_22
REMARK    6  A    between atoms: C_6  and  N_7
REMARK    7  A    between atoms: N_10  and  N_11
REMARK    8  A    between atoms: C_12  and  C_14
REMARK    9  A    between atoms: C_19  and  O_20
REMARK   10  A    between atoms: O_20  and  C_21
REMARK                            x       y       z     vdW  Elec       q    Type
REMARK                         _______ _______ _______ _____ _____    ______ ____
ROOT
ATOM      1  N   UNL     1      -2.554  -2.691  -0.017  0.00  0.00    -0.300 N 
ATOM      2  C   UNL     1      -2.663  -4.031   0.082  0.00  0.00    +0.316 C 
ATOM      3  O   UNL     1      -1.682  -4.704   0.335  0.00  0.00    -0.251 OA
ATOM      4  N   UNL     1      -3.859  -4.625  -0.099  0.00  0.00    -0.218 N 
ATOM      5  H   UNL     1      -3.336  -2.155  -0.218  0.00  0.00    +0.150 HD
ATOM      6  H   UNL     1      -3.937  -5.589  -0.028  0.00  0.00    +0.174 HD
ENDROOT
BRANCH   4   7
ATOM      7  N   UNL     1      -4.989  -3.850  -0.390  0.00  0.00    -0.229 N 
ATOM      8  C   UNL     1      -6.185  -4.444  -0.571  0.00  0.00    +0.264 C 
ATOM      9  O   UNL     1      -6.283  -5.653  -0.481  0.00  0.00    -0.269 OA
ATOM     10  H   UNL     1      -4.911  -2.886  -0.461  0.00  0.00    +0.173 HD
BRANCH   8  11
ATOM     11  C   UNL     1      -7.375  -3.628  -0.877  0.00  0.00    +0.080 A 
ATOM     12  C   UNL     1      -7.266  -2.240  -0.986  0.00  0.00    +0.017 A 
ATOM     13  C   UNL     1      -8.382  -1.483  -1.273  0.00  0.00    +0.001 A 
ATOM     14  C   UNL     1      -9.612  -2.093  -1.454  0.00  0.00    +0.004 A 
ATOM     15  C   UNL     1      -9.734  -3.464  -1.348  0.00  0.00    +0.046 A 
ATOM     16  C   UNL     1      -8.621  -4.242  -1.066  0.00  0.00    +0.132 A 
BRANCH  16  17
ATOM     17  O   UNL     1      -8.738  -5.590  -0.968  0.00  0.00    -0.494 OA
ATOM     18  C   UNL     1     -10.039  -6.144  -1.173  0.00  0.00    +0.277 C 
ENDBRANCH  16  17
ENDBRANCH   8  11
ENDBRANCH   4   7
BRANCH   1  19
ATOM     19  C   UNL     1      -1.254  -2.045   0.180  0.00  0.00    +0.091 C 
BRANCH  19  20
ATOM     20  C   UNL     1      -1.368  -0.556  -0.153  0.00  0.00    -0.048 C 
BRANCH  20  21
ATOM     21  N   UNL     1      -1.640  -0.395  -1.587  0.00  0.00    +0.383 N 
ATOM     22  C   UNL     1      -3.012  -0.863  -1.865  0.00  0.00    -0.078 C 
ATOM     23  C   UNL     1      -3.504  -0.174  -3.113  0.00  0.00    -0.019 C 
ATOM     24  C   UNL     1      -3.294  -1.053  -4.361  0.00  0.00    -0.002 C 
ATOM     25  C   UNL     1      -1.932  -1.775  -4.330  0.00  0.00    -0.002 C 
ATOM     26  C   UNL     1      -0.822  -0.886  -3.831  0.00  0.00    -0.019 C 
ATOM     27  C   UNL     1      -0.664  -1.084  -2.309  0.00  0.00    -0.078 C 
ATOM     28  H   UNL     1      -1.582   0.586  -1.819  0.00  0.00    -0.081 HD
ENDBRANCH  20  21
BRANCH  20  30
ATOM     29  C   UNL     1      -0.134   1.614  -0.229  0.00  0.00    +0.005 C 
ATOM     30  C   UNL     1      -0.057   0.148   0.200  0.00  0.00    -0.029 C 
ATOM     31  C   UNL     1       0.174   0.069   1.710  0.00  0.00    +0.005 C 
ENDBRANCH  20  30
ENDBRANCH  19  20
ENDBRANCH   1  19
TORSDOF 7
