REMARK  Name = ZINC13943230
REMARK  4 active torsions:
REMARK  status: ('A' for Active; 'I' for Inactive)
REMARK    1  A    between atoms: C_1  and  C_2
REMARK    2  A    between atoms: C_2  and  C_3
REMARK    3  A    between atoms: C_6  and  N_9
REMARK    4  A    between atoms: C_13  and  C_14
REMARK                            x       y       z     vdW  Elec       q    Type
REMARK                         _______ _______ _______ _____ _____    ______ ____
ROOT
ATOM      1  N   UNL     1       7.626  -3.333  -0.404  0.00  0.00    -0.190 N 
ATOM      2  C   UNL     1       6.417  -3.095  -0.952  0.00  0.00    +0.263 C 
ATOM      3  O   UNL     1       5.816  -3.972  -1.545  0.00  0.00    -0.269 OA
ATOM      4  C   UNL     1       5.842  -1.746  -0.812  0.00  0.00    +0.100 C 
ATOM      5  C   UNL     1       4.602  -1.428  -1.349  0.00  0.00    +0.028 C 
ATOM      6  C   UNL     1       6.643  -0.748  -0.082  0.00  0.00    +0.257 C 
ATOM      7  O   UNL     1       6.237   0.389   0.069  0.00  0.00    -0.270 OA
ATOM      8  N   UNL     1       7.836  -1.129   0.418  0.00  0.00    -0.235 N 
ATOM      9  C   UNL     1       8.298  -2.377   0.252  0.00  0.00    +0.320 C 
ATOM     10  O   UNL     1       9.384  -2.655   0.722  0.00  0.00    -0.251 OA
ATOM     11  H   UNL     1       8.374  -0.485   0.904  0.00  0.00    +0.159 HD
ENDROOT
BRANCH   5  12
ATOM     12  C   UNL     1       3.991  -0.197  -1.033  0.00  0.00    +0.001 A 
ATOM     13  C   UNL     1       3.852   0.364   0.225  0.00  0.00    +0.091 A 
ATOM     14  N   UNL     1       3.215   1.544   0.124  0.00  0.00    -0.360 N 
ATOM     15  H   UNL     1       3.003   2.122   0.874  0.00  0.00    +0.165 HD
ATOM     16  C   UNL     1       2.904   1.822  -1.193  0.00  0.00    +0.047 A 
ATOM     17  C   UNL     1       3.370   0.755  -1.976  0.00  0.00    +0.008 A 
ATOM     18  C   UNL     1       3.190   0.769  -3.356  0.00  0.00    +0.025 A 
ATOM     19  C   UNL     1       2.551   1.837  -3.950  0.00  0.00    +0.019 A 
ATOM     20  C   UNL     1       2.090   2.893  -3.178  0.00  0.00    +0.017 A 
ATOM     21  C   UNL     1       2.262   2.890  -1.810  0.00  0.00    +0.027 A 
ATOM     22 BR   UNL     1       2.303   1.862  -5.825  0.00  0.00    -0.050 Br
ENDBRANCH   5  12
BRANCH   1  26
ATOM     23  C   UNL     1       9.314  -7.127  -0.760  0.00  0.00    -0.048 A 
ATOM     24  C   UNL     1       9.584  -6.160  -1.711  0.00  0.00    +0.005 A 
ATOM     25  C   UNL     1       9.026  -4.902  -1.595  0.00  0.00    +0.024 A 
ATOM     26  C   UNL     1       8.193  -4.609  -0.524  0.00  0.00    +0.046 A 
ATOM     27  C   UNL     1       7.928  -5.581   0.431  0.00  0.00    +0.024 A 
ATOM     28  C   UNL     1       8.485  -6.838   0.308  0.00  0.00    +0.005 A 
BRANCH  23  30
ATOM     29  C   UNL     1      11.272  -8.527  -0.165  0.00  0.00    +0.009 C 
ATOM     30  C   UNL     1       9.925  -8.499  -0.889  0.00  0.00    +0.032 C 
ENDBRANCH  23  30
ENDBRANCH   1  26
TORSDOF 3
