REMARK  Name = ZINC55068630
REMARK  7 active torsions:
REMARK  status: ('A' for Active; 'I' for Inactive)
REMARK    1  A    between atoms: C_1  and  C_2
REMARK    2  A    between atoms: C_2  and  C_3
REMARK    3  A    between atoms: C_3  and  C_5
REMARK    4  A    between atoms: C_3  and  N_6
REMARK    5  A    between atoms: N_9  and  C_12
REMARK    6  A    between atoms: C_17  and  C_18
REMARK    7  A    between atoms: C_18  and  N_19
REMARK                            x       y       z     vdW  Elec       q    Type
REMARK                         _______ _______ _______ _____ _____    ______ ____
ROOT
ATOM      1  C   UNL     1      -5.205   1.302   3.679  0.00  0.00    +0.032 A 
ATOM      2  C   UNL     1      -6.103   1.875   2.787  0.00  0.00    +0.038 A 
ATOM      3  C   UNL     1      -7.327   2.329   3.238  0.00  0.00    +0.020 A 
ATOM      4  C   UNL     1      -7.660   2.213   4.577  0.00  0.00    +0.015 A 
ATOM      5  C   UNL     1      -6.768   1.643   5.466  0.00  0.00    +0.004 A 
ATOM      6  C   UNL     1      -5.544   1.182   5.021  0.00  0.00    -0.044 A 
ATOM      7 BR   UNL     1      -8.551   3.109   2.026  0.00  0.00    -0.050 Br
ENDROOT
BRANCH   1  11
ATOM      8  N   UNL     1      -1.897   0.160   1.476  0.00  0.00    +0.383 N 
ATOM      9  C   UNL     1      -3.124  -0.647   1.491  0.00  0.00    -0.059 C 
ATOM     10  C   UNL     1      -3.766  -0.574   2.880  0.00  0.00    +0.086 C 
ATOM     11  N   UNL     1      -3.966   0.842   3.227  0.00  0.00    -0.333 N 
ATOM     12  C   UNL     1      -2.825   1.759   3.083  0.00  0.00    +0.086 C 
ATOM     13  C   UNL     1      -2.228   1.576   1.684  0.00  0.00    -0.059 C 
ATOM     14  H   UNL     1      -1.283  -0.152   2.213  0.00  0.00    -0.081 HD
BRANCH   8  15
ATOM     15  C   UNL     1      -1.224   0.002   0.180  0.00  0.00    -0.072 C 
ATOM     16  C   UNL     1      -2.203   0.338  -0.947  0.00  0.00    -0.013 C 
BRANCH  15  18
ATOM     17  C   UNL     1       0.334  -1.737   1.068  0.00  0.00    +0.002 C 
ATOM     18  C   UNL     1      -0.747  -1.444   0.026  0.00  0.00    -0.019 C 
ENDBRANCH  15  18
ENDBRANCH   8  15
ENDBRANCH   1  11
BRANCH   6  19
ATOM     19  C   UNL     1      -4.576   0.555   5.990  0.00  0.00    -0.049 C 
BRANCH  19  20
ATOM     20  N   UNL     1      -3.546   1.537   6.358  0.00  0.00    +0.381 N 
ATOM     21  H   UNL     1      -2.850   1.093   6.938  0.00  0.00    -0.090 HD
ATOM     22  H   UNL     1      -3.109   1.895   5.521  0.00  0.00    -0.090 HD
ATOM     23  H   UNL     1      -3.973   2.297   6.866  0.00  0.00    -0.090 HD
ENDBRANCH  19  20
ENDBRANCH   6  19
TORSDOF 5
