REMARK  Name = ZINC32070449
REMARK  9 active torsions:
REMARK  status: ('A' for Active; 'I' for Inactive)
REMARK    1  A    between atoms: C_1  and  C_2
REMARK    2  A    between atoms: C_7  and  C_24
REMARK    3  A    between atoms: N_9  and  C_10
REMARK    4  A    between atoms: C_10  and  C_12
REMARK    5  A    between atoms: C_10  and  C_14
REMARK    6  A    between atoms: C_12  and  N_13
REMARK    7  A    between atoms: C_16  and  O_22
REMARK    8  A    between atoms: C_17  and  O_21
REMARK    9  A    between atoms: O_22  and  C_23
REMARK                            x       y       z     vdW  Elec       q    Type
REMARK                         _______ _______ _______ _____ _____    ______ ____
ROOT
ATOM      1  C   UNL     1       1.169  -0.204   2.096  0.00  0.00    +0.070 C 
ENDROOT
BRANCH   1   8
ATOM      2  C   UNL     1      -1.104   1.420   1.758  0.00  0.00    +0.024 C 
ATOM      3  C   UNL     1      -0.834   0.248   0.813  0.00  0.00    +0.054 C 
ATOM      4  C   UNL     1      -2.164  -0.351   0.350  0.00  0.00    +0.019 C 
ATOM      5  C   UNL     1      -1.888  -1.536  -0.579  0.00  0.00    +0.003 C 
ATOM      6  C   UNL     1      -1.032  -2.567   0.162  0.00  0.00    +0.019 C 
ATOM      7  C   UNL     1       0.265  -1.905   0.630  0.00  0.00    +0.054 C 
ATOM      8  N   UNL     1      -0.053  -0.778   1.517  0.00  0.00    -0.292 NA
ATOM      9  C   UNL     1       1.114  -2.926   1.389  0.00  0.00    +0.024 C 
ENDBRANCH   1   8
BRANCH   1  10
ATOM     10  C   UNL     1       2.182   0.029   1.004  0.00  0.00    -0.027 A 
ATOM     11  C   UNL     1       2.845   1.240   0.925  0.00  0.00    +0.054 A 
ATOM     12  C   UNL     1       3.776   1.456  -0.078  0.00  0.00    +0.163 A 
ATOM     13  C   UNL     1       4.042   0.452  -1.004  0.00  0.00    +0.177 A 
ATOM     14  C   UNL     1       3.374  -0.760  -0.920  0.00  0.00    +0.086 A 
ATOM     15  C   UNL     1       2.449  -0.971   0.088  0.00  0.00    +0.029 A 
ATOM     16 CL   UNL     1       3.702  -2.014  -2.074  0.00  0.00    -0.080 Cl
BRANCH  13  17
ATOM     17  O   UNL     1       4.955   0.660  -1.991  0.00  0.00    -0.502 OA
ATOM     18  H   UNL     1       5.856   0.405  -1.753  0.00  0.00    +0.292 HD
ENDBRANCH  13  17
BRANCH  12  19
ATOM     19  O   UNL     1       4.428   2.646  -0.157  0.00  0.00    -0.491 OA
ATOM     20  C   UNL     1       4.105   3.630   0.828  0.00  0.00    +0.277 C 
ENDBRANCH  12  19
ENDBRANCH   1  10
BRANCH   1  21
ATOM     21  C   UNL     1       1.747  -1.172   3.130  0.00  0.00    -0.063 C 
BRANCH  21  22
ATOM     22  N   UNL     1       0.693  -1.567   4.074  0.00  0.00    +0.379 N 
ATOM     23  H   UNL     1       1.073  -2.209   4.753  0.00  0.00    -0.090 HD
ATOM     24  H   UNL     1       0.341  -0.747   4.547  0.00  0.00    -0.090 HD
ATOM     25  H   UNL     1      -0.059  -2.014   3.572  0.00  0.00    -0.090 HD
ENDBRANCH  21  22
ENDBRANCH   1  21
TORSDOF 6
