REMARK  Name = ZINC27792360
REMARK  5 active torsions:
REMARK  status: ('A' for Active; 'I' for Inactive)
REMARK    1  A    between atoms: C_1  and  C_2
REMARK    2  A    between atoms: C_3  and  N_9
REMARK    3  A    between atoms: C_13  and  N_17
REMARK    4  A    between atoms: N_17  and  C_18
REMARK    5  A    between atoms: C_18  and  C_19
REMARK                            x       y       z     vdW  Elec       q    Type
REMARK                         _______ _______ _______ _____ _____    ______ ____
ROOT
ATOM      1  N   UNL     1       0.064   3.516  -2.643  0.00  0.00    -0.212 N 
ATOM      2  C   UNL     1      -0.708   4.270  -1.851  0.00  0.00    +0.225 C 
ATOM      3  O   UNL     1      -0.871   5.466  -1.963  0.00  0.00    -0.275 OA
ATOM      4  C   UNL     1      -1.345   3.394  -0.795  0.00  0.00    +0.090 C 
ATOM      5  C   UNL     1      -0.802   1.987  -1.117  0.00  0.00    +0.026 C 
ATOM      6  C   UNL     1       0.085   2.216  -2.322  0.00  0.00    +0.213 C 
ATOM      7  O   UNL     1       0.716   1.359  -2.903  0.00  0.00    -0.277 OA
ENDROOT
BRANCH   1  10
ATOM      8  C   UNL     1      -1.190   3.601  -5.197  0.00  0.00    +0.047 C 
ATOM      9  C   UNL     1       0.215   4.103  -4.983  0.00  0.00    -0.010 A 
ATOM     10  C   UNL     1       0.790   4.043  -3.721  0.00  0.00    +0.048 A 
ATOM     11  C   UNL     1       2.086   4.500  -3.528  0.00  0.00    +0.024 A 
ATOM     12  C   UNL     1       2.799   5.019  -4.591  0.00  0.00    +0.003 A 
ATOM     13  C   UNL     1       2.224   5.083  -5.847  0.00  0.00    +0.020 A 
ATOM     14  C   UNL     1       0.931   4.628  -6.042  0.00  0.00    +0.046 A 
ATOM     15 CL   UNL     1       0.212   4.710  -7.620  0.00  0.00    -0.083 Cl
ENDBRANCH   1  10
BRANCH   5  16
ATOM     16  N   UNL     1      -0.018   1.465   0.010  0.00  0.00    +0.389 N 
ATOM     17  H   UNL     1       1.017   1.832  -0.061  0.00  0.00    -0.085 HD
ATOM     18  H   UNL     1      -0.464   1.806   0.956  0.00  0.00    -0.085 HD
BRANCH  16  19
ATOM     19  C   UNL     1       0.002  -0.004   0.002  0.00  0.00    -0.050 C 
BRANCH  19  20
ATOM     20  C   UNL     1       0.826  -0.509   1.188  0.00  0.00    +0.101 C 
ATOM     21  C   UNL     1       0.933  -2.050   1.151  0.00  0.00    +0.032 C 
ATOM     22  C   UNL     1       0.859  -2.467   2.637  0.00  0.00    +0.030 C 
ATOM     23  C   UNL     1       0.717  -1.130   3.396  0.00  0.00    +0.160 C 
ATOM     24  O   UNL     1       0.152  -0.214   2.431  0.00  0.00    -0.378 OA
ENDBRANCH  19  20
ENDBRANCH  16  19
ENDBRANCH   5  16
TORSDOF 4
