REMARK  Name = ZINC13364939
REMARK  9 active torsions:
REMARK  status: ('A' for Active; 'I' for Inactive)
REMARK    1  A    between atoms: C_1  and  C_2
REMARK    2  A    between atoms: C_7  and  N_12
REMARK    3  A    between atoms: C_9  and  C_11
REMARK    4  A    between atoms: C_16  and  C_18
REMARK    5  A    between atoms: C_18  and  S_19
REMARK    6  A    between atoms: S_19  and  C_20
REMARK    7  A    between atoms: C_24  and  C_34
REMARK    8  A    between atoms: N_30  and  C_31
REMARK    9  A    between atoms: C_31  and  C_32
REMARK                            x       y       z     vdW  Elec       q    Type
REMARK                         _______ _______ _______ _____ _____    ______ ____
ROOT
ATOM      1  S   UNL     1      -7.530   0.958   0.044  0.00  0.00    -0.078 S 
ENDROOT
BRANCH   1   2
ATOM      2  C   UNL     1      -6.037   1.894   0.042  0.00  0.00    +0.173 A 
ATOM      3  N   UNL     1      -4.896   1.250   0.033  0.00  0.00    -0.223 NA
ATOM      4  C   UNL     1      -3.712   1.906   0.030  0.00  0.00    +0.080 A 
ATOM      5  C   UNL     1      -2.496   1.217   0.021  0.00  0.00    +0.043 A 
ATOM      6  C   UNL     1      -1.306   1.933   0.019  0.00  0.00    +0.065 A 
ATOM      7  C   UNL     1      -1.319   3.333   0.032  0.00  0.00    +0.016 A 
ATOM      8  C   UNL     1      -2.500   4.017   0.035  0.00  0.00    +0.016 A 
ATOM      9  C   UNL     1      -3.708   3.319   0.038  0.00  0.00    +0.065 A 
ATOM     10  C   UNL     1      -5.003   4.016   0.049  0.00  0.00    +0.263 A 
ATOM     11  O   UNL     1      -5.066   5.232   0.056  0.00  0.00    -0.267 OA
ATOM     12  N   UNL     1      -6.123   3.257   0.050  0.00  0.00    -0.283 N 
BRANCH   6  13
ATOM     13  C   UNL     1      -0.014   1.210   0.009  0.00  0.00    +0.387 C 
ATOM     14  O   UNL     1       0.002  -0.004   0.002  0.00  0.00    -0.241 OA
ATOM     15  O   UNL     1       1.143   1.899   0.001  0.00  0.00    -0.241 OA
ENDBRANCH   6  13
BRANCH  12  16
ATOM     16  C   UNL     1      -7.439   3.902   0.061  0.00  0.00    +0.154 C 
BRANCH  16  17
ATOM     17  C   UNL     1      -7.881   4.115   1.486  0.00  0.00    -0.013 C 
ATOM     18  C   UNL     1      -8.217   5.313   1.895  0.00  0.00    +0.005 C 
ENDBRANCH  16  17
ENDBRANCH  12  16
ENDBRANCH   1   2
BRANCH   1  19
ATOM     19  C   UNL     1      -6.850  -0.719   0.032  0.00  0.00    +0.173 C 
BRANCH  19  24
ATOM     20  N   UNL     1      -8.446  -5.254   0.015  0.00  0.00    -0.296 N 
ATOM     21  C   UNL     1      -8.716  -3.933   0.024  0.00  0.00    +0.306 C 
ATOM     22  O   UNL     1      -9.869  -3.549   0.032  0.00  0.00    -0.252 OA
ATOM     23  N   UNL     1      -7.708  -3.039   0.024  0.00  0.00    -0.239 N 
ATOM     24  C   UNL     1      -7.978  -1.719   0.032  0.00  0.00    +0.231 C 
ATOM     25  O   UNL     1      -9.127  -1.335   0.040  0.00  0.00    -0.274 OA
ATOM     26  H   UNL     1      -7.526  -5.561   0.009  0.00  0.00    +0.151 HD
ATOM     27  H   UNL     1      -6.787  -3.346   0.017  0.00  0.00    +0.159 HD
BRANCH  20  33
ATOM     28  C   UNL     1     -11.375  -8.003  -1.421  0.00  0.00    +0.008 C 
ATOM     29  C   UNL     1     -10.205  -8.553  -0.603  0.00  0.00    -0.009 C 
ATOM     30  C   UNL     1     -10.663  -8.806   0.835  0.00  0.00    +0.003 C 
ATOM     31  C   UNL     1     -11.145  -7.492   1.454  0.00  0.00    +0.002 C 
ATOM     32  C   UNL     1     -10.000  -6.477   1.454  0.00  0.00    +0.022 C 
ATOM     33  C   UNL     1      -9.543  -6.225   0.016  0.00  0.00    +0.078 C 
ATOM     34  C   UNL     1      -9.060  -7.539  -0.603  0.00  0.00    +0.009 C 
ATOM     35  C   UNL     1      -8.602  -7.287  -2.041  0.00  0.00    +0.009 C 
ENDBRANCH  20  33
ENDBRANCH  19  24
ENDBRANCH   1  19
TORSDOF 7
