REMARK  Name = ZINC33252456
REMARK  7 active torsions:
REMARK  status: ('A' for Active; 'I' for Inactive)
REMARK    1  A    between atoms: C_1  and  C_2
REMARK    2  A    between atoms: C_2  and  C_3
REMARK    3  A    between atoms: C_10  and  C_33
REMARK    4  A    between atoms: C_11  and  S_15
REMARK    5  A    between atoms: S_15  and  N_18
REMARK    6  A    between atoms: C_21  and  C_24
REMARK    7  A    between atoms: N_26  and  C_27
REMARK                            x       y       z     vdW  Elec       q    Type
REMARK                         _______ _______ _______ _____ _____    ______ ____
ROOT
ATOM      1  S   UNL     1       1.885   3.105   1.158  0.00  0.00    +0.061 S 
ATOM      2  O   UNL     1       3.021   3.856   0.754  0.00  0.00    -0.153 OA
ATOM      3  O   UNL     1       0.649   3.717   1.499  0.00  0.00    -0.153 OA
ENDROOT
BRANCH   1  11
ATOM      4  C   UNL     1       5.890   0.384   5.185  0.00  0.00    +0.259 C 
ATOM      5  C   UNL     1       4.878  -0.214   6.129  0.00  0.00    +0.258 C 
ATOM      6  O   UNL     1       5.245  -0.783   7.135  0.00  0.00    -0.271 OA
ATOM      7  N   UNL     1       3.562  -0.114   5.849  0.00  0.00    -0.280 N 
ATOM      8  C   UNL     1       3.153   0.655   4.751  0.00  0.00    +0.076 A 
ATOM      9  C   UNL     1       1.847   0.591   4.293  0.00  0.00    +0.032 A 
ATOM     10  C   UNL     1       1.462   1.345   3.200  0.00  0.00    -0.022 A 
ATOM     11  C   UNL     1       2.380   2.157   2.558  0.00  0.00    +0.112 A 
ATOM     12  C   UNL     1       3.683   2.231   3.015  0.00  0.00    +0.076 A 
ATOM     13  C   UNL     1       4.074   1.483   4.113  0.00  0.00    +0.145 A 
ATOM     14  O   UNL     1       5.348   1.561   4.581  0.00  0.00    -0.478 OA
ATOM     15  C   UNL     1       0.041   1.278   2.703  0.00  0.00    +0.046 C 
ATOM     16  H   UNL     1       2.824  -0.633   6.480  0.00  0.00    +0.155 HD
BRANCH   4  18
ATOM     17  C   UNL     1       7.355  -0.079   3.215  0.00  0.00    +0.008 C 
ATOM     18  C   UNL     1       6.235  -0.634   4.097  0.00  0.00    +0.051 C 
ENDBRANCH   4  18
ENDBRANCH   1  11
BRANCH   1  19
ATOM     19  N   UNL     1       1.563   2.038  -0.067  0.00  0.00    -0.177 NA
ATOM     20  C   UNL     1       0.194   1.560  -0.302  0.00  0.00    +0.110 C 
ATOM     21  C   UNL     1       0.200   0.028  -0.310  0.00  0.00    +0.030 C 
ATOM     22  C   UNL     1       1.224  -0.468  -1.333  0.00  0.00    +0.077 C 
ATOM     23  C   UNL     1       2.620   0.019  -0.938  0.00  0.00    +0.030 C 
ATOM     24  C   UNL     1       2.641   1.551  -0.938  0.00  0.00    +0.110 C 
BRANCH  22  25
ATOM     25  C   UNL     1       1.209  -1.975  -1.368  0.00  0.00    +0.216 C 
ATOM     26  O   UNL     1       0.455  -2.591  -0.646  0.00  0.00    -0.276 OA
ATOM     27  N   UNL     1       2.035  -2.638  -2.202  0.00  0.00    -0.312 N 
ATOM     28  H   UNL     1       2.720  -2.079  -2.857  0.00  0.00    +0.149 HD
BRANCH  27  29
ATOM     29  C   UNL     1       2.021  -4.102  -2.236  0.00  0.00    +0.073 C 
ATOM     30  C   UNL     1       2.933  -4.647  -1.135  0.00  0.00    +0.022 C 
ATOM     31  C   UNL     1       2.918  -6.176  -1.170  0.00  0.00    +0.002 C 
ATOM     32  C   UNL     1       3.418  -6.660  -2.533  0.00  0.00    +0.000 C 
ATOM     33  C   UNL     1       2.506  -6.115  -3.634  0.00  0.00    +0.002 C 
ATOM     34  C   UNL     1       2.521  -4.586  -3.598  0.00  0.00    +0.022 C 
ENDBRANCH  27  29
ENDBRANCH  22  25
ENDBRANCH   1  19
TORSDOF 5
