REMARK  Name = ZINC67481990
REMARK  9 active torsions:
REMARK  status: ('A' for Active; 'I' for Inactive)
REMARK    1  A    between atoms: C_1  and  C_2
REMARK    2  A    between atoms: C_2  and  C_4
REMARK    3  A    between atoms: C_2  and  N_12
REMARK    4  A    between atoms: C_4  and  N_5
REMARK    5  A    between atoms: N_8  and  C_11
REMARK    6  A    between atoms: N_15  and  C_16
REMARK    7  A    between atoms: C_16  and  C_17
REMARK    8  A    between atoms: N_22  and  C_23
REMARK    9  A    between atoms: C_23  and  C_24
REMARK                            x       y       z     vdW  Elec       q    Type
REMARK                         _______ _______ _______ _____ _____    ______ ____
ROOT
ATOM      1  N   UNL     1       0.679  -0.114  -1.324  0.00  0.00    -0.296 N 
ATOM      2  C   UNL     1       2.018  -0.245  -1.419  0.00  0.00    +0.300 C 
ATOM      3  O   UNL     1       2.706  -0.193  -0.418  0.00  0.00    -0.253 OA
ATOM      4  N   UNL     1       2.593  -0.433  -2.624  0.00  0.00    -0.301 N 
ATOM      5  H   UNL     1       0.130  -0.155  -2.123  0.00  0.00    +0.151 HD
ATOM      6  H   UNL     1       2.043  -0.474  -3.422  0.00  0.00    +0.150 HD
ENDROOT
BRANCH   1   8
ATOM      7  C   UNL     1       0.006   1.587   0.299  0.00  0.00    +0.029 C 
ATOM      8  C   UNL     1       0.054   0.091  -0.015  0.00  0.00    +0.085 C 
BRANCH   8   9
ATOM      9  C   UNL     1      -1.368  -0.472  -0.036  0.00  0.00    +0.106 C 
BRANCH   9  10
ATOM     10  N   UNL     1      -1.330  -1.885  -0.435  0.00  0.00    -0.304 NA
ATOM     11  C   UNL     1      -2.644  -2.331  -0.919  0.00  0.00    +0.066 C 
ATOM     12  C   UNL     1      -2.547  -3.788  -1.379  0.00  0.00    -0.064 C 
ATOM     13  N   UNL     1      -2.109  -4.628  -0.257  0.00  0.00    +0.379 N 
ATOM     14  C   UNL     1      -0.784  -4.186   0.200  0.00  0.00    -0.064 C 
ATOM     15  C   UNL     1      -0.867  -2.733   0.673  0.00  0.00    +0.066 C 
ATOM     16  C   UNL     1      -2.033  -6.028  -0.694  0.00  0.00    -0.096 C 
ATOM     17  H   UNL     1      -2.769  -4.548   0.501  0.00  0.00    -0.082 HD
ENDBRANCH   9  10
ENDBRANCH   8   9
ENDBRANCH   1   8
BRANCH   4  18
ATOM     18  C   UNL     1       4.047  -0.575  -2.727  0.00  0.00    +0.090 C 
BRANCH  18  19
ATOM     19  C   UNL     1       4.437  -0.776  -4.192  0.00  0.00    -0.051 C 
ATOM     20  C   UNL     1       5.974  -0.758  -4.334  0.00  0.00    -0.016 C 
ATOM     21  C   UNL     1       6.193   0.003  -5.668  0.00  0.00    -0.020 C 
ATOM     22  C   UNL     1       5.050   1.047  -5.625  0.00  0.00    -0.078 C 
ATOM     23  N   UNL     1       3.907   0.332  -5.009  0.00  0.00    +0.383 N 
ATOM     24  H   UNL     1       3.385   0.965  -4.423  0.00  0.00    -0.081 HD
BRANCH  23  25
ATOM     25  C   UNL     1       3.031  -0.204  -6.059  0.00  0.00    -0.075 C 
BRANCH  25  26
ATOM     26  C   UNL     1       2.386   0.953  -6.825  0.00  0.00    -0.028 C 
ATOM     27  C   UNL     1       1.463   1.733  -5.886  0.00  0.00    +0.002 C 
ATOM     28  C   UNL     1       0.818   2.890  -6.652  0.00  0.00    +0.000 C 
ATOM     29  C   UNL     1       0.004   2.337  -7.823  0.00  0.00    +0.000 C 
ATOM     30  C   UNL     1       0.927   1.556  -8.761  0.00  0.00    +0.000 C 
ATOM     31  C   UNL     1       1.573   0.399  -7.996  0.00  0.00    +0.002 C 
ENDBRANCH  25  26
ENDBRANCH  23  25
ENDBRANCH  18  19
ENDBRANCH   4  18
TORSDOF 7
