REMARK  Name = ZINC40760726
REMARK  7 active torsions:
REMARK  status: ('A' for Active; 'I' for Inactive)
REMARK    1  A    between atoms: C_1  and  C_2
REMARK    2  A    between atoms: C_2  and  C_26
REMARK    3  A    between atoms: C_4  and  N_10
REMARK    4  A    between atoms: C_6  and  C_8
REMARK    5  A    between atoms: C_6  and  C_9
REMARK    6  A    between atoms: C_12  and  N_25
REMARK    7  A    between atoms: C_13  and  N_17
REMARK                            x       y       z     vdW  Elec       q    Type
REMARK                         _______ _______ _______ _____ _____    ______ ____
ROOT
ATOM      1  N   UNL     1       1.648  -2.336  -2.503  0.00  0.00    -0.325 N 
ATOM      2  C   UNL     1       1.556  -3.645  -2.962  0.00  0.00    +0.145 A 
ATOM      3  C   UNL     1       2.191  -4.028  -4.145  0.00  0.00    +0.105 A 
ATOM      4  C   UNL     1       2.067  -5.354  -4.560  0.00  0.00    +0.150 A 
ATOM      5  N   UNL     1       1.353  -6.197  -3.819  0.00  0.00    -0.219 NA
ATOM      6  C   UNL     1       0.769  -5.795  -2.708  0.00  0.00    +0.225 A 
ATOM      7  N   UNL     1       0.866  -4.553  -2.278  0.00  0.00    -0.219 NA
ATOM      8  H   UNL     1       2.154  -1.680  -3.007  0.00  0.00    +0.148 HD
ENDROOT
BRANCH   1  12
ATOM      9  C   UNL     1       0.012   1.538   0.030  0.00  0.00    -0.010 C 
ATOM     10  C   UNL     1       0.028  -0.008   0.018  0.00  0.00    -0.072 C 
ATOM     11  C   UNL     1       0.693  -0.446  -1.283  0.00  0.00    +0.009 C 
ATOM     12  C   UNL     1       0.981  -1.948  -1.254  0.00  0.00    +0.069 C 
ATOM     13  C   UNL     1       1.912  -2.232  -0.075  0.00  0.00    +0.009 C 
ATOM     14  C   UNL     1       1.256  -1.808   1.234  0.00  0.00    -0.072 C 
ATOM     15  N   UNL     1       0.738  -0.451   1.205  0.00  0.00    +0.386 N 
ATOM     16  C   UNL     1       2.338  -1.874   2.336  0.00  0.00    -0.010 C 
ATOM     17  C   UNL     1       0.164  -2.812   1.616  0.00  0.00    -0.010 C 
ATOM     18  C   UNL     1      -1.432  -0.473   0.036  0.00  0.00    -0.010 C 
ATOM     19  H   UNL     1       1.518   0.193   1.370  0.00  0.00    -0.084 HD
ATOM     20  H   UNL     1       0.121  -0.325   2.014  0.00  0.00    -0.084 HD
ENDBRANCH   1  12
BRANCH   4  21
ATOM     21  N   UNL     1       2.679  -5.788  -5.732  0.00  0.00    -0.283 N 
ATOM     22  C   UNL     1       2.640  -7.135  -6.080  0.00  0.00    +0.124 A 
ATOM     23  C   UNL     1       3.345  -7.580  -7.194  0.00  0.00    +0.045 A 
ATOM     24  C   UNL     1       3.298  -8.921  -7.528  0.00  0.00    +0.025 A 
ATOM     25  C   UNL     1       2.545  -9.777  -6.734  0.00  0.00    +0.059 A 
ATOM     26  C   UNL     1       1.870  -9.266  -5.641  0.00  0.00    +0.132 A 
ATOM     27  N   UNL     1       1.937  -7.982  -5.344  0.00  0.00    -0.239 NA
ATOM     28 CL   UNL     1       2.452 -11.469  -7.109  0.00  0.00    -0.082 Cl
ATOM     29  H   UNL     1       3.133  -5.152  -6.306  0.00  0.00    +0.155 HD
ENDBRANCH   4  21
BRANCH   3  30
ATOM     30  N   UNL     1       2.935  -3.103  -4.896  0.00  0.00    -0.353 N 
ATOM     31  H   UNL     1       3.012  -2.184  -4.596  0.00  0.00    +0.143 HD
ATOM     32  H   UNL     1       3.371  -3.384  -5.716  0.00  0.00    +0.143 HD
ENDBRANCH   3  30
TORSDOF 3
