REMARK  Name = ZINC55067464
REMARK  10 active torsions:
REMARK  status: ('A' for Active; 'I' for Inactive)
REMARK    1  A    between atoms: C_1  and  C_2
REMARK    2  A    between atoms: C_2  and  C_3
REMARK    3  A    between atoms: C_3  and  C_5
REMARK    4  A    between atoms: C_3  and  N_6
REMARK    5  A    between atoms: N_9  and  C_12
REMARK    6  A    between atoms: C_17  and  C_18
REMARK    7  A    between atoms: C_18  and  C_20
REMARK    8  A    between atoms: C_18  and  N_21
REMARK    9  A    between atoms: N_21  and  C_22
REMARK   10  A    between atoms: C_22  and  C_23
REMARK                            x       y       z     vdW  Elec       q    Type
REMARK                         _______ _______ _______ _____ _____    ______ ____
ROOT
ATOM      1  C   UNL     1      -4.971   2.363  -2.775  0.00  0.00    +0.031 A 
ATOM      2  C   UNL     1      -5.575   3.051  -1.729  0.00  0.00    +0.023 A 
ATOM      3  C   UNL     1      -6.600   3.938  -1.990  0.00  0.00    +0.002 A 
ATOM      4  C   UNL     1      -7.026   4.143  -3.290  0.00  0.00    +0.000 A 
ATOM      5  C   UNL     1      -6.427   3.460  -4.333  0.00  0.00    +0.004 A 
ATOM      6  C   UNL     1      -5.397   2.575  -4.079  0.00  0.00    -0.041 A 
ENDROOT
BRANCH   1  10
ATOM      7  N   UNL     1      -2.053  -0.037  -1.093  0.00  0.00    +0.383 N 
ATOM      8  C   UNL     1      -3.480  -0.363  -0.967  0.00  0.00    -0.059 C 
ATOM      9  C   UNL     1      -4.210   0.045  -2.251  0.00  0.00    +0.086 C 
ATOM     10  N   UNL     1      -3.933   1.465  -2.514  0.00  0.00    -0.333 N 
ATOM     11  C   UNL     1      -2.532   1.913  -2.496  0.00  0.00    +0.086 C 
ATOM     12  C   UNL     1      -1.880   1.417  -1.201  0.00  0.00    -0.059 C 
ATOM     13  H   UNL     1      -1.681  -0.481  -1.919  0.00  0.00    -0.081 HD
BRANCH   7  14
ATOM     14  C   UNL     1      -1.335  -0.527   0.091  0.00  0.00    -0.072 C 
ATOM     15  C   UNL     1      -1.990   0.034   1.354  0.00  0.00    -0.013 C 
BRANCH  14  17
ATOM     16  C   UNL     1      -0.620  -2.620  -1.071  0.00  0.00    +0.002 C 
ATOM     17  C   UNL     1      -1.390  -2.056   0.124  0.00  0.00    -0.019 C 
ENDBRANCH  14  17
ENDBRANCH   7  14
ENDBRANCH   1  10
BRANCH   6  18
ATOM     18  C   UNL     1      -4.740   1.836  -5.217  0.00  0.00    -0.042 C 
ATOM     19  C   UNL     1      -5.397   0.465  -5.381  0.00  0.00    -0.009 C 
BRANCH  18  20
ATOM     20  N   UNL     1      -4.898   2.607  -6.457  0.00  0.00    +0.383 N 
ATOM     21  H   UNL     1      -5.877   2.656  -6.700  0.00  0.00    -0.085 HD
ATOM     22  H   UNL     1      -4.538   3.539  -6.322  0.00  0.00    -0.085 HD
BRANCH  20  23
ATOM     23  C   UNL     1      -4.157   1.948  -7.541  0.00  0.00    -0.085 C 
ATOM     24  C   UNL     1      -4.322   2.750  -8.833  0.00  0.00    -0.017 C 
ENDBRANCH  20  23
ENDBRANCH  18  20
ENDBRANCH   6  18
TORSDOF 6
