REMARK  Name = ZINC05413533
REMARK  4 active torsions:
REMARK  status: ('A' for Active; 'I' for Inactive)
REMARK    1  A    between atoms: C_1  and  S_2
REMARK    2  A    between atoms: S_2  and  C_3
REMARK    3  A    between atoms: C_3  and  C_4
REMARK    4  A    between atoms: N_6  and  C_7
REMARK                            x       y       z     vdW  Elec       q    Type
REMARK                         _______ _______ _______ _____ _____    ______ ____
ROOT
ATOM      1  C   UNL     1      -5.475   1.363   3.714  0.00  0.00    +0.099 A 
ATOM      2  C   UNL     1      -5.028   2.215   4.688  0.00  0.00    +0.030 A 
ATOM      3  C   UNL     1      -5.911   2.607   5.700  0.00  0.00    +0.023 A 
ATOM      4  C   UNL     1      -7.181   2.128   5.732  0.00  0.00    +0.023 A 
ATOM      5  N   UNL     1      -7.597   1.210   4.825  0.00  0.00    -0.310 N 
ATOM      6  C   UNL     1      -6.797   0.882   3.781  0.00  0.00    +0.273 A 
ATOM      7  O   UNL     1      -7.226   0.164   2.892  0.00  0.00    -0.266 OA
ATOM      8  C   UNL     1      -8.869   0.496   4.939  0.00  0.00    +0.127 C 
ATOM      9  C   UNL     1      -9.865   1.230   5.822  0.00  0.00    -0.008 C 
ATOM     10  C   UNL     1      -9.178   1.648   7.125  0.00  0.00    +0.011 C 
ATOM     11  C   UNL     1      -8.117   2.698   6.775  0.00  0.00    +0.019 C 
ATOM     12  C   UNL     1      -8.831   3.906   6.147  0.00  0.00    -0.073 C 
ATOM     13  C   UNL     1     -10.461   2.439   5.116  0.00  0.00    -0.077 C 
ATOM     14  N   UNL     1      -9.440   3.472   4.872  0.00  0.00    +0.380 N 
ATOM     15  H   UNL     1      -8.709   3.087   4.262  0.00  0.00    -0.086 HD
ATOM     16  H   UNL     1      -9.878   4.279   4.414  0.00  0.00    -0.086 HD
ENDROOT
BRANCH   1  19
ATOM     17  C   UNL     1      -4.365  -0.336   2.470  0.00  0.00    +0.227 C 
ATOM     18  O   UNL     1      -4.787  -1.165   3.248  0.00  0.00    -0.275 OA
ATOM     19  N   UNL     1      -4.628   0.971   2.669  0.00  0.00    -0.281 N 
ATOM     20  H   UNL     1      -4.231   1.639   2.090  0.00  0.00    +0.155 HD
BRANCH  17  21
ATOM     21  C   UNL     1      -3.546  -0.767   1.280  0.00  0.00    +0.164 C 
BRANCH  21  23
ATOM     22  C   UNL     1      -2.373  -2.923  -0.185  0.00  0.00    +0.085 C 
ATOM     23  S   UNL     1      -3.368  -2.572   1.290  0.00  0.00    -0.155 S 
ENDBRANCH  21  23
ENDBRANCH  17  21
ENDBRANCH   1  19
TORSDOF 3
