REMARK  Name = ZINC04814949
REMARK  9 active torsions:
REMARK  status: ('A' for Active; 'I' for Inactive)
REMARK    1  A    between atoms: C_1  and  C_2
REMARK    2  A    between atoms: C_2  and  N_3
REMARK    3  A    between atoms: C_7  and  C_8
REMARK    4  A    between atoms: C_11  and  O_18
REMARK    5  A    between atoms: C_12  and  O_16
REMARK    6  A    between atoms: C_13  and  O_14
REMARK    7  A    between atoms: O_14  and  C_15
REMARK    8  A    between atoms: O_16  and  C_17
REMARK    9  A    between atoms: O_18  and  C_19
REMARK                            x       y       z     vdW  Elec       q    Type
REMARK                         _______ _______ _______ _____ _____    ______ ____
ROOT
ATOM      1  N   UNL     1       4.059  -4.956  -4.058  0.00  0.00    -0.249 N 
ATOM      2  C   UNL     1       3.532  -3.857  -3.482  0.00  0.00    +0.257 C 
ATOM      3  O   UNL     1       2.353  -3.586  -3.614  0.00  0.00    -0.269 OA
ATOM      4  C   UNL     1       4.425  -2.988  -2.691  0.00  0.00    +0.100 C 
ATOM      5  C   UNL     1       3.956  -1.841  -2.074  0.00  0.00    +0.030 C 
ATOM      6  C   UNL     1       5.837  -3.400  -2.581  0.00  0.00    +0.255 C 
ATOM      7  O   UNL     1       6.633  -2.738  -1.943  0.00  0.00    -0.270 OA
ATOM      8  N   UNL     1       6.221  -4.530  -3.209  0.00  0.00    -0.263 N 
ATOM      9  C   UNL     1       5.355  -5.269  -3.916  0.00  0.00    +0.146 C 
ATOM     10  S   UNL     1       5.934  -6.689  -4.678  0.00  0.00    -0.018 S 
ATOM     11  H   UNL     1       7.146  -4.816  -3.147  0.00  0.00    +0.157 HD
ENDROOT
BRANCH   5  12
ATOM     12  C   UNL     1       2.653  -1.366  -2.358  0.00  0.00    +0.021 A 
ATOM     13  C   UNL     1       2.230  -1.219  -3.690  0.00  0.00    +0.015 A 
ATOM     14  C   UNL     1       0.974  -0.761  -3.962  0.00  0.00    +0.050 A 
ATOM     15  C   UNL     1       0.099  -0.441  -2.926  0.00  0.00    +0.165 A 
ATOM     16  C   UNL     1       0.500  -0.574  -1.601  0.00  0.00    +0.204 A 
ATOM     17  C   UNL     1       1.774  -1.038  -1.307  0.00  0.00    +0.172 A 
BRANCH  17  18
ATOM     18  O   UNL     1       2.170  -1.175  -0.017  0.00  0.00    -0.491 OA
ATOM     19  C   UNL     1       1.923  -2.437   0.607  0.00  0.00    +0.277 C 
ENDBRANCH  17  18
BRANCH  16  20
ATOM     20  O   UNL     1      -0.358  -0.254  -0.594  0.00  0.00    -0.488 OA
ATOM     21  C   UNL     1      -0.330   1.094  -0.121  0.00  0.00    +0.277 C 
ENDBRANCH  16  20
BRANCH  15  22
ATOM     22  O   UNL     1      -1.149   0.008  -3.212  0.00  0.00    -0.491 OA
ATOM     23  C   UNL     1      -1.498   0.121  -4.594  0.00  0.00    +0.277 C 
ENDBRANCH  15  22
ENDBRANCH   5  12
BRANCH   1  25
ATOM     24  C   UNL     1       2.580  -6.900  -3.947  0.00  0.00    +0.025 C 
ATOM     25  C   UNL     1       3.195  -5.832  -4.853  0.00  0.00    +0.112 C 
ENDBRANCH   1  25
TORSDOF 5
