REMARK  Name = ZINC51251175
REMARK  11 active torsions:
REMARK  status: ('A' for Active; 'I' for Inactive)
REMARK    1  A    between atoms: C_1  and  C_2
REMARK    2  A    between atoms: C_2  and  C_4
REMARK    3  A    between atoms: C_2  and  N_9
REMARK    4  A    between atoms: N_9  and  C_10
REMARK    5  A    between atoms: N_9  and  C_11
REMARK    6  A    between atoms: C_11  and  C_12
REMARK    7  A    between atoms: C_12  and  C_17
REMARK    8  A    between atoms: C_17  and  N_18
REMARK    9  A    between atoms: N_18  and  C_19
REMARK   10  A    between atoms: C_19  and  C_20
REMARK   11  A    between atoms: C_19  and  C_21
REMARK                            x       y       z     vdW  Elec       q    Type
REMARK                         _______ _______ _______ _____ _____    ______ ____
ROOT
ATOM      1  C   UNL     1       1.404  -1.499   2.147  0.00  0.00    -0.059 C 
ATOM      2  C   UNL     1       0.630  -0.660   3.184  0.00  0.00    +0.003 C 
ATOM      3  C   UNL     1       1.730   0.140   3.924  0.00  0.00    +0.000 C 
ATOM      4  C   UNL     1       2.721   0.491   2.786  0.00  0.00    +0.000 C 
ATOM      5  C   UNL     1       2.734  -0.767   1.894  0.00  0.00    +0.003 C 
ENDROOT
BRANCH   1   6
ATOM      6  C   UNL     1       0.603  -1.595   0.847  0.00  0.00    -0.073 C 
BRANCH   6   7
ATOM      7  N   UNL     1       1.279  -2.515  -0.078  0.00  0.00    +0.383 N 
ATOM      8  C   UNL     1       2.540  -1.913  -0.532  0.00  0.00    -0.095 C 
ATOM      9  H   UNL     1       1.473  -3.385   0.395  0.00  0.00    -0.081 HD
BRANCH   7  11
ATOM     10  C   UNL     1       1.117  -3.727  -2.199  0.00  0.00    -0.008 C 
ATOM     11  C   UNL     1       0.412  -2.770  -1.236  0.00  0.00    -0.034 C 
BRANCH  11  12
ATOM     12  C   UNL     1      -0.881  -3.387  -0.769  0.00  0.00    -0.024 A 
ATOM     13  C   UNL     1      -2.143  -3.155  -1.205  0.00  0.00    +0.009 A 
ATOM     14  C   UNL     1      -3.190  -3.846  -0.624  0.00  0.00    +0.008 A 
ATOM     15  C   UNL     1      -2.923  -4.735   0.364  0.00  0.00    +0.045 A 
ATOM     16  S   UNL     1      -1.147  -4.619   0.495  0.00  0.00    -0.103 S 
ENDBRANCH  11  12
ENDBRANCH   7  11
ENDBRANCH   6   7
ENDBRANCH   1   6
BRANCH   1  17
ATOM     17  C   UNL     1       1.675  -2.900   2.701  0.00  0.00    -0.077 C 
BRANCH  17  18
ATOM     18  N   UNL     1       2.444  -2.793   3.948  0.00  0.00    +0.381 N 
ATOM     19  H   UNL     1       3.321  -2.330   3.764  0.00  0.00    -0.086 HD
ATOM     20  H   UNL     1       1.917  -2.261   4.623  0.00  0.00    -0.086 HD
BRANCH  18  21
ATOM     21  C   UNL     1       2.703  -4.138   4.479  0.00  0.00    -0.078 C 
ATOM     22  C   UNL     1       3.609  -4.035   5.708  0.00  0.00    -0.014 C 
ATOM     23  C   UNL     1       1.379  -4.794   4.875  0.00  0.00    -0.014 C 
ENDBRANCH  18  21
ENDBRANCH  17  18
ENDBRANCH   1  17
TORSDOF 7
