REMARK  Name = ZINC43237471
REMARK  7 active torsions:
REMARK  status: ('A' for Active; 'I' for Inactive)
REMARK    1  A    between atoms: C_1  and  N_2
REMARK    2  A    between atoms: C_4  and  C_7
REMARK    3  A    between atoms: C_7  and  C_9
REMARK    4  A    between atoms: C_7  and  S_11
REMARK    5  A    between atoms: C_9  and  N_10
REMARK    6  A    between atoms: S_11  and  C_12
REMARK    7  A    between atoms: N_16  and  C_17
REMARK                            x       y       z     vdW  Elec       q    Type
REMARK                         _______ _______ _______ _____ _____    ______ ____
ROOT
ATOM      1  C   UNL     1       0.081  -3.242  -1.565  0.00  0.00    +0.070 C 
ENDROOT
BRANCH   1   5
ATOM      2  C   UNL     1       0.256   1.314   0.516  0.00  0.00    +0.172 C 
ATOM      3  N   UNL     1       0.234  -0.141   0.347  0.00  0.00    -0.274 N 
ATOM      4  C   UNL     1       0.149  -0.803  -0.826  0.00  0.00    +0.112 A 
ATOM      5  C   UNL     1       0.159  -2.128  -0.553  0.00  0.00    +0.002 A 
ATOM      6  C   UNL     1       0.252  -2.282   0.834  0.00  0.00    +0.139 A 
ATOM      7  N   UNL     1       0.303  -1.091   1.375  0.00  0.00    -0.180 NA
ENDBRANCH   1   5
BRANCH   1   8
ATOM      8  C   UNL     1      -1.158  -4.096  -1.290  0.00  0.00    -0.067 C 
BRANCH   8   9
ATOM      9  N   UNL     1      -2.367  -3.295  -1.524  0.00  0.00    +0.379 N 
ATOM     10  H   UNL     1      -3.182  -3.833  -1.272  0.00  0.00    -0.090 HD
ATOM     11  H   UNL     1      -2.329  -2.458  -0.962  0.00  0.00    -0.090 HD
ATOM     12  H   UNL     1      -2.419  -3.042  -2.500  0.00  0.00    -0.090 HD
ENDBRANCH   8   9
ENDBRANCH   1   8
BRANCH   1  13
ATOM     13  S   UNL     1       1.567  -4.276  -1.441  0.00  0.00    -0.078 S 
BRANCH  13  14
ATOM     14  C   UNL     1       1.447  -5.362  -2.824  0.00  0.00    +0.210 A 
ATOM     15  N   UNL     1       0.446  -5.437  -3.674  0.00  0.00    -0.101 NA
ATOM     16  N   UNL     1       0.678  -6.334  -4.564  0.00  0.00    -0.022 NA
ATOM     17  N   UNL     1       1.823  -6.888  -4.353  0.00  0.00    -0.043 NA
ATOM     18  N   UNL     1       2.370  -6.272  -3.214  0.00  0.00    -0.217 N 
BRANCH  18  19
ATOM     19  C   UNL     1       3.662  -6.556  -2.583  0.00  0.00    +0.112 C 
ATOM     20  C   UNL     1       4.802  -6.367  -3.605  0.00  0.00    +0.027 C 
ATOM     21  C   UNL     1       5.811  -7.491  -3.261  0.00  0.00    +0.002 C 
ATOM     22  C   UNL     1       4.887  -8.679  -2.893  0.00  0.00    +0.002 C 
ATOM     23  C   UNL     1       3.716  -8.026  -2.131  0.00  0.00    +0.027 C 
ENDBRANCH  18  19
ENDBRANCH  13  14
ENDBRANCH   1  13
TORSDOF 6
