REMARK  Name = ZINC37810776
REMARK  4 active torsions:
REMARK  status: ('A' for Active; 'I' for Inactive)
REMARK    1  A    between atoms: C_1  and  N_2
REMARK    2  A    between atoms: C_3  and  C_5
REMARK    3  A    between atoms: C_12  and  C_14
REMARK    4  A    between atoms: C_14  and  N_20
REMARK                            x       y       z     vdW  Elec       q    Type
REMARK                         _______ _______ _______ _____ _____    ______ ____
ROOT
ATOM      1  C   UNL     1       0.458  -2.159  -1.099  0.00  0.00    +0.162 C 
ATOM      2  C   UNL     1      -1.021  -2.557  -1.066  0.00  0.00    +0.032 C 
ATOM      3  C   UNL     1      -1.144  -4.067  -1.280  0.00  0.00    +0.004 C 
ATOM      4  C   UNL     1      -0.574  -4.439  -2.650  0.00  0.00    +0.019 C 
ATOM      5  C   UNL     1       0.910  -4.063  -2.701  0.00  0.00    +0.108 C 
ATOM      6  N   UNL     1       1.053  -2.642  -2.352  0.00  0.00    -0.291 N 
ATOM      7  C   UNL     1       1.714  -1.798  -3.169  0.00  0.00    +0.205 C 
ATOM      8  O   UNL     1       1.923  -0.655  -2.819  0.00  0.00    -0.277 OA
ENDROOT
BRANCH   7   9
ATOM      9  C   UNL     1       2.194  -2.273  -4.516  0.00  0.00    +0.007 C 
ATOM     10  C   UNL     1       3.212  -3.399  -4.327  0.00  0.00    -0.004 C 
ATOM     11  C   UNL     1       4.401  -2.880  -3.516  0.00  0.00    -0.001 C 
ATOM     12  C   UNL     1       5.059  -1.718  -4.263  0.00  0.00    -0.000 C 
ATOM     13  C   UNL     1       4.041  -0.591  -4.452  0.00  0.00    -0.001 C 
ATOM     14  C   UNL     1       2.851  -1.110  -5.262  0.00  0.00    -0.004 C 
BRANCH   9  15
ATOM     15  N   UNL     1       1.052  -2.771  -5.294  0.00  0.00    +0.388 N 
ATOM     16  H   UNL     1       0.348  -2.050  -5.359  0.00  0.00    -0.089 HD
ATOM     17  H   UNL     1       1.361  -3.023  -6.221  0.00  0.00    -0.089 HD
ATOM     18  H   UNL     1       0.661  -3.581  -4.838  0.00  0.00    -0.089 HD
ENDBRANCH   9  15
ENDBRANCH   7   9
BRANCH   1  21
ATOM     19  C   UNL     1       1.391   1.372   0.048  0.00  0.00    +0.128 C 
ATOM     20  N   UNL     1       1.273  -0.087  -0.022  0.00  0.00    -0.317 N 
ATOM     21  C   UNL     1       0.580  -0.659  -1.026  0.00  0.00    +0.233 C 
ATOM     22  O   UNL     1       0.055   0.034  -1.872  0.00  0.00    -0.274 OA
ATOM     23  H   UNL     1       1.693  -0.640   0.655  0.00  0.00    +0.148 HD
ENDBRANCH   1  21
TORSDOF 3
