REMARK  Name = ZINC00179148
REMARK  6 active torsions:
REMARK  status: ('A' for Active; 'I' for Inactive)
REMARK    1  A    between atoms: C_1  and  C_2
REMARK    2  A    between atoms: C_2  and  O_3
REMARK    3  A    between atoms: O_3  and  C_4
REMARK    4  A    between atoms: C_4  and  C_6
REMARK    5  A    between atoms: C_7  and  N_17
REMARK    6  A    between atoms: C_8  and  C_15
REMARK                            x       y       z     vdW  Elec       q    Type
REMARK                         _______ _______ _______ _____ _____    ______ ____
ROOT
ATOM      1  C   UNL     1       1.473  -2.353   2.427  0.00  0.00    +0.149 A 
ATOM      2  C   UNL     1       1.661  -3.699   2.697  0.00  0.00    +0.075 A 
ATOM      3  C   UNL     1       2.381  -3.773   3.919  0.00  0.00    +0.094 A 
ATOM      4  C   UNL     1       2.601  -2.482   4.343  0.00  0.00    +0.039 A 
ATOM      5  N   UNL     1       2.062  -1.628   3.447  0.00  0.00    -0.336 N 
ATOM      6  C   UNL     1       2.107  -0.165   3.565  0.00  0.00    +0.122 C 
ATOM      7  C   UNL     1       2.450   0.207   5.011  0.00  0.00    +0.022 C 
ATOM      8  C   UNL     1       3.694  -0.569   5.456  0.00  0.00    +0.008 C 
ATOM      9  C   UNL     1       3.329  -2.055   5.596  0.00  0.00    +0.055 C 
ENDROOT
BRANCH   2  10
ATOM     10  N   UNL     1       1.231  -4.767   1.923  0.00  0.00    -0.355 N 
ATOM     11  H   UNL     1       0.744  -4.605   1.101  0.00  0.00    +0.142 HD
ATOM     12  H   UNL     1       1.417  -5.676   2.205  0.00  0.00    +0.142 HD
ENDBRANCH   2  10
BRANCH   1  13
ATOM     13  C   UNL     1       0.801  -1.815   1.305  0.00  0.00    +0.358 C 
ATOM     14  O   UNL     1       0.321  -2.559   0.469  0.00  0.00    -0.243 OA
BRANCH  13  15
ATOM     15  O   UNL     1       0.693  -0.477   1.160  0.00  0.00    -0.460 OA
BRANCH  15  17
ATOM     16  C   UNL     1      -0.019   1.526   0.010  0.00  0.00    +0.048 C 
ATOM     17  C   UNL     1       0.002  -0.004   0.002  0.00  0.00    +0.229 C 
ENDBRANCH  15  17
ENDBRANCH  13  15
ENDBRANCH   1  13
BRANCH   3  18
ATOM     18  C   UNL     1       2.800  -4.969   4.587  0.00  0.00    +0.103 C 
ATOM     19  N   UNL     1       3.132  -5.917   5.117  0.00  0.00    -0.191 NA
ENDBRANCH   3  18
TORSDOF 5
