REMARK  Name = ZINC01156412
REMARK  4 active torsions:
REMARK  status: ('A' for Active; 'I' for Inactive)
REMARK    1  A    between atoms: C_6  and  C_7
REMARK    2  A    between atoms: C_10  and  C_12
REMARK    3  A    between atoms: N_14  and  C_15
REMARK    4  A    between atoms: C_16  and  C_24
REMARK                            x       y       z     vdW  Elec       q    Type
REMARK                         _______ _______ _______ _____ _____    ______ ____
ROOT
ATOM      1  C   UNL     1       1.634   4.435   0.010  0.00  0.00    +0.284 C 
ATOM      2  O   UNL     1       0.417   4.400   0.022  0.00  0.00    -0.266 OA
ATOM      3  N   UNL     1       2.341   3.288  -0.003  0.00  0.00    -0.273 N 
ATOM      4  H   UNL     1       3.311   3.316  -0.013  0.00  0.00    +0.156 HD
ENDROOT
BRANCH   3   5
ATOM      5  C   UNL     1       1.684   2.069  -0.003  0.00  0.00    +0.085 A 
ATOM      6  C   UNL     1       2.232   0.794  -0.015  0.00  0.00    +0.068 A 
ATOM      7  C   UNL     1       1.312  -0.332  -0.012  0.00  0.00    -0.023 A 
ATOM      8  C   UNL     1       0.002  -0.004   0.002  0.00  0.00    -0.004 A 
ATOM      9  S   UNL     1      -0.022   1.766   0.012  0.00  0.00    -0.077 S 
ATOM     10  C   UNL     1      -1.164  -0.944   0.007  0.00  0.00    +0.043 C 
ATOM     11  C   UNL     1      -0.661  -2.341  -0.384  0.00  0.00    +0.005 C 
ATOM     12  C   UNL     1       0.590  -2.663   0.439  0.00  0.00    +0.005 C 
ATOM     13  C   UNL     1       1.757  -1.789  -0.024  0.00  0.00    +0.037 C 
BRANCH   6  14
ATOM     14  C   UNL     1       3.683   0.590  -0.030  0.00  0.00    +0.244 C 
ATOM     15  O   UNL     1       4.275   0.511  -1.091  0.00  0.00    -0.270 OA
ATOM     16  N   UNL     1       4.362   0.489   1.129  0.00  0.00    -0.325 N 
ATOM     17  H   UNL     1       3.890   0.552   1.975  0.00  0.00    +0.145 HD
ATOM     18  H   UNL     1       5.323   0.354   1.119  0.00  0.00    +0.145 HD
ENDBRANCH   6  14
ENDBRANCH   3   5
BRANCH   1  22
ATOM     19  C   UNL     1       3.941   7.218   0.001  0.00  0.00    +0.136 A 
ATOM     20  C   UNL     1       2.763   7.910   0.017  0.00  0.00    +0.050 A 
ATOM     21  C   UNL     1       1.732   6.966   0.017  0.00  0.00    +0.055 A 
ATOM     22  C   UNL     1       2.329   5.724   0.010  0.00  0.00    +0.190 A 
ATOM     23  O   UNL     1       3.667   5.903  -0.003  0.00  0.00    -0.450 OA
BRANCH  19  29
ATOM     24  C   UNL     1       5.442   9.206  -0.010  0.00  0.00    +0.013 A 
ATOM     25  C   UNL     1       6.705   9.758  -0.015  0.00  0.00    +0.021 A 
ATOM     26  C   UNL     1       7.822   8.940  -0.030  0.00  0.00    +0.041 A 
ATOM     27  C   UNL     1       7.679   7.562  -0.036  0.00  0.00    +0.021 A 
ATOM     28  C   UNL     1       6.421   6.997  -0.026  0.00  0.00    +0.013 A 
ATOM     29  C   UNL     1       5.290   7.817  -0.010  0.00  0.00    +0.017 A 
ATOM     30 CL   UNL     1       9.409   9.644  -0.043  0.00  0.00    -0.084 Cl
ENDBRANCH  19  29
ENDBRANCH   1  22
TORSDOF 4
