REMARK  Name = ZINC36865303
REMARK  3 active torsions:
REMARK  status: ('A' for Active; 'I' for Inactive)
REMARK    1  A    between atoms: C_1  and  N_2
REMARK    2  A    between atoms: N_2  and  C_14
REMARK    3  A    between atoms: N_7  and  C_8
REMARK                            x       y       z     vdW  Elec       q    Type
REMARK                         _______ _______ _______ _____ _____    ______ ____
ROOT
ATOM      1  C   UNL     1      -0.680   1.290   0.102  0.00  0.00    +0.132 C 
ATOM      2  N   UNL     1      -0.000  -0.004   0.002  0.00  0.00    -0.300 N 
ATOM      3  C   UNL     1      -0.085  -0.744  -1.168  0.00  0.00    +0.218 A 
ATOM      4  N   UNL     1      -0.164  -2.040  -1.242  0.00  0.00    -0.137 NA
ATOM      5  N   UNL     1      -0.232  -2.394  -2.597  0.00  0.00    -0.253 N 
ATOM      6  C   UNL     1      -0.190  -1.253  -3.314  0.00  0.00    +0.177 A 
ATOM      7  N   UNL     1      -0.105  -0.228  -2.443  0.00  0.00    -0.288 N 
ATOM      8  S   UNL     1      -0.242  -1.128  -5.021  0.00  0.00    -0.011 S 
ATOM      9  H   UNL     1      -0.298  -3.295  -2.953  0.00  0.00    +0.191 HD
ENDROOT
BRANCH   2  10
ATOM     10  C   UNL     1       0.769  -0.517   1.139  0.00  0.00    +0.080 C 
ATOM     11  C   UNL     1      -0.151  -0.666   2.354  0.00  0.00    +0.050 C 
ATOM     12  C   UNL     1       0.677  -1.127   3.557  0.00  0.00    +0.161 C 
ATOM     13  O   UNL     1       1.724  -0.185   3.802  0.00  0.00    -0.380 OA
ATOM     14  C   UNL     1       2.642  -0.039   2.717  0.00  0.00    +0.161 C 
ATOM     15  C   UNL     1       1.894   0.466   1.481  0.00  0.00    +0.050 C 
ENDBRANCH   2  10
BRANCH   7  16
ATOM     16  C   UNL     1      -0.041   1.193  -2.794  0.00  0.00    +0.092 C 
ATOM     17  C   UNL     1      -1.331   1.614  -3.528  0.00  0.00    +0.025 C 
ATOM     18  C   UNL     1      -0.846   2.622  -4.600  0.00  0.00    +0.002 C 
ATOM     19  C   UNL     1       0.498   2.007  -5.064  0.00  0.00    +0.002 C 
ATOM     20  C   UNL     1       1.122   1.443  -3.771  0.00  0.00    +0.025 C 
ENDBRANCH   7  16
TORSDOF 2
