REMARK  Name = ZINC63744033
REMARK  11 active torsions:
REMARK  status: ('A' for Active; 'I' for Inactive)
REMARK    1  A    between atoms: C_1  and  O_2
REMARK    2  A    between atoms: O_2  and  C_3
REMARK    3  A    between atoms: C_5  and  C_13
REMARK    4  A    between atoms: C_7  and  O_11
REMARK    5  A    between atoms: C_8  and  O_9
REMARK    6  A    between atoms: O_9  and  C_10
REMARK    7  A    between atoms: O_11  and  C_12
REMARK    8  A    between atoms: C_17  and  S_20
REMARK    9  A    between atoms: N_18  and  N_19
REMARK   10  A    between atoms: S_20  and  C_21
REMARK   11  A    between atoms: C_21  and  C_22
REMARK                            x       y       z     vdW  Elec       q    Type
REMARK                         _______ _______ _______ _____ _____    ______ ____
ROOT
ATOM      1  C   UNL     1       2.462   0.340   4.203  0.00  0.00    +0.223 C 
ATOM      2  N   UNL     1       2.996   1.601   3.659  0.00  0.00    -0.241 N 
ATOM      3  N   UNL     1       4.374   1.580   3.906  0.00  0.00    -0.161 NA
ATOM      4  C   UNL     1       4.729   0.498   4.513  0.00  0.00    +0.189 C 
ATOM      5  N   UNL     1       3.647  -0.341   4.753  0.00  0.00    -0.221 N 
ATOM      6  H   UNL     1       2.494   2.304   3.217  0.00  0.00    +0.171 HD
ENDROOT
BRANCH   1   9
ATOM      7  C   UNL     1       0.626  -0.619   1.042  0.00  0.00    +0.166 A 
ATOM      8  C   UNL     1       1.202   0.138   2.051  0.00  0.00    +0.056 A 
ATOM      9  C   UNL     1       1.837  -0.486   3.109  0.00  0.00    +0.000 A 
ATOM     10  C   UNL     1       1.900  -1.866   3.166  0.00  0.00    +0.056 A 
ATOM     11  C   UNL     1       1.327  -2.630   2.160  0.00  0.00    +0.166 A 
ATOM     12  C   UNL     1       0.683  -2.006   1.098  0.00  0.00    +0.204 A 
BRANCH   7  14
ATOM     13  C   UNL     1      -0.017   1.425   0.010  0.00  0.00    +0.277 C 
ATOM     14  O   UNL     1       0.002  -0.004   0.002  0.00  0.00    -0.491 OA
ENDBRANCH   7  14
BRANCH  12  15
ATOM     15  O   UNL     1       0.114  -2.753   0.113  0.00  0.00    -0.488 OA
ATOM     16  C   UNL     1       0.939  -3.090  -1.004  0.00  0.00    +0.277 C 
ENDBRANCH  12  15
BRANCH  11  17
ATOM     17  O   UNL     1       1.390  -3.987   2.217  0.00  0.00    -0.491 OA
ATOM     18  C   UNL     1       2.062  -4.559   3.340  0.00  0.00    +0.277 C 
ENDBRANCH  11  17
ENDBRANCH   1   9
BRANCH   5  19
ATOM     19  N   UNL     1       3.674  -1.557   5.374  0.00  0.00    -0.250 NA
ATOM     20  H   UNL     1       4.612  -1.797   5.657  0.00  0.00    +0.141 HD
ATOM     21  H   UNL     1       3.043  -1.576   6.161  0.00  0.00    +0.141 HD
ENDBRANCH   5  19
BRANCH   4  22
ATOM     22  S   UNL     1       6.386   0.129   4.984  0.00  0.00    -0.084 S 
BRANCH  22  23
ATOM     23  C   UNL     1       7.333   1.570   4.420  0.00  0.00    +0.124 C 
BRANCH  23  24
ATOM     24  C   UNL     1       8.810   1.378   4.771  0.00  0.00    +0.184 C 
ATOM     25  N   UNL     1       9.312   0.133   4.175  0.00  0.00    -0.363 N 
ATOM     26  C   UNL     1       9.710  -0.633   5.149  0.00  0.00    +0.060 A 
ATOM     27  C   UNL     1      10.298  -1.980   5.185  0.00  0.00    +0.027 A 
ATOM     28  C   UNL     1      10.618  -2.535   6.371  0.00  0.00    +0.002 A 
ATOM     29  C   UNL     1      10.412  -1.876   7.596  0.00  0.00    +0.002 A 
ATOM     30  C   UNL     1       9.880  -0.640   7.676  0.00  0.00    +0.027 A 
ATOM     31  C   UNL     1       9.493   0.064   6.446  0.00  0.00    +0.060 A 
ATOM     32  N   UNL     1       8.969   1.235   6.224  0.00  0.00    -0.363 N 
ATOM     33  H   UNL     1       9.341  -0.079   3.229  0.00  0.00    +0.162 HD
ATOM     34  H   UNL     1       8.728   1.892   6.895  0.00  0.00    +0.162 HD
ENDBRANCH  23  24
ENDBRANCH  22  23
ENDBRANCH   4  22
TORSDOF 8
