REMARK  Name = ZINC64103360
REMARK  5 active torsions:
REMARK  status: ('A' for Active; 'I' for Inactive)
REMARK    1  A    between atoms: C_1  and  N_2
REMARK    2  A    between atoms: N_2  and  C_3
REMARK    3  A    between atoms: N_2  and  C_10
REMARK    4  A    between atoms: C_3  and  C_4
REMARK    5  A    between atoms: C_4  and  C_5
REMARK                            x       y       z     vdW  Elec       q    Type
REMARK                         _______ _______ _______ _____ _____    ______ ____
ROOT
ATOM      1  C   UNL     1      -1.248  -0.315  -0.083  0.00  0.00    +0.188 C 
ATOM      2  C   UNL     1      -1.977  -0.112  -1.376  0.00  0.00    +0.105 C 
ATOM      3  N   UNL     1      -3.182   0.342  -1.495  0.00  0.00    -0.355 N 
ATOM      4  C   UNL     1      -3.909   0.725  -0.305  0.00  0.00    +0.209 C 
ATOM      5  C   UNL     1      -3.431  -0.215   0.838  0.00  0.00    +0.190 C 
ATOM      6  N   UNL     1      -2.039   0.125   1.084  0.00  0.00    -0.275 NA
ATOM      7  N   UNL     1      -4.407   0.057   1.889  0.00  0.00    -0.161 NA
ATOM      8  O   UNL     1      -5.653   0.441   1.185  0.00  0.00    -0.208 OA
ATOM      9  N   UNL     1      -5.358   0.503  -0.277  0.00  0.00    -0.156 NA
ATOM     10  N   UNL     1      -1.311  -0.433  -2.529  0.00  0.00    -0.318 N 
ATOM     11  C   UNL     1       0.005  -1.084  -2.477  0.00  0.00    +0.106 C 
ATOM     12  C   UNL     1      -0.042  -2.358  -3.326  0.00  0.00    +0.019 C 
ATOM     13  C   UNL     1      -0.514  -2.007  -4.739  0.00  0.00    +0.003 C 
ATOM     14  C   UNL     1      -1.924  -1.417  -4.676  0.00  0.00    +0.019 C 
ATOM     15  C   UNL     1      -1.902  -0.139  -3.842  0.00  0.00    +0.106 C 
ATOM     16  H   UNL     1      -1.707  -0.311   1.931  0.00  0.00    +0.125 HD
ATOM     17  H   UNL     1      -4.090   0.800   2.494  0.00  0.00    +0.158 HD
ATOM     18  H   UNL     1      -5.600  -0.367  -0.728  0.00  0.00    +0.158 HD
ATOM     19  H   UNL     1      -3.593   0.424  -2.370  0.00  0.00    +0.162 HD
ENDROOT
BRANCH   1  21
ATOM     20  C   UNL     1      -0.254   1.887  -0.244  0.00  0.00    +0.106 C 
ATOM     21  N   UNL     1       0.008   0.447  -0.121  0.00  0.00    -0.284 NA
BRANCH  21  22
ATOM     22  C   UNL     1       0.832   0.162   1.061  0.00  0.00    +0.090 C 
BRANCH  22  23
ATOM     23  C   UNL     1       2.224   0.770   0.871  0.00  0.00    +0.049 C 
BRANCH  23  24
ATOM     24  C   UNL     1       3.070   0.477   2.083  0.00  0.00    -0.026 C 
ATOM     25  C   UNL     1       3.934  -0.524   2.260  0.00  0.00    +0.135 C 
ATOM     26  N   UNL     1       4.506  -0.455   3.483  0.00  0.00    -0.162 NA
ATOM     27  N   UNL     1       4.125   0.494   4.173  0.00  0.00    -0.183 NA
ATOM     28  C   UNL     1       3.142   1.256   3.384  0.00  0.00    +0.198 C 
ENDBRANCH  23  24
ENDBRANCH  22  23
ENDBRANCH  21  22
ENDBRANCH   1  21
TORSDOF 4
