REMARK  Name = ZINC43997786
REMARK  11 active torsions:
REMARK  status: ('A' for Active; 'I' for Inactive)
REMARK    1  A    between atoms: C_1  and  C_2
REMARK    2  A    between atoms: C_2  and  N_3
REMARK    3  A    between atoms: N_3  and  C_4
REMARK    4  A    between atoms: C_4  and  C_6
REMARK    5  A    between atoms: C_4  and  C_15
REMARK    6  A    between atoms: C_6  and  N_7
REMARK    7  A    between atoms: C_11  and  C_12
REMARK    8  A    between atoms: C_12  and  C_13
REMARK    9  A    between atoms: C_12  and  C_14
REMARK   10  A    between atoms: C_18  and  C_22
REMARK   11  A    between atoms: C_20  and  C_21
REMARK                            x       y       z     vdW  Elec       q    Type
REMARK                         _______ _______ _______ _____ _____    ______ ____
ROOT
ATOM      1  C   UNL     1       0.455  -1.306  -1.200  0.00  0.00    -0.021 C 
ENDROOT
BRANCH   1   2
ATOM      2  C   UNL     1       1.357  -1.327  -2.408  0.00  0.00    -0.057 A 
ATOM      3  C   UNL     1       1.363  -0.259  -3.285  0.00  0.00    +0.002 A 
ATOM      4  C   UNL     1       2.190  -0.279  -4.393  0.00  0.00    +0.003 A 
ATOM      5  C   UNL     1       3.012  -1.366  -4.622  0.00  0.00    -0.050 A 
ATOM      6  C   UNL     1       3.007  -2.434  -3.744  0.00  0.00    +0.007 A 
ATOM      7  C   UNL     1       2.183  -2.412  -2.634  0.00  0.00    -0.049 A 
ATOM      8  C   UNL     1       2.182  -3.574  -1.674  0.00  0.00    +0.044 C 
ATOM      9  C   UNL     1       3.913  -1.388  -5.830  0.00  0.00    +0.044 C 
ENDBRANCH   1   2
BRANCH   1  10
ATOM     10  N   UNL     1       0.057   0.078  -0.911  0.00  0.00    +0.385 N 
ATOM     11  H   UNL     1      -0.569   0.406  -1.632  0.00  0.00    -0.085 HD
ATOM     12  H   UNL     1       0.876   0.666  -0.885  0.00  0.00    -0.085 HD
BRANCH  10  14
ATOM     13  C   UNL     1      -1.177   1.538   0.619  0.00  0.00    -0.017 C 
ATOM     14  C   UNL     1      -0.624   0.130   0.389  0.00  0.00    -0.085 C 
ENDBRANCH  10  14
ENDBRANCH   1  10
BRANCH   1  15
ATOM     15  C   UNL     1      -0.791  -2.148  -1.480  0.00  0.00    +0.112 C 
BRANCH  15  16
ATOM     16  N   UNL     1      -1.416  -1.696  -2.726  0.00  0.00    -0.337 N 
ATOM     17  C   UNL     1      -1.034  -2.035  -3.996  0.00  0.00    +0.104 A 
ATOM     18  C   UNL     1      -1.874  -1.403  -4.837  0.00  0.00    +0.101 A 
ATOM     19  N   UNL     1      -2.746  -0.698  -4.101  0.00  0.00    -0.349 N 
ATOM     20  C   UNL     1      -2.481  -0.872  -2.836  0.00  0.00    +0.089 A 
ATOM     21  H   UNL     1      -3.462  -0.147  -4.454  0.00  0.00    +0.166 HD
BRANCH  20  22
ATOM     22  C   UNL     1      -3.235  -0.254  -1.687  0.00  0.00    +0.047 C 
ATOM     23  C   UNL     1      -3.677   1.160  -2.068  0.00  0.00    +0.015 C 
ATOM     24  C   UNL     1      -4.467  -1.105  -1.369  0.00  0.00    +0.015 C 
ENDBRANCH  20  22
ENDBRANCH  15  16
ENDBRANCH   1  15
TORSDOF 6
