REMARK  Name = ZINC37767031
REMARK  8 active torsions:
REMARK  status: ('A' for Active; 'I' for Inactive)
REMARK    1  A    between atoms: C_1  and  C_2
REMARK    2  A    between atoms: C_6  and  O_17
REMARK    3  A    between atoms: C_7  and  N_8
REMARK    4  A    between atoms: C_9  and  C_11
REMARK    5  A    between atoms: C_11  and  C_12
REMARK    6  A    between atoms: C_11  and  C_13
REMARK    7  A    between atoms: C_11  and  N_16
REMARK    8  A    between atoms: O_17  and  C_18
REMARK                            x       y       z     vdW  Elec       q    Type
REMARK                         _______ _______ _______ _____ _____    ______ ____
ROOT
ATOM      1  N   UNL     1       0.025  -0.011   2.418  0.00  0.00    -0.284 N 
ATOM      2  C   UNL     1      -0.355  -0.637   3.549  0.00  0.00    +0.206 C 
ATOM      3  O   UNL     1      -0.612  -1.823   3.530  0.00  0.00    -0.277 OA
ATOM      4  H   UNL     1       0.301   0.918   2.447  0.00  0.00    +0.155 HD
ENDROOT
BRANCH   1  11
ATOM      5  C   UNL     1       2.429  -1.285   1.588  0.00  0.00    +0.046 C 
ATOM      6  C   UNL     1       1.173  -1.339   0.757  0.00  0.00    -0.025 A 
ATOM      7  C   UNL     1       1.166  -2.026  -0.442  0.00  0.00    +0.020 A 
ATOM      8  C   UNL     1       0.015  -2.077  -1.207  0.00  0.00    +0.022 A 
ATOM      9  C   UNL     1      -1.135  -1.441  -0.775  0.00  0.00    +0.062 A 
ATOM     10  C   UNL     1      -1.136  -0.751   0.425  0.00  0.00    +0.142 A 
ATOM     11  C   UNL     1       0.022  -0.704   1.199  0.00  0.00    +0.079 A 
ATOM     12 BR   UNL     1       0.014  -3.017  -2.848  0.00  0.00    -0.050 Br
BRANCH  10  13
ATOM     13  O   UNL     1      -2.266  -0.125   0.851  0.00  0.00    -0.493 OA
ATOM     14  C   UNL     1      -3.416  -0.220   0.009  0.00  0.00    +0.277 C 
ENDBRANCH  10  13
ENDBRANCH   1  11
BRANCH   2  15
ATOM     15  C   UNL     1      -0.461   0.135   4.838  0.00  0.00    +0.007 C 
ATOM     16  C   UNL     1       0.912   0.199   5.509  0.00  0.00    -0.001 C 
BRANCH  15  17
ATOM     17  N   UNL     1      -0.932   1.498   4.556  0.00  0.00    +0.388 N 
ATOM     18  H   UNL     1      -1.838   1.456   4.113  0.00  0.00    -0.089 HD
ATOM     19  H   UNL     1      -1.003   2.015   5.419  0.00  0.00    -0.089 HD
ATOM     20  H   UNL     1      -0.278   1.958   3.940  0.00  0.00    -0.089 HD
ENDBRANCH  15  17
BRANCH  15  21
ATOM     21  C   UNL     1      -1.452  -0.563   5.772  0.00  0.00    -0.014 C 
ATOM     22  C   UNL     1      -2.776   0.149   6.056  0.00  0.00    +0.003 C 
ATOM     23  C   UNL     1      -1.700   0.071   7.141  0.00  0.00    +0.003 C 
ENDBRANCH  15  21
ENDBRANCH   2  15
TORSDOF 5
