REMARK  Name = ZINC04090639
REMARK  10 active torsions:
REMARK  status: ('A' for Active; 'I' for Inactive)
REMARK    1  A    between atoms: C_1  and  C_2
REMARK    2  A    between atoms: C_2  and  C_3
REMARK    3  A    between atoms: C_2  and  C_20
REMARK    4  A    between atoms: C_2  and  N_28
REMARK    5  A    between atoms: C_3  and  C_4
REMARK    6  A    between atoms: C_11  and  O_12
REMARK    7  A    between atoms: O_12  and  C_13
REMARK    8  A    between atoms: C_19  and  N_62
REMARK    9  A    between atoms: C_20  and  C_22
REMARK   10  A    between atoms: C_22  and  C_23
REMARK                            x       y       z     vdW  Elec       q    Type
REMARK                         _______ _______ _______ _____ _____    ______ ____
ROOT
ATOM      1  C   UNL     1       0.222  -0.353  -1.448  0.00  0.00    -0.032 C 
ATOM      2  C   UNL     1      -0.755   0.274  -2.408  0.00  0.00    -0.012 A 
ATOM      3  C   UNL     1      -0.371   0.703  -3.661  0.00  0.00    -0.040 A 
ATOM      4  C   UNL     1      -1.304   1.270  -4.516  0.00  0.00    +0.053 A 
ATOM      5  C   UNL     1      -2.624   1.414  -4.120  0.00  0.00    +0.170 A 
ATOM      6  C   UNL     1      -3.015   0.986  -2.856  0.00  0.00    +0.208 A 
ATOM      7  C   UNL     1      -2.079   0.417  -2.004  0.00  0.00    +0.167 A 
ATOM      8  O   UNL     1      -4.349   1.235  -2.704  0.00  0.00    -0.449 OA
ATOM      9  C   UNL     1      -4.855   1.442  -4.036  0.00  0.00    +0.467 C 
ATOM     10  O   UNL     1      -3.712   1.930  -4.763  0.00  0.00    -0.452 OA
ATOM     11  C   UNL     1       1.053   0.574  -4.138  0.00  0.00    +0.017 C 
ATOM     12  C   UNL     1       1.809  -0.423  -3.260  0.00  0.00    -0.074 C 
ATOM     13  C   UNL     1       2.562  -0.743  -0.979  0.00  0.00    -0.095 C 
ATOM     14  N   UNL     1       1.601  -0.032  -1.851  0.00  0.00    +0.383 N 
ATOM     15  H   UNL     1       1.751   0.979  -1.757  0.00  0.00    -0.081 HD
ENDROOT
BRANCH   7  16
ATOM     16  O   UNL     1      -2.458  -0.002  -0.767  0.00  0.00    -0.491 OA
ATOM     17  C   UNL     1      -2.907  -1.354  -0.650  0.00  0.00    +0.277 C 
ENDBRANCH   7  16
BRANCH   1  18
ATOM     18  C   UNL     1      -0.024   0.200  -0.043  0.00  0.00    +0.022 C 
BRANCH  18  20
ATOM     19  C   UNL     1      -0.551   2.421  -1.060  0.00  0.00    +0.039 C 
ATOM     20  C   UNL     1       0.303   1.695  -0.019  0.00  0.00    +0.088 C 
BRANCH  20  21
ATOM     21  N   UNL     1       1.722   1.889  -0.331  0.00  0.00    -0.306 N 
ATOM     22  C   UNL     1       2.666   1.444   0.522  0.00  0.00    +0.326 C 
ATOM     23  O   UNL     1       2.345   0.805   1.502  0.00  0.00    -0.280 OA
ATOM     24  H   UNL     1       1.981   2.337  -1.150  0.00  0.00    +0.149 HD
ENDBRANCH  20  21
BRANCH  20  25
ATOM     25  C   UNL     1       0.009   2.252   1.350  0.00  0.00    +0.156 C 
ATOM     26  O   UNL     1      -0.803   1.709   2.060  0.00  0.00    -0.295 OA
BRANCH  25  27
ATOM     27  C   UNL     1       0.728   3.485   1.832  0.00  0.00    +0.080 C 
BRANCH  27  28
ATOM     28  C   UNL     1       0.248   3.837   3.242  0.00  0.00    -0.004 C 
ATOM     29  C   UNL     1      -1.224   4.296   3.200  0.00  0.00    +0.004 C 
ATOM     30  C   UNL     1      -1.299   5.428   4.255  0.00  0.00    +0.000 C 
ATOM     31  C   UNL     1       0.056   6.156   4.072  0.00  0.00    +0.000 C 
ATOM     32  C   UNL     1       1.062   5.019   3.796  0.00  0.00    +0.004 C 
ENDBRANCH  27  28
ENDBRANCH  25  27
ENDBRANCH  20  25
ENDBRANCH  18  20
ENDBRANCH   1  18
TORSDOF 7
