REMARK  Name = ZINC42171799
REMARK  5 active torsions:
REMARK  status: ('A' for Active; 'I' for Inactive)
REMARK    1  A    between atoms: C_4  and  N_7
REMARK    2  A    between atoms: N_7  and  C_8
REMARK    3  A    between atoms: N_7  and  C_16
REMARK    4  A    between atoms: C_8  and  C_9
REMARK    5  A    between atoms: C_9  and  C_10
REMARK                            x       y       z     vdW  Elec       q    Type
REMARK                         _______ _______ _______ _____ _____    ______ ____
ROOT
ATOM      1  N   UNL     1       2.811  -0.460  -2.693  0.00  0.00    +0.383 N 
ATOM      2  H   UNL     1       2.344   0.261  -3.223  0.00  0.00    -0.081 HD
ENDROOT
BRANCH   1   6
ATOM      3  C   UNL     1       1.875  -0.896   1.450  0.00  0.00    -0.000 C 
ATOM      4  C   UNL     1       1.938  -2.157   0.585  0.00  0.00    -0.002 C 
ATOM      5  C   UNL     1       2.733  -1.863  -0.688  0.00  0.00    -0.015 C 
ATOM      6  C   UNL     1       2.047  -0.742  -1.471  0.00  0.00    -0.068 C 
ATOM      7  C   UNL     1       1.985   0.519  -0.606  0.00  0.00    -0.015 C 
ATOM      8  C   UNL     1       1.189   0.225   0.667  0.00  0.00    -0.002 C 
ENDBRANCH   1   6
BRANCH   1   9
ATOM      9  C   UNL     1       2.905  -1.681  -3.505  0.00  0.00    -0.068 C 
ATOM     10  C   UNL     1       3.568  -1.353  -4.844  0.00  0.00    -0.015 C 
ATOM     11  C   UNL     1       3.666  -2.625  -5.689  0.00  0.00    -0.002 C 
ATOM     12  C   UNL     1       2.263  -3.181  -5.938  0.00  0.00    -0.000 C 
ATOM     13  C   UNL     1       1.599  -3.509  -4.598  0.00  0.00    -0.002 C 
ATOM     14  C   UNL     1       1.502  -2.237  -3.753  0.00  0.00    -0.015 C 
ENDBRANCH   1   9
BRANCH   1  15
ATOM     15  C   UNL     1       4.161  -0.006  -2.333  0.00  0.00    -0.080 C 
BRANCH  15  16
ATOM     16  C   UNL     1       4.208   1.523  -2.354  0.00  0.00    -0.034 C 
BRANCH  16  17
ATOM     17  C   UNL     1       5.636   1.994  -2.070  0.00  0.00    -0.074 C 
ATOM     18  C   UNL     1       5.678   3.535  -2.008  0.00  0.00    -0.018 C 
ATOM     19  C   UNL     1       7.025   3.876  -2.698  0.00  0.00    -0.021 C 
ATOM     20  C   UNL     1       7.099   2.787  -3.796  0.00  0.00    -0.082 C 
ATOM     21  N   UNL     1       6.530   1.573  -3.165  0.00  0.00    +0.381 N 
ATOM     22  H   UNL     1       7.273   1.000  -2.795  0.00  0.00    -0.086 HD
ATOM     23  H   UNL     1       6.005   1.047  -3.848  0.00  0.00    -0.086 HD
ENDBRANCH  16  17
ENDBRANCH  15  16
ENDBRANCH   1  15
TORSDOF 5
