REMARK  Name = ZINC49035607
REMARK  4 active torsions:
REMARK  status: ('A' for Active; 'I' for Inactive)
REMARK    1  A    between atoms: C_1  and  S_2
REMARK    2  A    between atoms: S_2  and  N_5
REMARK    3  A    between atoms: C_9  and  N_12
REMARK    4  A    between atoms: C_13  and  C_15
REMARK                            x       y       z     vdW  Elec       q    Type
REMARK                         _______ _______ _______ _____ _____    ______ ____
ROOT
ATOM      1  N   UNL     1       0.795  -0.411  -1.394  0.00  0.00    -0.180 NA
ATOM      2  C   UNL     1       0.053  -0.601  -2.648  0.00  0.00    +0.109 C 
ATOM      3  C   UNL     1       0.403  -1.976  -3.225  0.00  0.00    +0.019 C 
ATOM      4  C   UNL     1       1.922  -2.092  -3.369  0.00  0.00    +0.025 C 
ATOM      5  C   UNL     1       2.579  -1.965  -1.993  0.00  0.00    +0.089 C 
ATOM      6  C   UNL     1       2.254  -0.584  -1.403  0.00  0.00    +0.131 C 
ENDROOT
BRANCH   1   8
ATOM      7  C   UNL     1      -0.022   1.810   0.012  0.00  0.00    +0.215 C 
ATOM      8  S   UNL     1       0.002  -0.004   0.002  0.00  0.00    +0.029 S 
ATOM      9  O   UNL     1       0.835  -0.488   1.046  0.00  0.00    -0.158 OA
ATOM     10  O   UNL     1      -1.315  -0.510  -0.168  0.00  0.00    -0.158 OA
ENDBRANCH   1   8
BRANCH   5  11
ATOM     11  N   UNL     1       4.030  -2.108  -2.128  0.00  0.00    -0.311 N 
ATOM     12  C   UNL     1       4.588  -3.335  -2.137  0.00  0.00    +0.217 C 
ATOM     13  O   UNL     1       3.889  -4.320  -2.033  0.00  0.00    -0.275 OA
ATOM     14  H   UNL     1       4.590  -1.320  -2.211  0.00  0.00    +0.149 HD
BRANCH  12  15
ATOM     15  C   UNL     1       6.082  -3.483  -2.276  0.00  0.00    +0.079 C 
ATOM     16  C   UNL     1       6.457  -4.970  -2.247  0.00  0.00    +0.017 C 
ATOM     17  C   UNL     1       7.948  -5.098  -2.567  0.00  0.00    +0.027 C 
ATOM     18  C   UNL     1       8.744  -4.152  -1.716  0.00  0.00    -0.031 C 
ATOM     19  C   UNL     1       8.236  -3.143  -1.084  0.00  0.00    -0.030 C 
ATOM     20  C   UNL     1       6.779  -2.780  -1.109  0.00  0.00    +0.039 C 
ENDBRANCH  12  15
ENDBRANCH   5  11
TORSDOF 3
