REMARK  Name = ZINC09542451
REMARK  11 active torsions:
REMARK  status: ('A' for Active; 'I' for Inactive)
REMARK    1  A    between atoms: C_1  and  C_2
REMARK    2  A    between atoms: C_2  and  C_3
REMARK    3  A    between atoms: C_6  and  C_9
REMARK    4  A    between atoms: C_11  and  C_26
REMARK    5  A    between atoms: C_13  and  C_16
REMARK    6  A    between atoms: C_20  and  O_23
REMARK    7  A    between atoms: C_21  and  O_22
REMARK    8  A    between atoms: O_23  and  C_24
REMARK    9  A    between atoms: C_24  and  C_25
REMARK   10  A    between atoms: C_29  and  O_33
REMARK   11  A    between atoms: O_33  and  C_34
REMARK                            x       y       z     vdW  Elec       q    Type
REMARK                         _______ _______ _______ _____ _____    ______ ____
ROOT
ATOM      1  C   UNL     1      -2.762   6.204   1.917  0.00  0.00    +0.040 C 
ATOM      2  N   UNL     1      -2.391   5.963   0.716  0.00  0.00    -0.299 NA
ATOM      3  C   UNL     1      -2.564   4.679   0.049  0.00  0.00    +0.081 C 
ATOM      4  C   UNL     1      -3.249   3.789   2.183  0.00  0.00    -0.028 C 
ATOM      5  C   UNL     1      -3.440   5.183   2.788  0.00  0.00    +0.044 C 
ATOM      6  N   UNL     1      -3.569   3.861   0.744  0.00  0.00    +0.401 N 
ATOM      7  H   UNL     1      -3.571   2.913   0.348  0.00  0.00    -0.081 HD
ATOM      8  H   UNL     1      -4.497   4.284   0.623  0.00  0.00    -0.081 HD
ENDROOT
BRANCH   3   9
ATOM      9  C   UNL     1      -1.248   3.945   0.034  0.00  0.00    -0.039 A 
ATOM     10  C   UNL     1      -0.062   4.655   0.027  0.00  0.00    +0.007 A 
ATOM     11  C   UNL     1       1.146   3.985   0.012  0.00  0.00    +0.047 A 
ATOM     12  C   UNL     1       1.168   2.598   0.005  0.00  0.00    +0.134 A 
ATOM     13  C   UNL     1      -0.024   1.887   0.012  0.00  0.00    +0.060 A 
ATOM     14  C   UNL     1      -1.230   2.562   0.022  0.00  0.00    +0.022 A 
ATOM     15 BR   UNL     1       0.002  -0.004   0.002  0.00  0.00    -0.047 Br
BRANCH  12  16
ATOM     16  O   UNL     1       2.356   1.936  -0.010  0.00  0.00    -0.494 OA
ATOM     17  C   UNL     1       3.542   2.733  -0.017  0.00  0.00    +0.277 C 
ENDBRANCH  12  16
ENDBRANCH   3   9
BRANCH   1  21
ATOM     18  C   UNL     1      -2.048  10.072   3.515  0.00  0.00    -0.048 A 
ATOM     19  C   UNL     1      -1.658   9.779   2.220  0.00  0.00    +0.004 A 
ATOM     20  C   UNL     1      -1.887   8.525   1.695  0.00  0.00    +0.010 A 
ATOM     21  C   UNL     1      -2.514   7.549   2.473  0.00  0.00    -0.004 A 
ATOM     22  C   UNL     1      -2.910   7.853   3.776  0.00  0.00    +0.010 A 
ATOM     23  C   UNL     1      -2.670   9.110   4.292  0.00  0.00    +0.004 A 
BRANCH  18  25
ATOM     24  C   UNL     1      -2.993  12.348   3.789  0.00  0.00    +0.009 C 
ATOM     25  C   UNL     1      -1.794  11.445   4.083  0.00  0.00    +0.032 C 
ENDBRANCH  18  25
ENDBRANCH   1  21
BRANCH   4  26
ATOM     26  C   UNL     1      -4.175   2.810   2.858  0.00  0.00    -0.016 A 
ATOM     27  C   UNL     1      -5.371   2.462   2.257  0.00  0.00    +0.006 A 
ATOM     28  C   UNL     1      -6.222   1.564   2.873  0.00  0.00    +0.004 A 
ATOM     29  C   UNL     1      -5.883   1.011   4.094  0.00  0.00    +0.049 A 
ATOM     30  C   UNL     1      -4.687   1.356   4.702  0.00  0.00    +0.162 A 
ATOM     31  C   UNL     1      -3.826   2.255   4.078  0.00  0.00    +0.160 A 
BRANCH  31  32
ATOM     32  O   UNL     1      -2.648   2.592   4.669  0.00  0.00    -0.503 OA
ATOM     33  H   UNL     1      -2.708   3.356   5.257  0.00  0.00    +0.292 HD
ENDBRANCH  31  32
BRANCH  30  34
ATOM     34  O   UNL     1      -4.352   0.812   5.903  0.00  0.00    -0.489 OA
BRANCH  34  35
ATOM     35  C   UNL     1      -5.280  -0.107   6.481  0.00  0.00    +0.226 C 
ATOM     36  C   UNL     1      -4.735  -0.609   7.819  0.00  0.00    +0.048 C 
ENDBRANCH  34  35
ENDBRANCH  30  34
ENDBRANCH   4  26
TORSDOF 8
