REMARK  Name = ZINC09318936
REMARK  9 active torsions:
REMARK  status: ('A' for Active; 'I' for Inactive)
REMARK    1  A    between atoms: C_1  and  C_2
REMARK    2  A    between atoms: C_2  and  C_3
REMARK    3  A    between atoms: C_3  and  C_5
REMARK    4  A    between atoms: C_3  and  N_6
REMARK    5  A    between atoms: C_9  and  C_15
REMARK    6  A    between atoms: C_10  and  O_14
REMARK    7  A    between atoms: C_12  and  O_13
REMARK    8  A    between atoms: C_21  and  O_27
REMARK    9  A    between atoms: O_27  and  C_28
REMARK                            x       y       z     vdW  Elec       q    Type
REMARK                         _______ _______ _______ _____ _____    ______ ____
ROOT
ATOM      1  C   UNL     1      -0.013   1.086   0.008  0.00  0.00    +0.018 C 
ATOM      2  C   UNL     1      -0.728   1.577   1.245  0.00  0.00    +0.011 A 
ATOM      3  C   UNL     1      -1.995   2.049   1.224  0.00  0.00    -0.022 A 
ATOM      4  C   UNL     1      -2.334   2.422   2.579  0.00  0.00    +0.006 A 
ATOM      5  C   UNL     1      -3.490   2.961   3.155  0.00  0.00    +0.056 A 
ATOM      6  C   UNL     1      -3.457   3.194   4.522  0.00  0.00    +0.121 A 
ATOM      7  C   UNL     1      -2.332   2.908   5.287  0.00  0.00    +0.047 A 
ATOM      8  C   UNL     1      -1.181   2.375   4.735  0.00  0.00    +0.030 A 
ATOM      9  C   UNL     1      -1.188   2.131   3.363  0.00  0.00    +0.047 A 
ATOM     10  N   UNL     1      -0.238   1.622   2.521  0.00  0.00    -0.359 N 
ATOM     11  H   UNL     1       0.650   1.336   2.789  0.00  0.00    +0.166 HD
ATOM     12  C   UNL     1      -2.831   2.133  -0.028  0.00  0.00    +0.018 C 
ATOM     13  C   UNL     1      -2.169   1.258  -1.100  0.00  0.00    -0.076 C 
ATOM     14  N   UNL     1      -0.727   1.583  -1.187  0.00  0.00    +0.388 N 
ATOM     15  H   UNL     1      -0.331   1.142  -2.026  0.00  0.00    -0.084 HD
ATOM     16  H   UNL     1      -0.613   2.602  -1.250  0.00  0.00    -0.084 HD
ENDROOT
BRANCH   1  20
ATOM     17  N   UNL     1       2.929   3.416  -0.109  0.00  0.00    -0.260 N 
ATOM     18  C   UNL     1       1.649   2.986  -0.103  0.00  0.00    +0.262 A 
ATOM     19  O   UNL     1       0.727   3.781  -0.182  0.00  0.00    -0.267 OA
ATOM     20  C   UNL     1       1.400   1.611  -0.003  0.00  0.00    +0.070 A 
ATOM     21  C   UNL     1       2.475   0.746   0.092  0.00  0.00    +0.224 A 
ATOM     22  N   UNL     1       3.721   1.232   0.074  0.00  0.00    -0.161 NA
ATOM     23  C   UNL     1       3.948   2.522  -0.020  0.00  0.00    +0.302 A 
BRANCH  17  24
ATOM     24  C   UNL     1       3.219   4.848  -0.212  0.00  0.00    +0.092 C 
ATOM     25  C   UNL     1       4.000   5.301   1.022  0.00  0.00    +0.031 C 
BRANCH  24  27
ATOM     26  C   UNL     1       3.224   4.774  -2.710  0.00  0.00    +0.006 C 
ATOM     27  C   UNL     1       4.052   5.110  -1.468  0.00  0.00    +0.022 C 
ENDBRANCH  24  27
ENDBRANCH  17  24
BRANCH  23  28
ATOM     28  O   UNL     1       5.221   2.970  -0.028  0.00  0.00    -0.479 OA
ATOM     29  H   UNL     1       5.920   2.305   0.037  0.00  0.00    +0.295 HD
ENDBRANCH  23  28
BRANCH  21  30
ATOM     30  O   UNL     1       2.267  -0.587   0.195  0.00  0.00    -0.492 OA
ATOM     31  H   UNL     1       3.079  -1.108   0.256  0.00  0.00    +0.294 HD
ENDBRANCH  21  30
ENDBRANCH   1  20
BRANCH   6  32
ATOM     32  O   UNL     1      -4.554   3.718   5.130  0.00  0.00    -0.495 OA
ATOM     33  C   UNL     1      -4.471   3.941   6.539  0.00  0.00    +0.277 C 
ENDBRANCH   6  32
TORSDOF 6
