REMARK  Name = ZINC37703135
REMARK  7 active torsions:
REMARK  status: ('A' for Active; 'I' for Inactive)
REMARK    1  A    between atoms: C_1  and  N_2
REMARK    2  A    between atoms: N_2  and  C_3
REMARK    3  A    between atoms: C_3  and  C_4
REMARK    4  A    between atoms: C_7  and  O_13
REMARK    5  A    between atoms: C_8  and  N_10
REMARK    6  A    between atoms: O_13  and  C_14
REMARK    7  A    between atoms: C_21  and  O_23
REMARK                            x       y       z     vdW  Elec       q    Type
REMARK                         _______ _______ _______ _____ _____    ______ ____
ROOT
ATOM      1  C   UNL     1       0.750  -1.985  -1.303  0.00  0.00    -0.062 A 
ATOM      2  C   UNL     1       1.887  -2.664  -0.907  0.00  0.00    +0.005 A 
ATOM      3  C   UNL     1       1.895  -4.045  -0.884  0.00  0.00    +0.048 A 
ATOM      4  C   UNL     1       0.760  -4.751  -1.259  0.00  0.00    +0.151 A 
ATOM      5  C   UNL     1      -0.379  -4.067  -1.655  0.00  0.00    +0.168 A 
ATOM      6  C   UNL     1      -0.384  -2.685  -1.671  0.00  0.00    +0.038 A 
ENDROOT
BRANCH   5   7
ATOM      7  N   UNL     1      -1.591  -4.816  -2.056  0.00  0.00    +0.060 N 
ATOM      8  O   UNL     1      -2.584  -4.220  -2.401  0.00  0.00    -0.126 OA
ATOM      9  O   UNL     1      -1.588  -6.025  -2.038  0.00  0.00    -0.126 OA
ENDBRANCH   5   7
BRANCH   1  10
ATOM     10  C   UNL     1       0.744  -0.478  -1.327  0.00  0.00    -0.047 C 
BRANCH  10  12
ATOM     11  C   UNL     1       0.297   1.500  -0.044  0.00  0.00    -0.100 C 
ATOM     12  N   UNL     1       0.303   0.031  -0.021  0.00  0.00    +0.380 N 
ATOM     13  H   UNL     1       0.935  -0.292   0.697  0.00  0.00    -0.086 HD
ATOM     14  H   UNL     1      -0.628  -0.306   0.174  0.00  0.00    -0.086 HD
ENDBRANCH  10  12
ENDBRANCH   1  10
BRANCH   4  15
ATOM     15  O   UNL     1       0.766  -6.110  -1.238  0.00  0.00    -0.482 OA
BRANCH  15  16
ATOM     16  C   UNL     1       1.932  -6.745  -0.709  0.00  0.00    +0.224 C 
ATOM     17  C   UNL     1       3.007  -6.803  -1.817  0.00  0.00    +0.213 C 
ATOM     18  S   UNL     1       3.789  -8.440  -1.475  0.00  0.00    -0.025 S 
ATOM     19  O   UNL     1       4.175  -9.043  -2.703  0.00  0.00    -0.174 OA
ATOM     20  O   UNL     1       4.741  -8.297  -0.430  0.00  0.00    -0.174 OA
ATOM     21  C   UNL     1       2.285  -9.289  -0.823  0.00  0.00    +0.201 C 
ATOM     22  C   UNL     1       1.536  -8.111  -0.168  0.00  0.00    +0.177 C 
BRANCH  22  23
ATOM     23  O   UNL     1       0.134  -8.294  -0.371  0.00  0.00    -0.386 OA
ATOM     24  H   UNL     1      -0.202  -9.143  -0.053  0.00  0.00    +0.210 HD
ENDBRANCH  22  23
ENDBRANCH  15  16
ENDBRANCH   4  15
TORSDOF 6
