REMARK  Name = ZINC06670493
REMARK  6 active torsions:
REMARK  status: ('A' for Active; 'I' for Inactive)
REMARK    1  A    between atoms: C_1  and  C_2
REMARK    2  A    between atoms: C_2  and  C_3
REMARK    3  A    between atoms: C_2  and  N_37
REMARK    4  A    between atoms: C_4  and  C_5
REMARK    5  A    between atoms: C_4  and  N_37
REMARK    6  A    between atoms: N_11  and  C_13
REMARK                            x       y       z     vdW  Elec       q    Type
REMARK                         _______ _______ _______ _____ _____    ______ ____
ROOT
ATOM      1  C   UNL     1       1.449   4.610   0.013  0.00  0.00    +0.200 C 
ATOM      2  O   UNL     1       0.904   5.693   0.024  0.00  0.00    -0.278 OA
ATOM      3  N   UNL     1       0.708   3.483   0.013  0.00  0.00    -0.278 N 
ATOM      4  C   UNL     1       1.202   2.099   0.002  0.00  0.00    +0.205 C 
ATOM      5  C   UNL     1      -0.014   1.209   0.009  0.00  0.00    +0.238 C 
ATOM      6  O   UNL     1       0.002  -0.004   0.002  0.00  0.00    -0.273 OA
ATOM      7  N   UNL     1      -1.119   1.972   0.018  0.00  0.00    -0.254 N 
ATOM      8  C   UNL     1      -0.757   3.389   0.027  0.00  0.00    +0.224 C 
ENDROOT
BRANCH   7   9
ATOM      9  C   UNL     1      -2.430   1.482   0.021  0.00  0.00    +0.038 A 
ATOM     10  C   UNL     1      -3.503   2.364   0.035  0.00  0.00    +0.025 A 
ATOM     11  C   UNL     1      -4.795   1.878   0.033  0.00  0.00    +0.022 A 
ATOM     12  C   UNL     1      -5.022   0.513   0.028  0.00  0.00    +0.041 A 
ATOM     13  C   UNL     1      -3.955  -0.368   0.019  0.00  0.00    +0.022 A 
ATOM     14  C   UNL     1      -2.661   0.113   0.015  0.00  0.00    +0.025 A 
ATOM     15 CL   UNL     1      -6.648  -0.095   0.033  0.00  0.00    -0.084 Cl
ENDBRANCH   7   9
BRANCH   1  16
ATOM     16  C   UNL     1       2.953   4.522  -0.002  0.00  0.00    +0.015 C 
BRANCH  16  17
ATOM     17  N   UNL     1       3.517   5.885   0.000  0.00  0.00    +0.386 N 
ATOM     18  H   UNL     1       3.189   6.389  -0.832  0.00  0.00    -0.085 HD
ATOM     19  H   UNL     1       3.204   6.380   0.844  0.00  0.00    -0.085 HD
BRANCH  17  21
ATOM     20  C   UNL     1       5.483   5.696  -1.456  0.00  0.00    -0.014 C 
ATOM     21  C   UNL     1       4.991   5.830  -0.014  0.00  0.00    -0.078 C 
ATOM     22  C   UNL     1       5.547   7.118   0.598  0.00  0.00    -0.014 C 
ENDBRANCH  17  21
ENDBRANCH  16  17
ENDBRANCH   1  16
TORSDOF 4
