REMARK  Name = ZINC59947622
REMARK  4 active torsions:
REMARK  status: ('A' for Active; 'I' for Inactive)
REMARK    1  A    between atoms: C_1  and  O_2
REMARK    2  A    between atoms: O_2  and  C_3
REMARK    3  A    between atoms: N_10  and  C_11
REMARK    4  A    between atoms: C_16  and  O_17
REMARK                            x       y       z     vdW  Elec       q    Type
REMARK                         _______ _______ _______ _____ _____    ______ ____
ROOT
ATOM      1  C   UNL     1       1.374  -0.700  -0.592  0.00  0.00    +0.121 A 
ATOM      2  C   UNL     1       2.103   0.054  -1.502  0.00  0.00    +0.047 A 
ATOM      3  C   UNL     1       2.640  -0.533  -2.630  0.00  0.00    +0.027 A 
ATOM      4  C   UNL     1       2.457  -1.890  -2.867  0.00  0.00    +0.043 A 
ATOM      5  C   UNL     1       1.722  -2.650  -1.948  0.00  0.00    +0.030 A 
ATOM      6  C   UNL     1       1.187  -2.054  -0.809  0.00  0.00    +0.057 A 
ATOM      7  C   UNL     1       1.703  -4.035  -2.468  0.00  0.00    +0.135 C 
ATOM      8  N   UNL     1       1.127  -5.083  -1.929  0.00  0.00    -0.238 NA
ATOM      9  C   UNL     1       2.476  -3.980  -3.732  0.00  0.00    +0.267 C 
ATOM     10  O   UNL     1       2.700  -4.915  -4.477  0.00  0.00    -0.268 OA
ATOM     11  N   UNL     1       2.886  -2.712  -3.908  0.00  0.00    -0.280 N 
ATOM     12  H   UNL     1       3.413  -2.407  -4.663  0.00  0.00    +0.155 HD
ENDROOT
BRANCH   8  13
ATOM     13  C   UNL     1       1.320  -6.310  -2.462  0.00  0.00    +0.106 A 
ATOM     14  C   UNL     1       2.620  -6.787  -2.684  0.00  0.00    +0.031 A 
ATOM     15  C   UNL     1       2.808  -8.037  -3.228  0.00  0.00    +0.002 A 
ATOM     16  C   UNL     1       1.718  -8.828  -3.558  0.00  0.00    +0.004 A 
ATOM     17  C   UNL     1       0.431  -8.373  -3.346  0.00  0.00    +0.047 A 
ATOM     18  C   UNL     1       0.219  -7.120  -2.794  0.00  0.00    +0.142 A 
BRANCH  18  19
ATOM     19  O   UNL     1      -1.045  -6.674  -2.580  0.00  0.00    -0.505 OA
ATOM     20  H   UNL     1      -1.425  -6.194  -3.329  0.00  0.00    +0.292 HD
ENDBRANCH  18  19
ENDBRANCH   8  13
BRANCH   1  22
ATOM     21  C   UNL     1       1.083   1.291   0.676  0.00  0.00    +0.277 C 
ATOM     22  O   UNL     1       0.851  -0.109   0.516  0.00  0.00    -0.495 OA
ENDBRANCH   1  22
TORSDOF 3
