REMARK  Name = ZINC50016947
REMARK  5 active torsions:
REMARK  status: ('A' for Active; 'I' for Inactive)
REMARK    1  A    between atoms: C_1  and  C_2
REMARK    2  A    between atoms: C_2  and  C_3
REMARK    3  A    between atoms: C_4  and  C_9
REMARK    4  A    between atoms: C_7  and  N_8
REMARK    5  A    between atoms: C_14  and  N_15
REMARK                            x       y       z     vdW  Elec       q    Type
REMARK                         _______ _______ _______ _____ _____    ______ ____
ROOT
ATOM      1  C   UNL     1      -1.740  -1.087   2.613  0.00  0.00    +0.037 A 
ATOM      2  C   UNL     1      -0.431  -1.459   2.911  0.00  0.00    +0.053 A 
ATOM      3  C   UNL     1       0.091  -1.198   4.163  0.00  0.00    +0.159 A 
ATOM      4  C   UNL     1      -0.689  -0.567   5.123  0.00  0.00    +0.161 A 
ATOM      5  C   UNL     1      -1.991  -0.198   4.829  0.00  0.00    +0.074 A 
ATOM      6  C   UNL     1      -2.516  -0.449   3.578  0.00  0.00    +0.138 A 
ATOM      7  F   UNL     1      -0.176  -0.314   6.347  0.00  0.00    -0.202 F 
ATOM      8  F   UNL     1       1.360  -1.557   4.454  0.00  0.00    -0.202 F 
ENDROOT
BRANCH   1  10
ATOM      9  C   UNL     1      -1.783  -0.913   0.039  0.00  0.00    +0.041 A 
ATOM     10  C   UNL     1      -2.305  -1.366   1.269  0.00  0.00    +0.121 A 
ATOM     11  N   UNL     1      -3.379  -2.077   1.014  0.00  0.00    -0.076 NA
ATOM     12  O   UNL     1      -3.570  -2.096  -0.389  0.00  0.00    -0.339 OA
ATOM     13  C   UNL     1      -2.586  -1.375  -0.952  0.00  0.00    +0.219 A 
BRANCH  13  14
ATOM     14  N   UNL     1      -2.420  -1.146  -2.306  0.00  0.00    -0.327 N 
ATOM     15  H   UNL     1      -1.673  -0.611  -2.619  0.00  0.00    +0.145 HD
ATOM     16  H   UNL     1      -3.049  -1.520  -2.942  0.00  0.00    +0.145 HD
ENDBRANCH  13  14
BRANCH   9  18
ATOM     17  C   UNL     1      -0.933   1.416  -0.017  0.00  0.00    +0.009 C 
ATOM     18  C   UNL     1      -0.553  -0.061  -0.141  0.00  0.00    +0.039 C 
ENDBRANCH   9  18
ENDBRANCH   1  10
BRANCH   6  19
ATOM     19  N   UNL     1      -3.906  -0.047   3.264  0.00  0.00    +0.057 N 
ATOM     20  O   UNL     1      -4.617   0.400   4.133  0.00  0.00    -0.126 OA
ATOM     21  O   UNL     1      -4.329  -0.165   2.137  0.00  0.00    -0.126 OA
ENDBRANCH   6  19
TORSDOF 4
