REMARK  Name = ZINC37823769
REMARK  6 active torsions:
REMARK  status: ('A' for Active; 'I' for Inactive)
REMARK    1  A    between atoms: C_1  and  N_2
REMARK    2  A    between atoms: N_2  and  C_3
REMARK    3  A    between atoms: C_3  and  C_4
REMARK    4  A    between atoms: C_9  and  O_10
REMARK    5  A    between atoms: C_11  and  C_13
REMARK    6  A    between atoms: C_16  and  O_20
REMARK                            x       y       z     vdW  Elec       q    Type
REMARK                         _______ _______ _______ _____ _____    ______ ____
ROOT
ATOM      1  C   UNL     1      -0.018   1.461   0.010  0.00  0.00    +0.132 C 
ATOM      2  N   UNL     1       0.002  -0.004   0.002  0.00  0.00    -0.301 N 
ATOM      3  C   UNL     1       0.000  -0.672  -1.169  0.00  0.00    +0.202 C 
ATOM      4  O   UNL     1       0.017  -1.884  -1.175  0.00  0.00    -0.277 OA
ENDROOT
BRANCH   3   5
ATOM      5  C   UNL     1      -0.023   0.089  -2.470  0.00  0.00    +0.019 C 
ATOM      6  C   UNL     1      -1.462   0.545  -2.786  0.00  0.00    +0.023 C 
ATOM      7  C   UNL     1      -1.558   0.358  -4.324  0.00  0.00    +0.097 C 
ATOM      8  C   UNL     1      -0.703  -0.915  -4.538  0.00  0.00    -0.050 C 
ATOM      9  N   UNL     1       0.414  -0.789  -3.571  0.00  0.00    +0.388 N 
ATOM     10  H   UNL     1       1.218  -0.386  -4.029  0.00  0.00    -0.085 HD
ATOM     11  H   UNL     1       0.653  -1.698  -3.206  0.00  0.00    -0.085 HD
BRANCH   7  12
ATOM     12  O   UNL     1      -2.911   0.141  -4.730  0.00  0.00    -0.394 OA
ATOM     13  H   UNL     1      -3.021   0.019  -5.683  0.00  0.00    +0.210 HD
ENDBRANCH   7  12
ENDBRANCH   3   5
BRANCH   2  14
ATOM     14  C   UNL     1       0.024  -0.743   1.267  0.00  0.00    +0.146 C 
BRANCH  14  15
ATOM     15  C   UNL     1      -1.389  -1.016   1.714  0.00  0.00    +0.011 A 
ATOM     16  C   UNL     1      -1.975  -0.219   2.678  0.00  0.00    +0.009 A 
ATOM     17  C   UNL     1      -3.271  -0.469   3.089  0.00  0.00    +0.001 A 
ATOM     18  C   UNL     1      -3.984  -1.517   2.536  0.00  0.00    +0.004 A 
ATOM     19  C   UNL     1      -3.403  -2.317   1.572  0.00  0.00    +0.046 A 
ATOM     20  C   UNL     1      -2.104  -2.064   1.154  0.00  0.00    +0.122 A 
BRANCH  20  21
ATOM     21  O   UNL     1      -1.532  -2.846   0.201  0.00  0.00    -0.506 OA
ATOM     22  H   UNL     1      -1.062  -3.615   0.553  0.00  0.00    +0.292 HD
ENDBRANCH  20  21
ENDBRANCH  14  15
ENDBRANCH   2  14
TORSDOF 5
