REMARK  Name = ZINC64245512
REMARK  6 active torsions:
REMARK  status: ('A' for Active; 'I' for Inactive)
REMARK    1  A    between atoms: C_1  and  C_2
REMARK    2  A    between atoms: C_2  and  C_4
REMARK    3  A    between atoms: C_2  and  N_10
REMARK    4  A    between atoms: N_13  and  C_14
REMARK    5  A    between atoms: C_14  and  C_15
REMARK    6  A    between atoms: C_15  and  C_16
REMARK                            x       y       z     vdW  Elec       q    Type
REMARK                         _______ _______ _______ _____ _____    ______ ____
ROOT
ATOM      1  N   UNL     1      -1.372  -0.511   0.012  0.00  0.00    -0.291 N 
ATOM      2  C   UNL     1      -2.029  -0.655   1.181  0.00  0.00    +0.300 C 
ATOM      3  O   UNL     1      -1.480  -0.364   2.226  0.00  0.00    -0.253 OA
ATOM      4  N   UNL     1      -3.293  -1.122   1.190  0.00  0.00    -0.299 N 
ATOM      5  H   UNL     1      -1.810  -0.743  -0.822  0.00  0.00    +0.151 HD
ATOM      6  H   UNL     1      -3.731  -1.354   0.356  0.00  0.00    +0.150 HD
ENDROOT
BRANCH   1   8
ATOM      7  C   UNL     1      -0.019   1.526   0.010  0.00  0.00    +0.034 C 
ATOM      8  C   UNL     1       0.002  -0.004   0.002  0.00  0.00    +0.120 C 
BRANCH   8   9
ATOM      9  C   UNL     1       0.707  -0.490  -1.238  0.00  0.00    +0.061 A 
ATOM     10  C   UNL     1       2.085  -0.606  -1.239  0.00  0.00    +0.025 A 
ATOM     11  C   UNL     1       2.724  -1.054  -2.385  0.00  0.00    +0.003 A 
ATOM     12  C   UNL     1       1.950  -1.370  -3.491  0.00  0.00    +0.020 A 
ATOM     13  C   UNL     1       0.578  -1.229  -3.416  0.00  0.00    +0.111 A 
ATOM     14  N   UNL     1       0.003  -0.805  -2.307  0.00  0.00    -0.258 NA
ENDBRANCH   8   9
ENDBRANCH   1   8
BRANCH   4  15
ATOM     15  C   UNL     1      -4.006  -1.278   2.460  0.00  0.00    +0.110 C 
BRANCH  15  16
ATOM     16  C   UNL     1      -5.412  -1.820   2.192  0.00  0.00    +0.052 C 
BRANCH  16  17
ATOM     17  C   UNL     1      -6.146  -1.981   3.499  0.00  0.00    -0.040 C 
ATOM     18  C   UNL     1      -6.994  -1.096   4.070  0.00  0.00    -0.001 A 
ATOM     19  C   UNL     1      -7.467   0.232   3.662  0.00  0.00    +0.010 A 
ATOM     20  C   UNL     1      -8.335   0.894   4.461  0.00  0.00    +0.001 A 
ATOM     21  C   UNL     1      -8.791   0.344   5.667  0.00  0.00    +0.002 A 
ATOM     22  C   UNL     1      -8.401  -0.870   6.109  0.00  0.00    +0.026 A 
ATOM     23  C   UNL     1      -7.491  -1.654   5.347  0.00  0.00    +0.043 A 
ATOM     24  N   UNL     1      -6.971  -2.839   5.558  0.00  0.00    -0.380 N 
ATOM     25  C   UNL     1      -6.088  -3.169   4.433  0.00  0.00    +0.144 C 
ATOM     26  H   UNL     1      -7.144  -3.404   6.327  0.00  0.00    +0.160 HD
ENDBRANCH  16  17
ENDBRANCH  15  16
ENDBRANCH   4  15
TORSDOF 5
