REMARK  Name = ZINC09061093
REMARK  6 active torsions:
REMARK  status: ('A' for Active; 'I' for Inactive)
REMARK    1  A    between atoms: C_1  and  C_2
REMARK    2  A    between atoms: N_11  and  C_12
REMARK    3  A    between atoms: C_12  and  C_13
REMARK    4  A    between atoms: C_14  and  O_22
REMARK    5  A    between atoms: C_18  and  C_20
REMARK    6  A    between atoms: C_20  and  O_21
REMARK                            x       y       z     vdW  Elec       q    Type
REMARK                         _______ _______ _______ _____ _____    ______ ____
ROOT
ATOM      1  C   UNL     1       1.253  -0.475  -0.695  0.00  0.00    +0.167 A 
ATOM      2  C   UNL     1       1.192  -1.535  -1.530  0.00  0.00    +0.204 A 
ATOM      3  C   UNL     1       2.381  -1.967  -2.180  0.00  0.00    +0.227 A 
ATOM      4  O   UNL     1       2.369  -2.922  -2.942  0.00  0.00    -0.284 OA
ATOM      5  C   UNL     1       3.580  -1.259  -1.919  0.00  0.00    +0.098 A 
ATOM      6  C   UNL     1       3.550  -0.211  -1.071  0.00  0.00    +0.134 A 
ATOM      7  O   UNL     1       2.409   0.168  -0.483  0.00  0.00    -0.457 OA
ENDROOT
BRANCH   2   8
ATOM      8  O   UNL     1       0.013  -2.179  -1.745  0.00  0.00    -0.501 OA
ATOM      9  H   UNL     1      -0.501  -1.823  -2.484  0.00  0.00    +0.292 HD
ENDBRANCH   2   8
BRANCH   1  10
ATOM     10  C   UNL     1       0.002  -0.004   0.002  0.00  0.00    +0.183 C 
BRANCH  10  20
ATOM     11  C   UNL     1       1.135  -2.757   1.322  0.00  0.00    +0.028 C 
ATOM     12  C   UNL     1      -0.223  -2.055   1.285  0.00  0.00    +0.075 C 
ATOM     13  C   UNL     1      -1.032  -2.359   2.567  0.00  0.00    +0.059 C 
ATOM     14  C   UNL     1      -1.755  -1.052   2.827  0.00  0.00    -0.025 A 
ATOM     15  C   UNL     1      -2.837  -0.748   3.627  0.00  0.00    +0.005 A 
ATOM     16  C   UNL     1      -3.314   0.549   3.683  0.00  0.00    +0.000 A 
ATOM     17  C   UNL     1      -2.704   1.541   2.936  0.00  0.00    +0.002 A 
ATOM     18  C   UNL     1      -1.620   1.242   2.137  0.00  0.00    +0.023 A 
ATOM     19  C   UNL     1      -1.132  -0.062   2.077  0.00  0.00    +0.034 A 
ATOM     20  N   UNL     1      -0.056  -0.587   1.349  0.00  0.00    -0.319 N 
ENDBRANCH  10  20
ENDBRANCH   1  10
BRANCH   6  21
ATOM     21  C   UNL     1       4.819   0.550  -0.786  0.00  0.00    +0.230 C 
BRANCH  21  22
ATOM     22  O   UNL     1       4.957   1.617  -1.726  0.00  0.00    -0.387 OA
ATOM     23  H   UNL     1       5.754   2.150  -1.602  0.00  0.00    +0.210 HD
ENDBRANCH  21  22
ENDBRANCH   6  21
TORSDOF 5
