REMARK  Name = ZINC53341130
REMARK  5 active torsions:
REMARK  status: ('A' for Active; 'I' for Inactive)
REMARK    1  A    between atoms: C_1  and  C_2
REMARK    2  A    between atoms: C_7  and  N_10
REMARK    3  A    between atoms: N_10  and  C_11
REMARK    4  A    between atoms: C_11  and  C_12
REMARK    5  A    between atoms: N_14  and  C_15
REMARK                            x       y       z     vdW  Elec       q    Type
REMARK                         _______ _______ _______ _____ _____    ______ ____
ROOT
ATOM      1  C   UNL     1       4.226   0.136   2.473  0.00  0.00    +0.015 C 
ENDROOT
BRANCH   1   2
ATOM      2  C   UNL     1       4.955  -0.363   3.694  0.00  0.00    +0.196 C 
ATOM      3  O   UNL     1       4.413  -1.145   4.447  0.00  0.00    -0.278 OA
ATOM      4  N   UNL     1       6.209   0.059   3.950  0.00  0.00    -0.314 N 
ATOM      5  H   UNL     1       6.643   0.684   3.348  0.00  0.00    +0.149 HD
BRANCH   4   6
ATOM      6  C   UNL     1       6.918  -0.427   5.137  0.00  0.00    +0.073 C 
ATOM      7  C   UNL     1       6.471   0.402   6.358  0.00  0.00    +0.022 C 
ATOM      8  C   UNL     1       6.774  -0.384   7.605  0.00  0.00    +0.002 C 
ATOM      9  C   UNL     1       8.141  -0.017   8.216  0.00  0.00    +0.000 C 
ATOM     10  C   UNL     1       9.242   0.158   7.153  0.00  0.00    +0.000 C 
ATOM     11  C   UNL     1       9.177  -0.892   6.077  0.00  0.00    +0.002 C 
ATOM     12  C   UNL     1       8.351  -0.338   4.899  0.00  0.00    +0.022 C 
ENDBRANCH   4   6
ENDBRANCH   1   2
BRANCH   1  13
ATOM     13  N   UNL     1       2.888  -0.468   2.421  0.00  0.00    +0.387 N 
ATOM     14  H   UNL     1       2.371  -0.213   3.249  0.00  0.00    -0.085 HD
ATOM     15  H   UNL     1       2.974  -1.472   2.374  0.00  0.00    -0.085 HD
BRANCH  13  21
ATOM     16  C   UNL     1      -0.019   1.526   0.010  0.00  0.00    +0.007 C 
ATOM     17  C   UNL     1       0.002  -0.004   0.002  0.00  0.00    -0.016 C 
ATOM     18  C   UNL     1       0.718  -0.497  -1.257  0.00  0.00    +0.003 C 
ATOM     19  C   UNL     1       2.154   0.032  -1.268  0.00  0.00    -0.001 C 
ATOM     20  C   UNL     1       2.894  -0.475  -0.028  0.00  0.00    -0.016 C 
ATOM     21  C   UNL     1       2.178   0.019   1.231  0.00  0.00    -0.071 C 
ATOM     22  C   UNL     1       0.742  -0.511   1.242  0.00  0.00    -0.013 C 
ENDBRANCH  13  21
ENDBRANCH   1  13
TORSDOF 4
