REMARK  Name = ZINC40259171
REMARK  3 active torsions:
REMARK  status: ('A' for Active; 'I' for Inactive)
REMARK    1  A    between atoms: C_3  and  C_6
REMARK    2  A    between atoms: C_6  and  C_8
REMARK    3  A    between atoms: C_6  and  O_19
REMARK                            x       y       z     vdW  Elec       q    Type
REMARK                         _______ _______ _______ _____ _____    ______ ____
ROOT
ATOM      1  C   UNL     1       4.109   0.359   1.363  0.00  0.00    -0.008 A 
ATOM      2  C   UNL     1       4.220  -0.943   1.820  0.00  0.00    +0.009 A 
ATOM      3  C   UNL     1       4.687  -1.194   3.095  0.00  0.00    +0.030 A 
ATOM      4  C   UNL     1       5.045  -0.138   3.919  0.00  0.00    +0.087 A 
ATOM      5  C   UNL     1       4.934   1.174   3.460  0.00  0.00    +0.157 A 
ATOM      6  C   UNL     1       4.469   1.416   2.177  0.00  0.00    +0.055 A 
ATOM      7  O   UNL     1       5.348   1.987   4.462  0.00  0.00    -0.408 OA
ATOM      8  C   UNL     1       5.708   1.239   5.517  0.00  0.00    +0.419 A 
ATOM      9  O   UNL     1       6.125   1.671   6.574  0.00  0.00    -0.223 OA
ATOM     10  N   UNL     1       5.537  -0.064   5.222  0.00  0.00    -0.288 N 
ATOM     11  H   UNL     1       5.722  -0.814   5.809  0.00  0.00    +0.172 HD
ENDROOT
BRANCH   1  12
ATOM     12  C   UNL     1       3.599   0.625  -0.029  0.00  0.00    +0.210 C 
BRANCH  12  15
ATOM     13  C   UNL     1      -0.016   1.341   0.009  0.00  0.00    +0.041 A 
ATOM     14  C   UNL     1       1.331   1.769  -0.001  0.00  0.00    +0.047 A 
ATOM     15  C   UNL     1       2.092   0.660  -0.014  0.00  0.00    +0.138 A 
ATOM     16  O   UNL     1       1.282  -0.411  -0.012  0.00  0.00    -0.465 OA
ATOM     17  C   UNL     1       0.002  -0.004   0.002  0.00  0.00    +0.195 A 
ENDBRANCH  12  15
BRANCH  12  18
ATOM     18  O   UNL     1       4.043  -0.413  -0.905  0.00  0.00    -0.379 OA
ATOM     19  H   UNL     1       3.739  -1.296  -0.654  0.00  0.00    +0.211 HD
ENDBRANCH  12  18
ENDBRANCH   1  12
TORSDOF 3
