REMARK  Name = ZINC52697416
REMARK  10 active torsions:
REMARK  status: ('A' for Active; 'I' for Inactive)
REMARK    1  A    between atoms: C_1  and  C_2
REMARK    2  A    between atoms: C_6  and  O_8
REMARK    3  A    between atoms: O_8  and  C_9
REMARK    4  A    between atoms: C_9  and  C_10
REMARK    5  A    between atoms: C_13  and  C_15
REMARK    6  A    between atoms: C_15  and  N_16
REMARK    7  A    between atoms: N_16  and  C_17
REMARK    8  A    between atoms: C_17  and  C_18
REMARK    9  A    between atoms: C_17  and  C_19
REMARK   10  A    between atoms: C_17  and  C_20
REMARK                            x       y       z     vdW  Elec       q    Type
REMARK                         _______ _______ _______ _____ _____    ______ ____
ROOT
ATOM      1  C   UNL     1       0.065  -2.930   4.753  0.00  0.00    +0.142 A 
ATOM      2  C   UNL     1       1.165  -3.394   5.371  0.00  0.00    +0.048 A 
ATOM      3  C   UNL     1       0.722  -4.224   6.427  0.00  0.00    +0.043 A 
ATOM      4  C   UNL     1      -0.622  -4.217   6.391  0.00  0.00    +0.089 A 
ATOM      5  O   UNL     1      -1.015  -3.427   5.378  0.00  0.00    -0.463 OA
ENDROOT
BRANCH   1   6
ATOM      6  C   UNL     1       0.047  -2.004   3.563  0.00  0.00    +0.303 C 
BRANCH   6   7
ATOM      7  O   UNL     1       0.051  -2.775   2.360  0.00  0.00    -0.483 OA
BRANCH   7  13
ATOM      8  C   UNL     1      -0.018   1.503   0.010  0.00  0.00    +0.044 C 
ATOM      9  C   UNL     1       0.002  -0.004   0.002  0.00  0.00    -0.047 A 
ATOM     10  C   UNL     1       0.006  -0.688  -1.200  0.00  0.00    +0.005 A 
ATOM     11  C   UNL     1       0.024  -2.070  -1.211  0.00  0.00    +0.024 A 
ATOM     12  C   UNL     1       0.039  -2.772  -0.020  0.00  0.00    +0.083 A 
ATOM     13  C   UNL     1       0.036  -2.087   1.187  0.00  0.00    +0.140 A 
ATOM     14  C   UNL     1       0.023  -0.700   1.195  0.00  0.00    +0.050 A 
ATOM     15 CL   UNL     1       0.061  -4.508  -0.035  0.00  0.00    -0.080 Cl
ENDBRANCH   7  13
ENDBRANCH   6   7
ENDBRANCH   1   6
BRANCH   4  16
ATOM     16  C   UNL     1      -1.534  -4.964   7.330  0.00  0.00    -0.006 C 
BRANCH  16  17
ATOM     17  N   UNL     1      -1.847  -4.114   8.487  0.00  0.00    +0.387 N 
ATOM     18  H   UNL     1      -0.993  -3.872   8.968  0.00  0.00    -0.085 HD
ATOM     19  H   UNL     1      -2.305  -3.272   8.172  0.00  0.00    -0.085 HD
BRANCH  17  20
ATOM     20  C   UNL     1      -2.735  -4.842   9.403  0.00  0.00    -0.076 C 
ATOM     21  C   UNL     1      -2.039  -6.119   9.881  0.00  0.00    -0.011 C 
ATOM     22  C   UNL     1      -3.061  -3.958  10.608  0.00  0.00    -0.011 C 
ATOM     23  C   UNL     1      -4.029  -5.209   8.674  0.00  0.00    -0.011 C 
ENDBRANCH  17  20
ENDBRANCH  16  17
ENDBRANCH   4  16
TORSDOF 6
