REMARK  Name = ZINC54918368
REMARK  7 active torsions:
REMARK  status: ('A' for Active; 'I' for Inactive)
REMARK    1  A    between atoms: C_1  and  N_2
REMARK    2  A    between atoms: N_4  and  N_16
REMARK    3  A    between atoms: C_5  and  C_8
REMARK    4  A    between atoms: C_11  and  O_15
REMARK    5  A    between atoms: C_12  and  O_14
REMARK    6  A    between atoms: C_17  and  C_18
REMARK    7  A    between atoms: C_21  and  N_23
REMARK                            x       y       z     vdW  Elec       q    Type
REMARK                         _______ _______ _______ _____ _____    ______ ____
ROOT
ATOM      1  C   UNL     1       0.239   1.212   0.076  0.00  0.00    +0.127 C 
ATOM      2  N   UNL     1       0.113  -0.247   0.069  0.00  0.00    -0.326 N 
ATOM      3  C   UNL     1      -1.098  -0.814   0.044  0.00  0.00    +0.160 A 
ATOM      4  N   UNL     1      -1.435  -2.155   0.040  0.00  0.00    -0.211 N 
ATOM      5  C   UNL     1      -2.705  -2.511   0.013  0.00  0.00    +0.082 A 
ATOM      6  C   UNL     1      -3.690  -1.528  -0.010  0.00  0.00    +0.077 A 
ATOM      7  S   UNL     1      -2.707  -0.036   0.015  0.00  0.00    -0.060 S 
ATOM      8  H   UNL     1       0.908  -0.803   0.083  0.00  0.00    +0.148 HD
ENDROOT
BRANCH   5   9
ATOM      9  C   UNL     1      -3.079  -3.943   0.007  0.00  0.00    +0.005 A 
ATOM     10  C   UNL     1      -4.320  -4.343   0.506  0.00  0.00    +0.014 A 
ATOM     11  C   UNL     1      -4.668  -5.678   0.500  0.00  0.00    +0.050 A 
ATOM     12  C   UNL     1      -3.786  -6.625  -0.000  0.00  0.00    +0.158 A 
ATOM     13  C   UNL     1      -2.546  -6.232  -0.499  0.00  0.00    +0.159 A 
ATOM     14  C   UNL     1      -2.195  -4.895  -0.502  0.00  0.00    +0.059 A 
BRANCH  13  15
ATOM     15  O   UNL     1      -1.684  -7.163  -0.989  0.00  0.00    -0.503 OA
ATOM     16  H   UNL     1      -1.788  -7.337  -1.934  0.00  0.00    +0.292 HD
ENDBRANCH  13  15
BRANCH  12  17
ATOM     17  O   UNL     1      -4.133  -7.940  -0.004  0.00  0.00    -0.503 OA
ATOM     18  H   UNL     1      -4.587  -8.225  -0.808  0.00  0.00    +0.292 HD
ENDBRANCH  12  17
ENDBRANCH   5   9
BRANCH   4  19
ATOM     19  N   UNL     1      -0.511  -3.055   0.061  0.00  0.00    -0.169 NA
ATOM     20  C   UNL     1       0.021  -3.437   1.221  0.00  0.00    +0.179 C 
BRANCH  20  21
ATOM     21  C   UNL     1       1.018  -4.408   1.244  0.00  0.00    +0.150 A 
ATOM     22  C   UNL     1       1.663  -4.909   2.391  0.00  0.00    +0.053 A 
ATOM     23  C   UNL     1       2.578  -5.852   1.947  0.00  0.00    +0.076 A 
ATOM     24  C   UNL     1       2.475  -5.906   0.574  0.00  0.00    +0.280 A 
ATOM     25  O   UNL     1       1.537  -5.043   0.170  0.00  0.00    -0.433 OA
BRANCH  24  26
ATOM     26  N   UNL     1       3.273  -6.783  -0.313  0.00  0.00    +0.093 N 
ATOM     27  O   UNL     1       4.169  -7.600   0.202  0.00  0.00    -0.123 OA
ATOM     28  O   UNL     1       3.087  -6.747  -1.616  0.00  0.00    -0.123 OA
ENDBRANCH  24  26
ENDBRANCH  20  21
ENDBRANCH   4  19
TORSDOF 6
