REMARK  Name = ZINC47937498
REMARK  12 active torsions:
REMARK  status: ('A' for Active; 'I' for Inactive)
REMARK    1  A    between atoms: C_1  and  C_2
REMARK    2  A    between atoms: C_2  and  C_3
REMARK    3  A    between atoms: C_6  and  C_9
REMARK    4  A    between atoms: C_9  and  C_10
REMARK    5  A    between atoms: C_9  and  N_25
REMARK    6  A    between atoms: C_10  and  N_11
REMARK    7  A    between atoms: N_14  and  C_15
REMARK    8  A    between atoms: C_15  and  C_16
REMARK    9  A    between atoms: C_16  and  N_17
REMARK   10  A    between atoms: C_18  and  C_20
REMARK   11  A    between atoms: N_25  and  C_26
REMARK   12  A    between atoms: N_25  and  C_27
REMARK                            x       y       z     vdW  Elec       q    Type
REMARK                         _______ _______ _______ _____ _____    ______ ____
ROOT
ATOM      1  N   UNL     1      -4.705  -4.072   1.088  0.00  0.00    -0.301 N 
ATOM      2  C   UNL     1      -4.524  -5.406   1.167  0.00  0.00    +0.300 C 
ATOM      3  O   UNL     1      -5.005  -6.136   0.322  0.00  0.00    -0.253 OA
ATOM      4  N   UNL     1      -3.811  -5.930   2.184  0.00  0.00    -0.298 N 
ATOM      5  H   UNL     1      -4.321  -3.490   1.762  0.00  0.00    +0.150 HD
ATOM      6  H   UNL     1      -3.428  -5.348   2.858  0.00  0.00    +0.150 HD
ENDROOT
BRANCH   1   7
ATOM      7  C   UNL     1      -5.480  -3.502  -0.017  0.00  0.00    +0.095 C 
BRANCH   7   8
ATOM      8  C   UNL     1      -5.422  -1.975   0.054  0.00  0.00    -0.021 C 
BRANCH   8  12
ATOM      9  C   UNL     1      -1.405  -0.674  -0.598  0.00  0.00    -0.048 A 
ATOM     10  C   UNL     1      -1.908  -0.748   0.688  0.00  0.00    +0.004 A 
ATOM     11  C   UNL     1      -3.208  -1.168   0.899  0.00  0.00    +0.002 A 
ATOM     12  C   UNL     1      -4.005  -1.516  -0.176  0.00  0.00    -0.059 A 
ATOM     13  C   UNL     1      -3.502  -1.441  -1.462  0.00  0.00    +0.002 A 
ATOM     14  C   UNL     1      -2.204  -1.016  -1.673  0.00  0.00    +0.004 A 
BRANCH   9  16
ATOM     15  C   UNL     1       0.034   1.305  -1.000  0.00  0.00    +0.009 C 
ATOM     16  C   UNL     1       0.011  -0.215  -0.827  0.00  0.00    +0.032 C 
ENDBRANCH   9  16
ENDBRANCH   8  12
BRANCH   8  17
ATOM     17  N   UNL     1      -6.296  -1.404  -0.979  0.00  0.00    +0.382 N 
ATOM     18  C   UNL     1      -7.679  -1.837  -0.745  0.00  0.00    -0.096 C 
ATOM     19  C   UNL     1      -6.226   0.063  -0.923  0.00  0.00    -0.096 C 
ATOM     20  H   UNL     1      -5.993  -1.720  -1.889  0.00  0.00    -0.082 HD
ENDBRANCH   8  17
ENDBRANCH   7   8
ENDBRANCH   1   7
BRANCH   4  21
ATOM     21  C   UNL     1      -3.615  -7.379   2.270  0.00  0.00    +0.124 C 
BRANCH  21  22
ATOM     22  C   UNL     1      -2.777  -7.708   3.507  0.00  0.00    +0.123 C 
BRANCH  22  23
ATOM     23  N   UNL     1      -2.581  -9.157   3.594  0.00  0.00    -0.307 N 
ATOM     24  C   UNL     1      -1.868  -9.681   4.610  0.00  0.00    +0.279 C 
ATOM     25  O   UNL     1      -1.387  -8.951   5.456  0.00  0.00    -0.267 OA
ATOM     26  H   UNL     1      -2.965  -9.739   2.919  0.00  0.00    +0.149 HD
BRANCH  24  27
ATOM     27  C   UNL     1      -1.672 -11.132   4.696  0.00  0.00    +0.189 A 
ATOM     28  C   UNL     1      -0.979 -11.791   5.671  0.00  0.00    +0.054 A 
ATOM     29  C   UNL     1      -1.048 -13.159   5.361  0.00  0.00    +0.042 A 
ATOM     30  C   UNL     1      -1.771 -13.272   4.224  0.00  0.00    +0.196 A 
ATOM     31  O   UNL     1      -2.149 -12.050   3.830  0.00  0.00    -0.458 OA
ENDBRANCH  24  27
ENDBRANCH  22  23
ENDBRANCH  21  22
ENDBRANCH   4  21
TORSDOF 9
