REMARK  Name = ZINC63619676
REMARK  5 active torsions:
REMARK  status: ('A' for Active; 'I' for Inactive)
REMARK    1  A    between atoms: C_6  and  C_10
REMARK    2  A    between atoms: C_10  and  S_11
REMARK    3  A    between atoms: S_11  and  C_12
REMARK    4  A    between atoms: C_16  and  C_20
REMARK    5  A    between atoms: N_18  and  N_19
REMARK                            x       y       z     vdW  Elec       q    Type
REMARK                         _______ _______ _______ _____ _____    ______ ____
ROOT
ATOM      1  S   UNL     1       3.167  -1.611  -2.464  0.00  0.00    -0.112 S 
ENDROOT
BRANCH   1   2
ATOM      2  C   UNL     1       3.507  -2.458  -4.031  0.00  0.00    +0.272 C 
ATOM      3  N   UNL     1       2.822  -3.757  -4.069  0.00  0.00    -0.159 NA
ATOM      4  N   UNL     1       3.608  -4.684  -3.851  0.00  0.00    -0.161 NA
ATOM      5  C   UNL     1       4.970  -4.182  -3.626  0.00  0.00    +0.280 C 
ATOM      6  N   UNL     1       4.951  -2.786  -4.139  0.00  0.00    -0.179 NA
BRANCH   5   7
ATOM      7  C   UNL     1       5.968  -5.011  -4.392  0.00  0.00    +0.147 A 
ATOM      8  C   UNL     1       7.054  -5.613  -3.874  0.00  0.00    +0.048 A 
ATOM      9  C   UNL     1       7.702  -6.277  -4.941  0.00  0.00    +0.041 A 
ATOM     10  C   UNL     1       6.973  -6.042  -6.047  0.00  0.00    +0.195 A 
ATOM     11  O   UNL     1       5.921  -5.280  -5.707  0.00  0.00    -0.464 OA
ENDBRANCH   5   7
BRANCH   6  12
ATOM     12  N   UNL     1       5.396  -2.732  -5.522  0.00  0.00    -0.263 NA
ATOM     13  H   UNL     1       5.159  -1.847  -5.944  0.00  0.00    +0.137 HD
ATOM     14  H   UNL     1       6.386  -2.913  -5.591  0.00  0.00    +0.137 HD
ENDBRANCH   6  12
ENDBRANCH   1   2
BRANCH   1  15
ATOM     15  C   UNL     1       3.725  -2.785  -1.199  0.00  0.00    +0.119 C 
BRANCH  15  21
ATOM     16  C   UNL     1       1.124   1.668   1.001  0.00  0.00    +0.002 A 
ATOM     17  C   UNL     1       2.421   2.212   0.985  0.00  0.00    +0.002 A 
ATOM     18  C   UNL     1       3.521   1.461   0.775  0.00  0.00    +0.027 A 
ATOM     19  C   UNL     1       3.381   0.015   0.553  0.00  0.00    +0.060 A 
ATOM     20  N   UNL     1       4.244  -0.933   0.331  0.00  0.00    -0.363 N 
ATOM     21  C   UNL     1       3.493  -2.187   0.190  0.00  0.00    +0.184 C 
ATOM     22  N   UNL     1       2.076  -1.843   0.360  0.00  0.00    -0.363 N 
ATOM     23  C   UNL     1       2.009  -0.560   0.572  0.00  0.00    +0.060 A 
ATOM     24  C   UNL     1       0.884   0.355   0.809  0.00  0.00    +0.027 A 
ATOM     25  H   UNL     1       5.207  -0.831   0.270  0.00  0.00    +0.162 HD
ATOM     26  H   UNL     1       1.327  -2.458   0.321  0.00  0.00    +0.162 HD
ENDBRANCH  15  21
ENDBRANCH   1  15
TORSDOF 5
