REMARK  Name = ZINC59782623
REMARK  8 active torsions:
REMARK  status: ('A' for Active; 'I' for Inactive)
REMARK    1  A    between atoms: C_1  and  O_2
REMARK    2  A    between atoms: O_2  and  C_3
REMARK    3  A    between atoms: C_8  and  C_9
REMARK    4  A    between atoms: C_9  and  C_11
REMARK    5  A    between atoms: C_9  and  N_29
REMARK    6  A    between atoms: C_11  and  N_12
REMARK    7  A    between atoms: C_13  and  C_15
REMARK    8  A    between atoms: C_15  and  N_16
REMARK                            x       y       z     vdW  Elec       q    Type
REMARK                         _______ _______ _______ _____ _____    ______ ____
ROOT
ATOM      1  C   UNL     1       0.806  -2.911   1.293  0.00  0.00    +0.093 C 
ENDROOT
BRANCH   1   2
ATOM      2  N   UNL     1       1.945  -3.821   1.151  0.00  0.00    -0.315 N 
ATOM      3  C   UNL     1       2.700  -4.129   2.224  0.00  0.00    +0.231 C 
ATOM      4  O   UNL     1       2.437  -3.653   3.308  0.00  0.00    -0.274 OA
ATOM      5  H   UNL     1       2.155  -4.203   0.284  0.00  0.00    +0.149 HD
BRANCH   3   6
ATOM      6  C   UNL     1       3.871  -5.066   2.077  0.00  0.00    +0.212 C 
BRANCH   6   7
ATOM      7  N   UNL     1       4.524  -5.239   3.377  0.00  0.00    -0.233 N 
ATOM      8  C   UNL     1       5.532  -4.439   3.818  0.00  0.00    +0.226 C 
ATOM      9  O   UNL     1       5.886  -3.381   3.342  0.00  0.00    -0.275 OA
ATOM     10  C   UNL     1       6.116  -5.129   5.010  0.00  0.00    +0.087 C 
ATOM     11  C   UNL     1       6.668  -4.303   6.151  0.00  0.00    +0.013 C 
ATOM     12  C   UNL     1       7.145  -5.309   7.218  0.00  0.00    +0.001 C 
ATOM     13  C   UNL     1       6.019  -6.231   7.673  0.00  0.00    +0.001 C 
ATOM     14  C   UNL     1       5.326  -6.928   6.487  0.00  0.00    +0.013 C 
ATOM     15  C   UNL     1       4.847  -5.853   5.551  0.00  0.00    +0.087 C 
ATOM     16  C   UNL     1       4.178  -6.211   4.264  0.00  0.00    +0.226 C 
ATOM     17  O   UNL     1       3.472  -7.173   4.052  0.00  0.00    -0.275 OA
ENDBRANCH   6   7
ENDBRANCH   3   6
ENDBRANCH   1   2
BRANCH   1  18
ATOM     18  C   UNL     1       0.047  -2.832  -0.033  0.00  0.00    -0.017 C 
BRANCH  18  19
ATOM     19  N   UNL     1      -0.322  -4.186  -0.467  0.00  0.00    +0.385 N 
ATOM     20  C   UNL     1      -1.153  -4.102  -1.674  0.00  0.00    -0.078 C 
ATOM     21  C   UNL     1      -1.473  -5.511  -2.177  0.00  0.00    -0.019 C 
ATOM     22  C   UNL     1      -2.227  -6.278  -1.087  0.00  0.00    -0.004 C 
ATOM     23  C   UNL     1      -1.382  -6.295   0.189  0.00  0.00    -0.019 C 
ATOM     24  C   UNL     1      -1.066  -4.857   0.605  0.00  0.00    -0.078 C 
ATOM     25  H   UNL     1       0.515  -4.711  -0.674  0.00  0.00    -0.081 HD
ENDBRANCH  18  19
BRANCH  18  31
ATOM     26  C   UNL     1       1.063  -0.811  -1.114  0.00  0.00    +0.122 A 
ATOM     27  C   UNL     1       1.876  -0.224  -2.073  0.00  0.00    +0.046 A 
ATOM     28  C   UNL     1       2.541  -1.014  -2.991  0.00  0.00    +0.004 A 
ATOM     29  C   UNL     1       2.396  -2.389  -2.955  0.00  0.00    +0.000 A 
ATOM     30  C   UNL     1       1.587  -2.976  -2.001  0.00  0.00    +0.005 A 
ATOM     31  C   UNL     1       0.924  -2.191  -1.077  0.00  0.00    -0.018 A 
BRANCH  26  33
ATOM     32  C   UNL     1       0.599   1.377  -0.308  0.00  0.00    +0.277 C 
ATOM     33  O   UNL     1       0.409  -0.036  -0.210  0.00  0.00    -0.495 OA
ENDBRANCH  26  33
ENDBRANCH  18  31
ENDBRANCH   1  18
TORSDOF 7
