REMARK  Name = ZINC49192966
REMARK  11 active torsions:
REMARK  status: ('A' for Active; 'I' for Inactive)
REMARK    1  A    between atoms: C_1  and  C_2
REMARK    2  A    between atoms: C_2  and  C_3
REMARK    3  A    between atoms: C_2  and  C_4
REMARK    4  A    between atoms: C_4  and  C_6
REMARK    5  A    between atoms: C_4  and  N_10
REMARK    6  A    between atoms: C_6  and  N_7
REMARK    7  A    between atoms: N_7  and  C_8
REMARK    8  A    between atoms: N_7  and  C_9
REMARK    9  A    between atoms: N_10  and  S_11
REMARK   10  A    between atoms: S_11  and  C_14
REMARK   11  A    between atoms: C_17  and  N_21
REMARK                            x       y       z     vdW  Elec       q    Type
REMARK                         _______ _______ _______ _____ _____    ______ ____
ROOT
ATOM      1  S   UNL     1      -2.211  -2.594   1.702  0.00  0.00    +0.061 S 
ATOM      2  O   UNL     1      -2.432  -3.991   1.574  0.00  0.00    -0.153 OA
ATOM      3  O   UNL     1      -1.251  -2.053   2.599  0.00  0.00    -0.153 OA
ENDROOT
BRANCH   1   4
ATOM      4  C   UNL     1      -3.762  -1.876   2.131  0.00  0.00    +0.142 A 
ATOM      5  C   UNL     1      -3.801  -0.658   2.787  0.00  0.00    +0.070 A 
ATOM      6  C   UNL     1      -5.017  -0.092   3.125  0.00  0.00    +0.044 A 
ATOM      7  C   UNL     1      -6.199  -0.747   2.804  0.00  0.00    +0.027 A 
ATOM      8  C   UNL     1      -6.157  -1.969   2.145  0.00  0.00    +0.044 A 
ATOM      9  C   UNL     1      -4.939  -2.528   1.805  0.00  0.00    +0.070 A 
ATOM     10 CL   UNL     1      -4.885  -4.051   0.975  0.00  0.00    -0.081 Cl
ATOM     11 CL   UNL     1      -2.323   0.160   3.187  0.00  0.00    -0.081 Cl
BRANCH   7  12
ATOM     12  N   UNL     1      -7.428  -0.178   3.144  0.00  0.00    -0.358 N 
ATOM     13  H   UNL     1      -7.457   0.675   3.605  0.00  0.00    +0.142 HD
ATOM     14  H   UNL     1      -8.254  -0.636   2.920  0.00  0.00    +0.142 HD
ENDBRANCH   7  12
ENDBRANCH   1   4
BRANCH   1  15
ATOM     15  N   UNL     1      -1.815  -2.038   0.193  0.00  0.00    -0.188 NA
ATOM     16  H   UNL     1      -1.768  -2.654  -0.554  0.00  0.00    +0.148 HD
BRANCH  15  17
ATOM     17  C   UNL     1      -1.534  -0.615  -0.013  0.00  0.00    +0.063 C 
BRANCH  17  19
ATOM     18  C   UNL     1       0.273   1.105  -0.159  0.00  0.00    +0.009 C 
ATOM     19  C   UNL     1      -0.020  -0.392  -0.039  0.00  0.00    -0.000 C 
ATOM     20  C   UNL     1       0.597  -0.931   1.252  0.00  0.00    +0.009 C 
ENDBRANCH  17  19
BRANCH  17  21
ATOM     21  C   UNL     1      -2.139  -0.162  -1.343  0.00  0.00    -0.059 C 
BRANCH  21  22
ATOM     22  N   UNL     1      -3.572  -0.485  -1.364  0.00  0.00    +0.377 N 
ATOM     23  C   UNL     1      -4.266   0.299  -0.334  0.00  0.00    -0.097 C 
ATOM     24  C   UNL     1      -4.128  -0.161  -2.684  0.00  0.00    -0.097 C 
ATOM     25  H   UNL     1      -3.698  -1.469  -1.179  0.00  0.00    -0.083 HD
ENDBRANCH  21  22
ENDBRANCH  17  21
ENDBRANCH  15  17
ENDBRANCH   1  15
TORSDOF 7
