REMARK  Name = ZINC21987284
REMARK  5 active torsions:
REMARK  status: ('A' for Active; 'I' for Inactive)
REMARK    1  A    between atoms: C_1  and  C_2
REMARK    2  A    between atoms: C_2  and  O_3
REMARK    3  A    between atoms: O_3  and  C_4
REMARK    4  A    between atoms: C_4  and  C_6
REMARK    5  A    between atoms: C_6  and  N_21
REMARK                            x       y       z     vdW  Elec       q    Type
REMARK                         _______ _______ _______ _____ _____    ______ ____
ROOT
ATOM      1  C   UNL     1       0.002  -0.004   0.002  0.00  0.00    +0.154 C 
ATOM      2  C   UNL     1       0.819  -0.475  -1.208  0.00  0.00    +0.113 C 
ATOM      3  S   UNL     1      -0.416  -1.482  -2.106  0.00  0.00    -0.118 S 
ATOM      4  C   UNL     1      -1.810  -1.293  -1.018  0.00  0.00    +0.064 C 
ATOM      5  C   UNL     1      -1.421  -0.504   0.013  0.00  0.00    +0.048 C 
ATOM      6  C   UNL     1      -2.381  -0.200   1.037  0.00  0.00    +0.193 C 
ATOM      7  O   UNL     1      -2.043   0.507   1.968  0.00  0.00    -0.287 OA
ATOM      8  C   UNL     1      -3.760  -0.716   0.998  0.00  0.00    +0.033 A 
ATOM      9  C   UNL     1      -4.668  -0.405   2.003  0.00  0.00    +0.012 A 
ATOM     10  C   UNL     1      -5.961  -0.901   1.943  0.00  0.00    +0.001 A 
ATOM     11  C   UNL     1      -6.359  -1.705   0.892  0.00  0.00    +0.001 A 
ATOM     12  C   UNL     1      -5.466  -2.026  -0.119  0.00  0.00    +0.012 A 
ATOM     13  C   UNL     1      -4.168  -1.535  -0.070  0.00  0.00    +0.034 A 
ATOM     14  C   UNL     1      -3.182  -1.848  -1.123  0.00  0.00    +0.200 C 
ATOM     15  O   UNL     1      -3.489  -2.551  -2.064  0.00  0.00    -0.286 OA
ENDROOT
BRANCH   1  16
ATOM     16  N   UNL     1      -0.018   1.465   0.010  0.00  0.00    -0.311 NA
ATOM     17  H   UNL     1      -0.516   1.830  -0.900  0.00  0.00    +0.120 HD
ATOM     18  H   UNL     1      -0.566   1.819   0.895  0.00  0.00    +0.120 HD
ENDBRANCH   1  16
BRANCH   1  19
ATOM     19  C   UNL     1       0.689  -0.480   1.256  0.00  0.00    +0.333 C 
ATOM     20  O   UNL     1       0.326  -1.500   1.794  0.00  0.00    -0.248 OA
BRANCH  19  21
ATOM     21  O   UNL     1       1.703   0.228   1.776  0.00  0.00    -0.463 OA
BRANCH  21  23
ATOM     22  C   UNL     1       3.446   0.644   3.426  0.00  0.00    +0.048 C 
ATOM     23  C   UNL     1       2.317  -0.290   2.986  0.00  0.00    +0.229 C 
ENDBRANCH  21  23
ENDBRANCH  19  21
ENDBRANCH   1  19
TORSDOF 4
