REMARK  Name = ZINC62012050
REMARK  8 active torsions:
REMARK  status: ('A' for Active; 'I' for Inactive)
REMARK    1  A    between atoms: C_1  and  C_2
REMARK    2  A    between atoms: C_3  and  C_22
REMARK    3  A    between atoms: C_7  and  C_8
REMARK    4  A    between atoms: C_8  and  N_9
REMARK    5  A    between atoms: N_10  and  C_11
REMARK    6  A    between atoms: N_10  and  C_12
REMARK    7  A    between atoms: C_12  and  C_14
REMARK    8  A    between atoms: C_12  and  C_15
REMARK                            x       y       z     vdW  Elec       q    Type
REMARK                         _______ _______ _______ _____ _____    ______ ____
ROOT
ATOM      1  C   UNL     1      -0.298  -1.465  -2.787  0.00  0.00    +0.046 C 
ATOM      2  C   UNL     1      -0.541   0.006  -2.565  0.00  0.00    -0.022 A 
ATOM      3  C   UNL     1       0.518   0.891  -2.422  0.00  0.00    +0.035 A 
ATOM      4  N   UNL     1       0.284   2.174  -2.229  0.00  0.00    -0.280 N 
ATOM      5  N   UNL     1      -0.906   2.651  -2.166  0.00  0.00    -0.158 NA
ATOM      6  C   UNL     1      -1.979   1.885  -2.291  0.00  0.00    +0.146 A 
ATOM      7  C   UNL     1      -1.828   0.515  -2.504  0.00  0.00    +0.012 A 
ATOM      8  N   UNL     1      -3.250   2.445  -2.216  0.00  0.00    -0.310 N 
ATOM      9  C   UNL     1      -3.989   2.417  -0.952  0.00  0.00    +0.131 C 
ATOM     10  C   UNL     1       1.937   0.386  -2.487  0.00  0.00    +0.065 C 
ATOM     11  H   UNL     1       1.037   2.777  -2.130  0.00  0.00    +0.189 HD
ENDROOT
BRANCH   8  12
ATOM     12  C   UNL     1      -3.849   3.062  -3.402  0.00  0.00    +0.102 C 
ATOM     13  C   UNL     1      -3.830   2.063  -4.561  0.00  0.00    +0.033 C 
BRANCH  12  14
ATOM     14  C   UNL     1      -3.062   4.289  -3.783  0.00  0.00    -0.027 A 
ATOM     15  C   UNL     1      -1.742   4.168  -4.178  0.00  0.00    +0.007 A 
ATOM     16  C   UNL     1      -1.019   5.293  -4.527  0.00  0.00    +0.020 A 
ATOM     17  C   UNL     1      -1.616   6.540  -4.481  0.00  0.00    +0.041 A 
ATOM     18  C   UNL     1      -2.936   6.660  -4.085  0.00  0.00    +0.020 A 
ATOM     19  C   UNL     1      -3.660   5.534  -3.742  0.00  0.00    +0.007 A 
ATOM     20 CL   UNL     1      -0.708   7.954  -4.919  0.00  0.00    -0.084 Cl
ENDBRANCH  12  14
ENDBRANCH   8  12
BRANCH   7  21
ATOM     21  C   UNL     1      -3.028  -0.385  -2.657  0.00  0.00    +0.117 C 
BRANCH  21  22
ATOM     22  N   UNL     1      -3.487  -0.819  -1.331  0.00  0.00    -0.326 NA
ATOM     23  H   UNL     1      -4.291  -1.424  -1.407  0.00  0.00    +0.119 HD
ATOM     24  H   UNL     1      -2.742  -1.270  -0.820  0.00  0.00    +0.119 HD
ENDBRANCH  21  22
ENDBRANCH   7  21
TORSDOF 4
