REMARK  Name = ZINC65457273
REMARK  7 active torsions:
REMARK  status: ('A' for Active; 'I' for Inactive)
REMARK    1  A    between atoms: C_1  and  N_2
REMARK    2  A    between atoms: N_2  and  C_3
REMARK    3  A    between atoms: N_2  and  C_4
REMARK    4  A    between atoms: C_4  and  C_5
REMARK    5  A    between atoms: N_7  and  C_10
REMARK    6  A    between atoms: C_10  and  C_11
REMARK    7  A    between atoms: N_16  and  C_18
REMARK                            x       y       z     vdW  Elec       q    Type
REMARK                         _______ _______ _______ _____ _____    ______ ____
ROOT
ATOM      1  C   UNL     1      -4.734  -0.238  -4.883  0.00  0.00    +0.025 C 
ATOM      2  C   UNL     1      -5.253   1.191  -4.704  0.00  0.00    +0.008 C 
ATOM      3  C   UNL     1      -6.775   1.198  -4.869  0.00  0.00    +0.016 C 
ATOM      4  C   UNL     1      -7.136   0.636  -6.246  0.00  0.00    +0.087 C 
ATOM      5  N   UNL     1      -6.619  -0.734  -6.367  0.00  0.00    -0.277 NA
ATOM      6  C   UNL     1      -5.155  -0.760  -6.258  0.00  0.00    +0.092 C 
ENDROOT
BRANCH   5   7
ATOM      7  C   UNL     1      -7.065  -1.355  -7.621  0.00  0.00    +0.214 C 
ATOM      8  C   UNL     1      -6.633  -2.799  -7.611  0.00  0.00    +0.055 C 
ATOM      9  C   UNL     1      -6.818  -3.877  -6.845  0.00  0.00    +0.145 C 
ATOM     10  N   UNL     1      -6.140  -4.908  -7.391  0.00  0.00    -0.155 NA
ATOM     11  N   UNL     1      -5.522  -4.567  -8.468  0.00  0.00    -0.131 NA
ATOM     12  C   UNL     1      -5.754  -3.246  -8.720  0.00  0.00    +0.164 C 
ATOM     13  N   UNL     1      -5.403  -2.386  -9.635  0.00  0.00    -0.311 N 
ATOM     14  C   UNL     1      -5.793  -1.094  -9.639  0.00  0.00    +0.189 C 
ATOM     15  N   UNL     1      -6.555  -0.546  -8.745  0.00  0.00    -0.230 NA
ATOM     16  N   UNL     1      -5.343  -0.295 -10.673  0.00  0.00    -0.329 N 
ATOM     17  H   UNL     1      -4.769  -0.669 -11.360  0.00  0.00    +0.145 HD
ATOM     18  H   UNL     1      -5.601   0.639 -10.712  0.00  0.00    +0.145 HD
ATOM     19  H   UNL     1      -4.828  -2.693 -10.354  0.00  0.00    +0.170 HD
ENDBRANCH   5   7
BRANCH   1  20
ATOM     20  C   UNL     1      -3.208  -0.245  -4.778  0.00  0.00    +0.150 C 
BRANCH  20  23
ATOM     21  C   UNL     1      -1.905   0.150  -1.456  0.00  0.00    +0.066 A 
ATOM     22  C   UNL     1      -2.010  -0.571  -2.597  0.00  0.00    +0.131 A 
ATOM     23  N   UNL     1      -2.809   0.142  -3.423  0.00  0.00    -0.251 N 
ATOM     24  N   UNL     1      -3.159   1.221  -2.813  0.00  0.00    -0.066 NA
ATOM     25  N   UNL     1      -2.642   1.253  -1.636  0.00  0.00    -0.136 NA
BRANCH  21  26
ATOM     26  C   UNL     1      -1.120  -0.219  -0.224  0.00  0.00    -0.020 C 
BRANCH  26  28
ATOM     27  C   UNL     1       0.048   1.877  -0.218  0.00  0.00    -0.096 C 
ATOM     28  N   UNL     1       0.203   0.417  -0.278  0.00  0.00    +0.380 N 
ATOM     29  C   UNL     1       1.012  -0.037   0.861  0.00  0.00    -0.096 C 
ATOM     30  H   UNL     1       0.663   0.163  -1.140  0.00  0.00    -0.082 HD
ENDBRANCH  26  28
ENDBRANCH  21  26
ENDBRANCH  20  23
ENDBRANCH   1  20
TORSDOF 5
