REMARK  Name = ZINC62247023
REMARK  5 active torsions:
REMARK  status: ('A' for Active; 'I' for Inactive)
REMARK    1  A    between atoms: C_1  and  C_2
REMARK    2  A    between atoms: C_5  and  N_9
REMARK    3  A    between atoms: C_10  and  C_16
REMARK    4  A    between atoms: C_11  and  C_14
REMARK    5  A    between atoms: C_14  and  N_15
REMARK                            x       y       z     vdW  Elec       q    Type
REMARK                         _______ _______ _______ _____ _____    ______ ____
ROOT
ATOM      1  N   UNL     1       0.232  -4.119   0.075  0.00  0.00    -0.216 N 
ATOM      2  C   UNL     1       0.829  -5.045   0.874  0.00  0.00    +0.069 A 
ATOM      3  C   UNL     1       0.463  -6.253   0.384  0.00  0.00    +0.069 A 
ATOM      4  N   UNL     1      -0.325  -6.014  -0.670  0.00  0.00    -0.136 NA
ATOM      5  N   UNL     1      -0.446  -4.743  -0.824  0.00  0.00    -0.060 NA
ENDROOT
BRANCH   1  10
ATOM      6  C   UNL     1       0.636   1.517   0.627  0.00  0.00    +0.045 C 
ATOM      7  C   UNL     1       0.529   0.021   0.481  0.00  0.00    -0.032 A 
ATOM      8  C   UNL     1      -0.695  -0.560   0.203  0.00  0.00    +0.007 A 
ATOM      9  C   UNL     1      -0.796  -1.930   0.068  0.00  0.00    +0.028 A 
ATOM     10  C   UNL     1       0.332  -2.727   0.211  0.00  0.00    +0.069 A 
ATOM     11  C   UNL     1       1.560  -2.143   0.490  0.00  0.00    +0.048 A 
ATOM     12  C   UNL     1       1.657  -0.769   0.619  0.00  0.00    +0.046 A 
ATOM     13 CL   UNL     1       3.193  -0.036   0.962  0.00  0.00    -0.083 Cl
ENDBRANCH   1  10
BRANCH   2  14
ATOM     14  C   UNL     1       1.716  -4.780   2.062  0.00  0.00    +0.040 C 
ATOM     15  C   UNL     1       3.135  -5.264   1.757  0.00  0.00    +0.010 C 
ATOM     16  C   UNL     1       4.037  -4.995   2.963  0.00  0.00    +0.001 C 
ATOM     17  C   UNL     1       3.494  -5.743   4.183  0.00  0.00    +0.000 C 
ATOM     18  C   UNL     1       2.075  -5.259   4.488  0.00  0.00    +0.001 C 
ATOM     19  C   UNL     1       1.174  -5.528   3.281  0.00  0.00    +0.010 C 
ENDBRANCH   2  14
BRANCH   3  20
ATOM     20  C   UNL     1       0.865  -7.603   0.921  0.00  0.00    -0.026 C 
BRANCH  20  21
ATOM     21  N   UNL     1      -0.194  -8.115   1.800  0.00  0.00    +0.382 N 
ATOM     22  H   UNL     1       0.048  -9.043   2.112  0.00  0.00    -0.090 HD
ATOM     23  H   UNL     1      -0.292  -7.506   2.599  0.00  0.00    -0.090 HD
ATOM     24  H   UNL     1      -1.066  -8.147   1.293  0.00  0.00    -0.090 HD
ENDBRANCH  20  21
ENDBRANCH   3  20
TORSDOF 4
