REMARK  Name = ZINC65216892
REMARK  6 active torsions:
REMARK  status: ('A' for Active; 'I' for Inactive)
REMARK    1  A    between atoms: C_1  and  C_2
REMARK    2  A    between atoms: C_4  and  C_14
REMARK    3  A    between atoms: C_11  and  C_13
REMARK    4  A    between atoms: C_14  and  N_15
REMARK    5  A    between atoms: C_16  and  C_18
REMARK    6  A    between atoms: C_18  and  C_19
REMARK                            x       y       z     vdW  Elec       q    Type
REMARK                         _______ _______ _______ _____ _____    ______ ____
ROOT
ATOM      1  N   UNL     1       0.565  -1.923  -3.243  0.00  0.00    -0.313 N 
ATOM      2  C   UNL     1      -0.062  -2.690  -4.157  0.00  0.00    +0.217 C 
ATOM      3  O   UNL     1      -1.253  -2.900  -4.058  0.00  0.00    -0.275 OA
ATOM      4  H   UNL     1       1.517  -1.755  -3.323  0.00  0.00    +0.149 HD
ENDROOT
BRANCH   1   5
ATOM      5  C   UNL     1      -0.191  -1.343  -2.131  0.00  0.00    +0.129 C 
BRANCH   5   8
ATOM      6  C   UNL     1      -0.019   1.526   0.010  0.00  0.00    +0.026 C 
ATOM      7  C   UNL     1       0.002  -0.004   0.002  0.00  0.00    +0.077 C 
ATOM      8  C   UNL     1       0.751  -0.523  -1.247  0.00  0.00    +0.129 C 
ATOM      9  N   UNL     1       1.833  -1.379  -0.707  0.00  0.00    -0.222 N 
ATOM     10  C   UNL     1       2.127  -0.713   0.602  0.00  0.00    +0.225 C 
ATOM     11  N   UNL     1       0.775  -0.516   1.168  0.00  0.00    -0.284 NA
ATOM     12  S   UNL     1       3.013  -2.078   1.442  0.00  0.00    -0.069 S 
ATOM     13  C   UNL     1       3.222  -3.134   0.015  0.00  0.00    +0.092 C 
ATOM     14  N   UNL     1       2.557  -2.534  -0.916  0.00  0.00    -0.180 NA
ATOM     15  C   UNL     1       3.996  -4.423  -0.081  0.00  0.00    +0.075 C 
ATOM     16  H   UNL     1       0.790   0.160   1.917  0.00  0.00    +0.125 HD
ENDBRANCH   5   8
ENDBRANCH   1   5
BRANCH   2  17
ATOM     17  C   UNL     1       0.716  -3.286  -5.302  0.00  0.00    +0.129 C 
BRANCH  17  18
ATOM     18  C   UNL     1      -0.212  -4.094  -6.172  0.00  0.00    -0.033 C 
ATOM     19  C   UNL     1      -0.840  -3.679  -7.296  0.00  0.00    -0.001 A 
ATOM     20  C   UNL     1      -0.848  -2.400  -8.016  0.00  0.00    +0.010 A 
ATOM     21  C   UNL     1      -1.593  -2.283  -9.139  0.00  0.00    +0.001 A 
ATOM     22  C   UNL     1      -2.356  -3.351  -9.631  0.00  0.00    +0.002 A 
ATOM     23  C   UNL     1      -2.399  -4.557  -9.025  0.00  0.00    +0.026 A 
ATOM     24  C   UNL     1      -1.654  -4.791  -7.837  0.00  0.00    +0.043 A 
ATOM     25  N   UNL     1      -1.534  -5.853  -7.077  0.00  0.00    -0.380 N 
ATOM     26  C   UNL     1      -0.624  -5.535  -5.970  0.00  0.00    +0.145 C 
ATOM     27  H   UNL     1      -1.970  -6.706  -7.224  0.00  0.00    +0.160 HD
ENDBRANCH  17  18
ENDBRANCH   2  17
TORSDOF 4
