REMARK  Name = ZINC63267807
REMARK  6 active torsions:
REMARK  status: ('A' for Active; 'I' for Inactive)
REMARK    1  A    between atoms: C_1  and  N_2
REMARK    2  A    between atoms: C_3  and  C_5
REMARK    3  A    between atoms: C_5  and  C_6
REMARK    4  A    between atoms: C_11  and  N_12
REMARK    5  A    between atoms: N_15  and  C_16
REMARK    6  A    between atoms: C_16  and  C_20
REMARK                            x       y       z     vdW  Elec       q    Type
REMARK                         _______ _______ _______ _____ _____    ______ ____
ROOT
ATOM      1  N   UNL     1      -2.631  -2.514  -2.395  0.00  0.00    -0.269 N 
ATOM      2  C   UNL     1      -3.275  -2.745  -3.557  0.00  0.00    +0.305 C 
ATOM      3  O   UNL     1      -4.411  -3.176  -3.547  0.00  0.00    -0.252 OA
ATOM      4  N   UNL     1      -2.658  -2.497  -4.729  0.00  0.00    -0.290 N 
ATOM      5  H   UNL     1      -1.749  -2.111  -2.401  0.00  0.00    +0.156 HD
ATOM      6  H   UNL     1      -1.727  -2.225  -4.739  0.00  0.00    +0.151 HD
ENDROOT
BRANCH   1  12
ATOM      7  C   UNL     1      -2.462  -3.320  -0.124  0.00  0.00    -0.017 A 
ATOM      8  C   UNL     1      -3.061  -3.652   1.075  0.00  0.00    +0.006 A 
ATOM      9  C   UNL     1      -4.430  -3.531   1.223  0.00  0.00    +0.000 A 
ATOM     10  C   UNL     1      -5.205  -3.077   0.171  0.00  0.00    +0.002 A 
ATOM     11  C   UNL     1      -4.612  -2.743  -1.031  0.00  0.00    +0.023 A 
ATOM     12  C   UNL     1      -3.236  -2.858  -1.180  0.00  0.00    +0.038 A 
BRANCH   7  13
ATOM     13  C   UNL     1      -0.969  -3.452  -0.284  0.00  0.00    +0.132 C 
BRANCH  13  16
ATOM     14  C   UNL     1       1.664  -0.717   0.204  0.00  0.00    +0.128 C 
ATOM     15  N   UNL     1       1.026  -2.006  -0.076  0.00  0.00    -0.318 N 
ATOM     16  C   UNL     1      -0.313  -2.127   0.005  0.00  0.00    +0.217 C 
ATOM     17  O   UNL     1      -0.991  -1.169   0.311  0.00  0.00    -0.275 OA
ATOM     18  H   UNL     1       1.569  -2.772  -0.321  0.00  0.00    +0.148 HD
ENDBRANCH  13  16
ENDBRANCH   7  13
ENDBRANCH   1  12
BRANCH   4  19
ATOM     19  C   UNL     1      -3.394  -2.638  -5.988  0.00  0.00    +0.061 C 
ATOM     20  C   UNL     1      -2.857  -1.745  -7.119  0.00  0.00    +0.031 C 
ATOM     21  C   UNL     1      -3.823  -0.660  -6.614  0.00  0.00    +0.005 C 
ATOM     22  C   UNL     1      -4.683  -1.801  -6.045  0.00  0.00    +0.031 C 
BRANCH  19  23
ATOM     23  C   UNL     1      -3.589  -4.076  -6.394  0.00  0.00    -0.024 A 
ATOM     24  C   UNL     1      -4.511  -4.398  -7.372  0.00  0.00    +0.008 A 
ATOM     25  C   UNL     1      -4.691  -5.717  -7.745  0.00  0.00    +0.038 A 
ATOM     26  C   UNL     1      -3.948  -6.715  -7.138  0.00  0.00    +0.123 A 
ATOM     27  C   UNL     1      -3.025  -6.391  -6.159  0.00  0.00    +0.038 A 
ATOM     28  C   UNL     1      -2.843  -5.071  -5.791  0.00  0.00    +0.008 A 
ATOM     29  F   UNL     1      -4.123  -8.004  -7.502  0.00  0.00    -0.205 F 
ENDBRANCH  19  23
ENDBRANCH   4  19
TORSDOF 5
