REMARK  Name = ZINC43138198
REMARK  13 active torsions:
REMARK  status: ('A' for Active; 'I' for Inactive)
REMARK    1  A    between atoms: C_1  and  C_2
REMARK    2  A    between atoms: C_6  and  O_9
REMARK    3  A    between atoms: C_7  and  C_8
REMARK    4  A    between atoms: O_9  and  C_10
REMARK    5  A    between atoms: C_10  and  C_12
REMARK    6  A    between atoms: C_10  and  C_13
REMARK    7  A    between atoms: N_15  and  N_16
REMARK    8  A    between atoms: N_19  and  C_20
REMARK    9  A    between atoms: C_20  and  C_21
REMARK   10  A    between atoms: C_21  and  C_23
REMARK   11  A    between atoms: C_21  and  N_28
REMARK   12  A    between atoms: N_28  and  C_29
REMARK   13  A    between atoms: N_28  and  C_30
REMARK                            x       y       z     vdW  Elec       q    Type
REMARK                         _______ _______ _______ _____ _____    ______ ____
ROOT
ATOM      1  N   UNL     1      -2.184  -6.745   4.782  0.00  0.00    -0.218 N 
ATOM      2  C   UNL     1      -2.236  -8.087   4.894  0.00  0.00    +0.316 C 
ATOM      3  O   UNL     1      -2.766  -8.597   5.862  0.00  0.00    -0.251 OA
ATOM      4  N   UNL     1      -1.700  -8.865   3.933  0.00  0.00    -0.299 N 
ATOM      5  H   UNL     1      -2.570  -6.186   5.474  0.00  0.00    +0.174 HD
ATOM      6  H   UNL     1      -1.277  -8.459   3.160  0.00  0.00    +0.150 HD
ENDROOT
BRANCH   1   9
ATOM      7  C   UNL     1      -1.521  -4.817   3.554  0.00  0.00    +0.270 C 
ATOM      8  O   UNL     1      -2.004  -4.117   4.419  0.00  0.00    -0.270 OA
ATOM      9  N   UNL     1      -1.573  -6.159   3.666  0.00  0.00    -0.230 N 
ATOM     10  H   UNL     1      -1.187  -6.718   2.974  0.00  0.00    +0.173 HD
BRANCH   7  11
ATOM     11  C   UNL     1      -0.864  -4.186   2.353  0.00  0.00    +0.257 C 
ATOM     12  C   UNL     1       0.602  -4.619   2.288  0.00  0.00    +0.062 C 
BRANCH  11  13
ATOM     13  O   UNL     1      -0.936  -2.763   2.464  0.00  0.00    -0.480 OA
BRANCH  13  19
ATOM     14  C   UNL     1      -0.996   1.559   0.196  0.00  0.00    +0.044 C 
ATOM     15  C   UNL     1      -0.880   0.057   0.165  0.00  0.00    -0.044 A 
ATOM     16  C   UNL     1      -0.690  -0.597  -1.038  0.00  0.00    +0.004 A 
ATOM     17  C   UNL     1      -0.583  -1.975  -1.070  0.00  0.00    +0.004 A 
ATOM     18  C   UNL     1      -0.665  -2.702   0.102  0.00  0.00    +0.046 A 
ATOM     19  C   UNL     1      -0.855  -2.049   1.310  0.00  0.00    +0.125 A 
ATOM     20  C   UNL     1      -0.956  -0.666   1.340  0.00  0.00    -0.006 A 
ATOM     21  C   UNL     1      -1.156   0.048   2.653  0.00  0.00    +0.048 C 
ENDBRANCH  13  19
ENDBRANCH  11  13
ENDBRANCH   7  11
ENDBRANCH   1   9
BRANCH   4  22
ATOM     22  C   UNL     1      -1.756 -10.324   4.055  0.00  0.00    +0.098 C 
BRANCH  22  23
ATOM     23  C   UNL     1      -0.968 -10.962   2.909  0.00  0.00    +0.016 C 
BRANCH  23  24
ATOM     24  C   UNL     1      -1.628 -10.627   1.597  0.00  0.00    +0.093 A 
ATOM     25  C   UNL     1      -2.449 -11.434   0.900  0.00  0.00    +0.043 A 
ATOM     26  C   UNL     1      -2.834 -10.723  -0.260  0.00  0.00    +0.041 A 
ATOM     27  C   UNL     1      -2.227  -9.524  -0.202  0.00  0.00    +0.195 A 
ATOM     28  O   UNL     1      -1.503  -9.469   0.927  0.00  0.00    -0.469 OA
ENDBRANCH  23  24
BRANCH  23  29
ATOM     29  N   UNL     1       0.407 -10.444   2.912  0.00  0.00    +0.384 N 
ATOM     30  C   UNL     1       1.066 -10.812   4.172  0.00  0.00    -0.096 C 
ATOM     31  C   UNL     1       1.150 -11.020   1.784  0.00  0.00    -0.096 C 
ATOM     32  H   UNL     1       0.387  -9.439   2.824  0.00  0.00    -0.082 HD
ENDBRANCH  23  29
ENDBRANCH  22  23
ENDBRANCH   4  22
TORSDOF 8
