REMARK  Name = ZINC49964216
REMARK  6 active torsions:
REMARK  status: ('A' for Active; 'I' for Inactive)
REMARK    1  A    between atoms: C_1  and  C_2
REMARK    2  A    between atoms: C_2  and  C_3
REMARK    3  A    between atoms: C_7  and  N_23
REMARK    4  A    between atoms: C_9  and  C_12
REMARK    5  A    between atoms: C_12  and  C_13
REMARK    6  A    between atoms: C_16  and  N_20
REMARK                            x       y       z     vdW  Elec       q    Type
REMARK                         _______ _______ _______ _____ _____    ______ ____
ROOT
ATOM      1  C   UNL     1      -1.276  -1.702  -0.423  0.00  0.00    -0.011 C 
ATOM      2  C   UNL     1      -1.960  -1.179  -1.687  0.00  0.00    +0.002 C 
ATOM      3  C   UNL     1      -3.466  -1.064  -1.441  0.00  0.00    -0.016 C 
ATOM      4  C   UNL     1      -4.032  -2.441  -1.087  0.00  0.00    -0.072 C 
ATOM      5  C   UNL     1      -3.347  -2.964   0.177  0.00  0.00    -0.021 C 
ATOM      6  C   UNL     1      -1.841  -3.079  -0.069  0.00  0.00    +0.005 C 
ENDROOT
BRANCH   4   7
ATOM      7  N   UNL     1      -5.477  -2.331  -0.851  0.00  0.00    +0.380 N 
ATOM      8  H   UNL     1      -5.929  -1.987  -1.685  0.00  0.00    -0.090 HD
ATOM      9  H   UNL     1      -5.850  -3.239  -0.618  0.00  0.00    -0.090 HD
ATOM     10  H   UNL     1      -5.646  -1.692  -0.089  0.00  0.00    -0.090 HD
ENDBRANCH   4   7
BRANCH   1  12
ATOM     11  C   UNL     1       0.817  -0.422  -0.900  0.00  0.00    +0.004 C 
ATOM     12  C   UNL     1       0.230  -1.817  -0.669  0.00  0.00    +0.000 C 
ENDBRANCH   1  12
BRANCH   5  13
ATOM     13  C   UNL     1      -3.602  -1.995   1.333  0.00  0.00    +0.038 C 
BRANCH  13  14
ATOM     14  C   UNL     1      -3.065  -2.586   2.611  0.00  0.00    -0.029 A 
ATOM     15  C   UNL     1      -3.620  -3.743   3.125  0.00  0.00    +0.007 A 
ATOM     16  C   UNL     1      -3.127  -4.284   4.298  0.00  0.00    +0.033 A 
ATOM     17  C   UNL     1      -2.080  -3.668   4.958  0.00  0.00    +0.128 A 
ATOM     18  C   UNL     1      -1.524  -2.512   4.444  0.00  0.00    +0.053 A 
ATOM     19  C   UNL     1      -2.012  -1.973   3.268  0.00  0.00    +0.046 A 
ATOM     20 CL   UNL     1      -1.310  -0.524   2.619  0.00  0.00    -0.083 Cl
BRANCH  17  21
ATOM     21  N   UNL     1      -1.554  -4.248   6.214  0.00  0.00    +0.056 N 
ATOM     22  O   UNL     1      -2.040  -5.260   6.663  0.00  0.00    -0.126 OA
ATOM     23  O   UNL     1      -0.637  -3.710   6.790  0.00  0.00    -0.126 OA
ENDBRANCH  17  21
ENDBRANCH  13  14
ENDBRANCH   5  13
TORSDOF 5
