REMARK  Name = ZINC43254451
REMARK  6 active torsions:
REMARK  status: ('A' for Active; 'I' for Inactive)
REMARK    1  A    between atoms: C_1  and  C_2
REMARK    2  A    between atoms: C_2  and  C_4
REMARK    3  A    between atoms: C_2  and  N_23
REMARK    4  A    between atoms: C_4  and  C_6
REMARK    5  A    between atoms: C_4  and  N_12
REMARK    6  A    between atoms: C_14  and  C_17
REMARK                            x       y       z     vdW  Elec       q    Type
REMARK                         _______ _______ _______ _____ _____    ______ ____
ROOT
ATOM      1  C   UNL     1       0.742  -0.511   1.242  0.00  0.00    +0.152 C 
ENDROOT
BRANCH   1   2
ATOM      2  C   UNL     1       0.762  -2.018   1.233  0.00  0.00    +0.016 A 
ATOM      3  C   UNL     1       1.827  -2.857   1.224  0.00  0.00    +0.015 A 
ATOM      4  C   UNL     1       1.605  -4.221   1.218  0.00  0.00    +0.028 A 
ATOM      5  C   UNL     1       0.328  -4.680   1.221  0.00  0.00    +0.078 A 
ATOM      6  S   UNL     1      -0.609  -3.160   1.241  0.00  0.00    -0.080 S 
ATOM      7 CL   UNL     1      -0.245  -6.318   1.214  0.00  0.00    -0.076 Cl
ENDBRANCH   1   2
BRANCH   1   8
ATOM      8  N   UNL     1       0.056  -0.038   2.447  0.00  0.00    -0.156 N 
ATOM      9  N   UNL     1       0.578   0.712   3.356  0.00  0.00    -0.130 NA
ATOM     10  C   UNL     1      -0.339   0.925   4.278  0.00  0.00    +0.205 A 
ATOM     11  N   UNL     1      -1.439   0.268   3.885  0.00  0.00    -0.108 NA
ATOM     12  N   UNL     1      -1.163  -0.303   2.762  0.00  0.00    -0.045 NA
BRANCH  10  13
ATOM     13  C   UNL     1      -0.183   1.734   5.513  0.00  0.00    +0.023 A 
ATOM     14  C   UNL     1       1.028   2.366   5.786  0.00  0.00    +0.012 A 
ATOM     15  C   UNL     1       1.167   3.118   6.936  0.00  0.00    +0.001 A 
ATOM     16  C   UNL     1       0.107   3.244   7.815  0.00  0.00    +0.000 A 
ATOM     17  C   UNL     1      -1.097   2.618   7.549  0.00  0.00    +0.001 A 
ATOM     18  C   UNL     1      -1.249   1.869   6.400  0.00  0.00    +0.012 A 
ENDBRANCH  10  13
ENDBRANCH   1   8
BRANCH   1  20
ATOM     19  C   UNL     1      -0.019   1.526   0.010  0.00  0.00    -0.012 C 
ATOM     20  C   UNL     1       0.002  -0.004   0.002  0.00  0.00    -0.047 C 
BRANCH  20  21
ATOM     21  N   UNL     1       0.690  -0.478  -1.207  0.00  0.00    +0.381 N 
ATOM     22  H   UNL     1       1.636  -0.129  -1.214  0.00  0.00    -0.090 HD
ATOM     23  H   UNL     1       0.703  -1.487  -1.212  0.00  0.00    -0.090 HD
ATOM     24  H   UNL     1       0.202  -0.144  -2.024  0.00  0.00    -0.090 HD
ENDBRANCH  20  21
ENDBRANCH   1  20
TORSDOF 5
