REMARK  Name = ZINC38506999
REMARK  13 active torsions:
REMARK  status: ('A' for Active; 'I' for Inactive)
REMARK    1  A    between atoms: C_1  and  C_2
REMARK    2  A    between atoms: C_4  and  C_10
REMARK    3  A    between atoms: N_5  and  C_7
REMARK    4  A    between atoms: C_7  and  C_8
REMARK    5  A    between atoms: C_7  and  C_9
REMARK    6  A    between atoms: N_12  and  C_13
REMARK    7  A    between atoms: C_14  and  C_26
REMARK    8  A    between atoms: C_18  and  C_24
REMARK    9  A    between atoms: C_18  and  C_25
REMARK   10  A    between atoms: C_20  and  C_22
REMARK   11  A    between atoms: C_20  and  C_23
REMARK   12  A    between atoms: C_26  and  O_28
REMARK   13  A    between atoms: O_28  and  C_29
REMARK                            x       y       z     vdW  Elec       q    Type
REMARK                         _______ _______ _______ _____ _____    ______ ____
ROOT
ATOM      1  C   UNL     1       0.304  -5.691  -1.193  0.00  0.00    +0.087 A 
ATOM      2  C   UNL     1       0.440  -6.957  -0.633  0.00  0.00    +0.091 A 
ATOM      3  C   UNL     1       0.557  -8.068  -1.551  0.00  0.00    -0.024 A 
ATOM      4  C   UNL     1       0.520  -7.726  -2.860  0.00  0.00    -0.016 A 
ATOM      5  S   UNL     1       0.325  -5.969  -2.849  0.00  0.00    -0.079 S 
ATOM      6  C   UNL     1       0.634  -8.656  -4.021  0.00  0.00    -0.041 C 
ATOM      7  N   UNL     1       0.576 -10.060  -3.616  0.00  0.00    +0.389 N 
ATOM      8  C   UNL     1       0.011 -10.340  -2.304  0.00  0.00    -0.069 C 
ATOM      9  C   UNL     1       0.704  -9.539  -1.194  0.00  0.00    +0.024 C 
ATOM     10  C   UNL     1      -1.492 -10.050  -2.278  0.00  0.00    -0.010 C 
ATOM     11  C   UNL     1       0.209 -11.837  -1.999  0.00  0.00    -0.010 C 
ATOM     12  C   UNL     1      -0.480  -8.350  -5.031  0.00  0.00    -0.005 C 
ATOM     13  C   UNL     1       1.986  -8.399  -4.715  0.00  0.00    -0.005 C 
ATOM     14  H   UNL     1       0.041 -10.577  -4.317  0.00  0.00    -0.084 HD
ATOM     15  H   UNL     1       1.521 -10.448  -3.652  0.00  0.00    -0.084 HD
ENDROOT
BRANCH   1  18
ATOM     16  C   UNL     1       0.054  -3.338  -1.239  0.00  0.00    +0.267 C 
ATOM     17  O   UNL     1      -0.042  -3.380  -2.451  0.00  0.00    -0.268 OA
ATOM     18  N   UNL     1       0.178  -4.480  -0.533  0.00  0.00    -0.274 N 
ATOM     19  H   UNL     1       0.180  -4.453   0.436  0.00  0.00    +0.156 HD
BRANCH  16  23
ATOM     20  C   UNL     1       0.003   0.292   2.301  0.00  0.00    +0.067 C 
ATOM     21  C   UNL     1       0.012  -0.447   0.988  0.00  0.00    +0.061 A 
ATOM     22  C   UNL     1       0.035  -1.834   0.825  0.00  0.00    +0.057 A 
ATOM     23  C   UNL     1       0.035  -2.042  -0.543  0.00  0.00    +0.124 A 
ATOM     24  N   UNL     1       0.013  -0.803  -1.118  0.00  0.00    -0.256 N 
ATOM     25  N   UNL     1      -0.004   0.097  -0.202  0.00  0.00    -0.176 NA
BRANCH  24  26
ATOM     26  C   UNL     1       0.006  -0.541  -2.560  0.00  0.00    +0.102 C 
ATOM     27  C   UNL     1      -1.191   0.345  -2.911  0.00  0.00    +0.032 C 
ATOM     28  C   UNL     1       1.301   0.170  -2.955  0.00  0.00    +0.032 C 
ENDBRANCH  24  26
ENDBRANCH  16  23
ENDBRANCH   1  18
BRANCH   2  29
ATOM     29  C   UNL     1       0.466  -7.141   0.819  0.00  0.00    +0.342 C 
ATOM     30  O   UNL     1      -0.571  -7.330   1.426  0.00  0.00    -0.245 OA
BRANCH  29  31
ATOM     31  O   UNL     1       1.639  -7.103   1.483  0.00  0.00    -0.464 OA
ATOM     32  C   UNL     1       1.589  -7.291   2.899  0.00  0.00    +0.280 C 
ENDBRANCH  29  31
ENDBRANCH   2  29
TORSDOF 5
