REMARK  Name = ZINC59491055
REMARK  7 active torsions:
REMARK  status: ('A' for Active; 'I' for Inactive)
REMARK    1  A    between atoms: C_1  and  C_2
REMARK    2  A    between atoms: C_2  and  C_4
REMARK    3  A    between atoms: C_7  and  N_10
REMARK    4  A    between atoms: C_14  and  S_18
REMARK    5  A    between atoms: S_18  and  C_19
REMARK    6  A    between atoms: N_20  and  N_21
REMARK    7  A    between atoms: C_22  and  C_24
REMARK                            x       y       z     vdW  Elec       q    Type
REMARK                         _______ _______ _______ _____ _____    ______ ____
ROOT
ATOM      1  N   UNL     1      -0.008  -2.796  -4.896  0.00  0.00    -0.209 N 
ATOM      2  C   UNL     1      -0.115  -2.182  -6.080  0.00  0.00    +0.228 C 
ATOM      3  O   UNL     1      -0.219  -0.985  -6.243  0.00  0.00    -0.275 OA
ATOM      4  C   UNL     1      -0.085  -3.217  -7.183  0.00  0.00    +0.120 C 
ATOM      5  C   UNL     1       0.060  -4.551  -6.423  0.00  0.00    +0.149 C 
ATOM      6  C   UNL     1       0.102  -4.129  -4.970  0.00  0.00    +0.240 C 
ATOM      7  O   UNL     1       0.214  -4.878  -4.024  0.00  0.00    -0.274 OA
ENDROOT
BRANCH   1  11
ATOM      8  C   UNL     1       0.002  -0.731  -1.275  0.00  0.00    +0.017 A 
ATOM      9  C   UNL     1       1.158  -1.388  -1.711  0.00  0.00    +0.013 A 
ATOM     10  C   UNL     1       1.150  -2.069  -2.907  0.00  0.00    +0.024 A 
ATOM     11  C   UNL     1      -0.005  -2.104  -3.682  0.00  0.00    +0.044 A 
ATOM     12  C   UNL     1      -1.157  -1.453  -3.253  0.00  0.00    +0.024 A 
ATOM     13  C   UNL     1      -1.160  -0.774  -2.055  0.00  0.00    +0.013 A 
BRANCH   8  15
ATOM     14  C   UNL     1       1.257   0.043   0.839  0.00  0.00    +0.091 C 
ATOM     15  C   UNL     1       0.005  -0.002   0.001  0.00  0.00    +0.160 C 
ATOM     16  O   UNL     1      -0.999   0.563   0.380  0.00  0.00    -0.292 OA
ENDBRANCH   8  15
ENDBRANCH   1  11
BRANCH   5  17
ATOM     17  S   UNL     1       1.601  -5.387  -6.888  0.00  0.00    -0.078 S 
BRANCH  17  18
ATOM     18  C   UNL     1       1.518  -6.933  -6.046  0.00  0.00    +0.143 C 
ATOM     19  N   UNL     1       2.489  -7.793  -6.168  0.00  0.00    -0.286 N 
ATOM     20  N   UNL     1       0.422  -7.233  -5.256  0.00  0.00    -0.338 N 
ATOM     21  H   UNL     1      -0.300  -6.592  -5.166  0.00  0.00    +0.144 HD
ATOM     22  H   UNL     1       0.377  -8.084  -4.793  0.00  0.00    +0.144 HD
ATOM     23  H   UNL     1       3.257  -7.583  -6.721  0.00  0.00    +0.186 HD
BRANCH  19  24
ATOM     24  N   UNL     1       2.423  -9.022  -5.498  0.00  0.00    -0.228 N 
ATOM     25  C   UNL     1       3.426  -9.911  -5.624  0.00  0.00    +0.228 C 
ATOM     26  O   UNL     1       4.387  -9.648  -6.317  0.00  0.00    -0.274 OA
ATOM     27  C   UNL     1       3.355 -11.233  -4.904  0.00  0.00    +0.111 C 
ATOM     28  H   UNL     1       1.655  -9.233  -4.945  0.00  0.00    +0.175 HD
ENDBRANCH  19  24
ENDBRANCH  17  18
ENDBRANCH   5  17
TORSDOF 5
