REMARK  Name = ZINC18165067
REMARK  2 active torsions:
REMARK  status: ('A' for Active; 'I' for Inactive)
REMARK    1  A    between atoms: C_1  and  S_2
REMARK    2  A    between atoms: S_2  and  C_3
REMARK                            x       y       z     vdW  Elec       q    Type
REMARK                         _______ _______ _______ _____ _____    ______ ____
ROOT
ATOM      1  C   UNL     1      -0.022   1.758   0.012  0.00  0.00    +0.171 A 
ATOM      2  N   UNL     1       1.162   2.436   0.004  0.00  0.00    -0.300 N 
ATOM      3  H   UNL     1       2.000   1.947  -0.007  0.00  0.00    +0.171 HD
ATOM      4  C   UNL     1       1.173   3.788   0.011  0.00  0.00    +0.278 A 
ATOM      5  O   UNL     1       2.225   4.404   0.004  0.00  0.00    -0.265 OA
ATOM      6  C   UNL     1      -0.057   4.466   0.026  0.00  0.00    +0.151 A 
ATOM      7  C   UNL     1      -1.243   3.724   0.033  0.00  0.00    +0.187 A 
ATOM      8  N   UNL     1      -1.179   2.380   0.021  0.00  0.00    -0.202 NA
ATOM      9  N   UNL     1      -2.256   4.607   0.047  0.00  0.00    -0.197 NA
ATOM     10  C   UNL     1      -1.784   5.826   0.049  0.00  0.00    +0.203 A 
ATOM     11  N   UNL     1      -0.434   5.797   0.036  0.00  0.00    -0.323 N 
ATOM     12  H   UNL     1       0.178   6.588   0.034  0.00  0.00    +0.168 HD
ATOM     13 CL   UNL     1      -2.749   7.269   0.065  0.00  0.00    -0.043 Cl
ENDROOT
BRANCH   1  15
ATOM     14  C   UNL     1      -1.776  -0.343   0.017  0.00  0.00    +0.093 C 
ATOM     15  S   UNL     1       0.002  -0.004   0.002  0.00  0.00    -0.091 S 
ENDBRANCH   1  15
TORSDOF 1
