REMARK  Name = ZINC43300076
REMARK  3 active torsions:
REMARK  status: ('A' for Active; 'I' for Inactive)
REMARK    1  A    between atoms: C_2  and  C_13
REMARK    2  A    between atoms: C_13  and  C_15
REMARK    3  A    between atoms: C_13  and  N_23
REMARK                            x       y       z     vdW  Elec       q    Type
REMARK                         _______ _______ _______ _____ _____    ______ ____
ROOT
ATOM      1  C   UNL     1      -0.017   1.380   0.010  0.00  0.00    +0.051 A 
ATOM      2  C   UNL     1       1.175   2.083   0.002  0.00  0.00    -0.056 A 
ATOM      3  C   UNL     1       2.381   1.407  -0.014  0.00  0.00    +0.026 A 
ATOM      4  C   UNL     1       2.404   0.023  -0.022  0.00  0.00    +0.086 A 
ATOM      5  C   UNL     1       1.212  -0.683  -0.013  0.00  0.00    +0.180 A 
ATOM      6  C   UNL     1       0.002  -0.004   0.002  0.00  0.00    +0.164 A 
ATOM      7  O   UNL     1      -1.167  -0.709   0.010  0.00  0.00    -0.488 OA
ATOM      8  C   UNL     1      -1.468  -1.433  -1.184  0.00  0.00    +0.232 C 
ATOM      9  C   UNL     1      -0.780  -2.789  -1.181  0.00  0.00    +0.082 C 
ATOM     10  C   UNL     1       0.736  -2.670  -1.212  0.00  0.00    +0.232 C 
ATOM     11  O   UNL     1       1.220  -2.048  -0.020  0.00  0.00    -0.487 OA
ATOM     12 CL   UNL     1       3.919  -0.824  -0.042  0.00  0.00    -0.080 Cl
ENDROOT
BRANCH   2  13
ATOM     13  C   UNL     1       1.159   3.590   0.011  0.00  0.00    -0.039 C 
BRANCH  13  14
ATOM     14  C   UNL     1       1.390   4.110  -1.409  0.00  0.00    +0.001 C 
ATOM     15  C   UNL     1       0.268   3.600  -2.329  0.00  0.00    +0.026 C 
ATOM     16  C   UNL     1       0.346   4.385  -3.670  0.00  0.00    +0.166 C 
ATOM     17  S   UNL     1       0.708   6.081  -3.046  0.00  0.00    -0.031 S 
ATOM     18  O   UNL     1      -0.516   6.780  -2.871  0.00  0.00    -0.174 OA
ATOM     19  O   UNL     1       1.734   6.657  -3.843  0.00  0.00    -0.174 OA
ATOM     20  C   UNL     1       1.396   5.658  -1.395  0.00  0.00    +0.168 C 
ENDBRANCH  13  14
BRANCH  13  21
ATOM     21  N   UNL     1       2.223   4.086   0.893  0.00  0.00    +0.383 N 
ATOM     22  H   UNL     1       3.117   3.761   0.557  0.00  0.00    -0.089 HD
ATOM     23  H   UNL     1       2.212   5.095   0.899  0.00  0.00    -0.089 HD
ATOM     24  H   UNL     1       2.071   3.743   1.830  0.00  0.00    -0.089 HD
ENDBRANCH  13  21
ENDBRANCH   2  13
TORSDOF 3
