REMARK  Name = ZINC22609689
REMARK  7 active torsions:
REMARK  status: ('A' for Active; 'I' for Inactive)
REMARK    1  A    between atoms: C_1  and  C_2
REMARK    2  A    between atoms: C_2  and  C_3
REMARK    3  A    between atoms: C_5  and  C_29
REMARK    4  A    between atoms: C_7  and  C_28
REMARK    5  A    between atoms: C_8  and  C_12
REMARK    6  A    between atoms: N_14  and  N_15
REMARK    7  A    between atoms: C_16  and  C_18
REMARK                            x       y       z     vdW  Elec       q    Type
REMARK                         _______ _______ _______ _____ _____    ______ ____
ROOT
ATOM      1  C   UNL     1       1.604   1.433   2.525  0.00  0.00    +0.267 C 
ATOM      2  O   UNL     1       1.621   2.633   2.726  0.00  0.00    -0.268 OA
ATOM      3  N   UNL     1       0.533   0.703   2.894  0.00  0.00    -0.230 N 
ATOM      4  H   UNL     1       0.519  -0.382   2.717  0.00  0.00    +0.173 HD
ENDROOT
BRANCH   1  10
ATOM      5  C   UNL     1       6.584  -1.290  -0.252  0.00  0.00    +0.130 A 
ATOM      6  N   UNL     1       6.937  -0.018  -0.194  0.00  0.00    -0.237 NA
ATOM      7  C   UNL     1       6.160   0.907   0.326  0.00  0.00    +0.050 A 
ATOM      8  C   UNL     1       4.895   0.538   0.847  0.00  0.00    +0.032 A 
ATOM      9  C   UNL     1       3.907   1.343   1.438  0.00  0.00    -0.020 A 
ATOM     10  C   UNL     1       2.752   0.780   1.881  0.00  0.00    +0.081 A 
ATOM     11  S   UNL     1       2.967  -0.946   1.480  0.00  0.00    -0.064 S 
ATOM     12  C   UNL     1       4.582  -0.843   0.752  0.00  0.00    +0.113 A 
ATOM     13  N   UNL     1       5.420  -1.702   0.215  0.00  0.00    -0.225 NA
ATOM     14  C   UNL     1       4.129   2.826   1.584  0.00  0.00    +0.046 C 
ATOM     15  C   UNL     1       6.611   2.344   0.368  0.00  0.00    +0.066 C 
BRANCH   5  17
ATOM     16  C   UNL     1       8.447  -2.856   0.222  0.00  0.00    +0.012 C 
ATOM     17  C   UNL     1       7.529  -2.292  -0.864  0.00  0.00    +0.073 C 
ENDBRANCH   5  17
ENDBRANCH   1  10
BRANCH   3  18
ATOM     18  N   UNL     1      -0.564   1.327   3.503  0.00  0.00    -0.234 N 
ATOM     19  C   UNL     1      -1.637   0.598   3.867  0.00  0.00    +0.235 C 
ATOM     20  O   UNL     1      -1.654  -0.598   3.667  0.00  0.00    -0.274 OA
ATOM     21  H   UNL     1      -0.549   2.412   3.685  0.00  0.00    +0.173 HD
BRANCH  19  22
ATOM     22  C   UNL     1      -2.817   1.269   4.523  0.00  0.00    +0.049 C 
ATOM     23  C   UNL     1      -2.366   1.937   5.823  0.00  0.00    +0.019 C 
ATOM     24  C   UNL     1      -3.563   2.619   6.489  0.00  0.00    -0.009 C 
ATOM     25  C   UNL     1      -4.638   1.574   6.798  0.00  0.00    +0.007 C 
ATOM     26  C   UNL     1      -5.089   0.906   5.497  0.00  0.00    -0.009 C 
ATOM     27  C   UNL     1      -3.891   0.224   4.832  0.00  0.00    +0.019 C 
ATOM     28  C   UNL     1      -5.663   1.964   4.553  0.00  0.00    +0.007 C 
ATOM     29  C   UNL     1      -4.589   3.008   4.244  0.00  0.00    -0.009 C 
ATOM     30  C   UNL     1      -4.138   3.676   5.544  0.00  0.00    +0.007 C 
ATOM     31  C   UNL     1      -3.392   2.327   3.578  0.00  0.00    +0.019 C 
ENDBRANCH  19  22
ENDBRANCH   3  18
TORSDOF 4
