REMARK  Name = ZINC62800313
REMARK  3 active torsions:
REMARK  status: ('A' for Active; 'I' for Inactive)
REMARK    1  A    between atoms: C_5  and  O_7
REMARK    2  A    between atoms: O_7  and  C_8
REMARK    3  A    between atoms: N_20  and  O_21
REMARK                            x       y       z     vdW  Elec       q    Type
REMARK                         _______ _______ _______ _____ _____    ______ ____
ROOT
ATOM      1  C   UNL     1       0.010   1.375   0.273  0.00  0.00    +0.004 A 
ATOM      2  C   UNL     1       1.170   2.087   0.053  0.00  0.00    +0.010 A 
ATOM      3  C   UNL     1       2.373   1.414  -0.197  0.00  0.00    +0.006 A 
ATOM      4  C   UNL     1       2.387   0.023  -0.221  0.00  0.00    +0.004 A 
ATOM      5  C   UNL     1       1.213  -0.683   0.002  0.00  0.00    +0.125 A 
ATOM      6  C   UNL     1       0.028  -0.007   0.249  0.00  0.00    +0.046 A 
ATOM      7  C   UNL     1       3.786  -0.468  -0.506  0.00  0.00    +0.046 C 
ATOM      8  C   UNL     1       4.660   0.784  -0.661  0.00  0.00    +0.064 C 
ATOM      9  C   UNL     1       3.725   1.952  -0.457  0.00  0.00    +0.088 C 
ATOM     10  N   UNL     1       4.050   3.203  -0.503  0.00  0.00    -0.092 NA
ENDROOT
BRANCH  10  11
ATOM     11  O   UNL     1       5.390   3.577  -0.764  0.00  0.00    -0.409 OA
ATOM     12  H   UNL     1       5.536   4.533  -0.778  0.00  0.00    +0.328 HD
ENDBRANCH  10  11
BRANCH   5  13
ATOM     13  O   UNL     1       1.226  -2.042  -0.021  0.00  0.00    -0.479 OA
BRANCH  13  14
ATOM     14  C   UNL     1      -0.035  -2.705   0.098  0.00  0.00    +0.259 C 
ATOM     15  C   UNL     1       0.058  -4.102  -0.521  0.00  0.00    +0.054 C 
ATOM     16  C   UNL     1       1.434  -4.700  -0.293  0.00  0.00    +0.006 C 
ATOM     17  C   UNL     1       1.737  -5.003   1.163  0.00  0.00    +0.019 C 
ATOM     18  C   UNL     1       1.843  -3.712   1.977  0.00  0.00    +0.104 C 
ATOM     19  N   UNL     1       0.496  -3.328   2.429  0.00  0.00    -0.312 N 
ATOM     20  C   UNL     1      -0.399  -2.846   1.561  0.00  0.00    +0.254 C 
ATOM     21  O   UNL     1      -1.506  -2.526   1.941  0.00  0.00    -0.272 OA
ATOM     22  H   UNL     1       0.256  -3.422   3.364  0.00  0.00    +0.149 HD
ENDBRANCH  13  14
ENDBRANCH   5  13
TORSDOF 3
