REMARK  Name = ZINC67636197
REMARK  12 active torsions:
REMARK  status: ('A' for Active; 'I' for Inactive)
REMARK    1  A    between atoms: C_1  and  C_2
REMARK    2  A    between atoms: C_2  and  N_3
REMARK    3  A    between atoms: N_3  and  C_4
REMARK    4  A    between atoms: N_3  and  C_6
REMARK    5  A    between atoms: C_4  and  C_5
REMARK    6  A    between atoms: C_6  and  C_8
REMARK    7  A    between atoms: C_6  and  C_24
REMARK    8  A    between atoms: C_8  and  N_9
REMARK    9  A    between atoms: N_12  and  N_13
REMARK   10  A    between atoms: C_14  and  C_16
REMARK   11  A    between atoms: C_21  and  O_22
REMARK   12  A    between atoms: O_22  and  C_23
REMARK                            x       y       z     vdW  Elec       q    Type
REMARK                         _______ _______ _______ _____ _____    ______ ____
ROOT
ATOM      1  N   UNL     1      -3.733  -1.406  -0.886  0.00  0.00    -0.299 N 
ATOM      2  C   UNL     1      -5.079  -1.341  -0.860  0.00  0.00    +0.316 C 
ATOM      3  O   UNL     1      -5.697  -1.895   0.029  0.00  0.00    -0.251 OA
ATOM      4  N   UNL     1      -5.739  -0.662  -1.819  0.00  0.00    -0.218 N 
ATOM      5  H   UNL     1      -3.240  -0.964  -1.595  0.00  0.00    +0.150 HD
ATOM      6  H   UNL     1      -6.708  -0.616  -1.800  0.00  0.00    +0.174 HD
ENDROOT
BRANCH   4   7
ATOM      7  N   UNL     1      -5.027  -0.024  -2.842  0.00  0.00    -0.229 N 
ATOM      8  C   UNL     1      -5.688   0.655  -3.801  0.00  0.00    +0.264 C 
ATOM      9  O   UNL     1      -6.902   0.713  -3.778  0.00  0.00    -0.269 OA
ATOM     10  H   UNL     1      -4.058  -0.071  -2.861  0.00  0.00    +0.173 HD
BRANCH   8  11
ATOM     11  C   UNL     1      -4.937   1.327  -4.879  0.00  0.00    +0.080 A 
ATOM     12  C   UNL     1      -3.542   1.258  -4.913  0.00  0.00    +0.017 A 
ATOM     13  C   UNL     1      -2.848   1.887  -5.923  0.00  0.00    +0.001 A 
ATOM     14  C   UNL     1      -3.526   2.589  -6.906  0.00  0.00    +0.004 A 
ATOM     15  C   UNL     1      -4.904   2.666  -6.884  0.00  0.00    +0.046 A 
ATOM     16  C   UNL     1      -5.620   2.034  -5.878  0.00  0.00    +0.132 A 
BRANCH  16  17
ATOM     17  O   UNL     1      -6.975   2.103  -5.859  0.00  0.00    -0.494 OA
ATOM     18  C   UNL     1      -7.602   2.841  -6.910  0.00  0.00    +0.277 C 
ENDBRANCH  16  17
ENDBRANCH   8  11
ENDBRANCH   4   7
BRANCH   1  19
ATOM     19  C   UNL     1      -3.015  -2.144   0.157  0.00  0.00    +0.098 C 
BRANCH  19  20
ATOM     20  C   UNL     1      -1.508  -1.954  -0.030  0.00  0.00    +0.016 C 
BRANCH  20  21
ATOM     21  C   UNL     1      -0.773  -2.618   1.105  0.00  0.00    +0.093 A 
ATOM     22  C   UNL     1      -0.044  -3.745   1.019  0.00  0.00    +0.043 A 
ATOM     23  C   UNL     1       0.462  -4.006   2.313  0.00  0.00    +0.041 A 
ATOM     24  C   UNL     1       0.012  -3.022   3.113  0.00  0.00    +0.195 A 
ATOM     25  O   UNL     1      -0.731  -2.181   2.375  0.00  0.00    -0.469 OA
ENDBRANCH  20  21
BRANCH  20  26
ATOM     26  N   UNL     1      -1.193  -0.519  -0.045  0.00  0.00    +0.387 N 
ATOM     27  H   UNL     1      -1.644  -0.084  -0.836  0.00  0.00    -0.081 HD
BRANCH  26  29
ATOM     28  C   UNL     1      -1.490   1.617   1.114  0.00  0.00    -0.017 C 
ATOM     29  C   UNL     1      -1.676   0.101   1.196  0.00  0.00    -0.081 C 
ENDBRANCH  26  29
BRANCH  26  30
ATOM     30  C   UNL     1       0.261  -0.338  -0.150  0.00  0.00    -0.081 C 
ATOM     31  C   UNL     1       0.743  -0.855  -1.507  0.00  0.00    -0.017 C 
ENDBRANCH  26  30
ENDBRANCH  20  26
ENDBRANCH  19  20
ENDBRANCH   1  19
TORSDOF 9
