REMARK  Name = ZINC42953668
REMARK  9 active torsions:
REMARK  status: ('A' for Active; 'I' for Inactive)
REMARK    1  A    between atoms: C_1  and  C_2
REMARK    2  A    between atoms: C_2  and  C_3
REMARK    3  A    between atoms: C_3  and  C_5
REMARK    4  A    between atoms: C_3  and  N_23
REMARK    5  A    between atoms: C_5  and  C_7
REMARK    6  A    between atoms: C_5  and  N_14
REMARK    7  A    between atoms: C_17  and  N_20
REMARK    8  A    between atoms: N_20  and  C_21
REMARK    9  A    between atoms: N_20  and  C_22
REMARK                            x       y       z     vdW  Elec       q    Type
REMARK                         _______ _______ _______ _____ _____    ______ ____
ROOT
ATOM      1  C   UNL     1       0.750  -2.022  -1.128  0.00  0.00    -0.053 C 
ENDROOT
BRANCH   1   2
ATOM      2  C   UNL     1       1.522  -2.576  -2.297  0.00  0.00    -0.062 A 
ATOM      3  C   UNL     1       2.904  -2.555  -2.285  0.00  0.00    +0.003 A 
ATOM      4  C   UNL     1       3.612  -3.064  -3.357  0.00  0.00    +0.015 A 
ATOM      5  C   UNL     1       2.938  -3.595  -4.442  0.00  0.00    +0.018 A 
ATOM      6  C   UNL     1       1.555  -3.617  -4.453  0.00  0.00    +0.015 A 
ATOM      7  C   UNL     1       0.848  -3.112  -3.378  0.00  0.00    +0.003 A 
ATOM      8 BR   UNL     1       3.907  -4.291  -5.910  0.00  0.00    -0.050 Br
ENDBRANCH   1   2
BRANCH   1   9
ATOM      9  N   UNL     1       1.423  -2.393   0.124  0.00  0.00    +0.383 N 
ATOM     10  C   UNL     1       0.632  -1.915   1.264  0.00  0.00    -0.077 C 
ATOM     11  C   UNL     1       1.369  -2.228   2.568  0.00  0.00    +0.000 C 
ATOM     12  C   UNL     1       1.570  -3.741   2.684  0.00  0.00    +0.053 C 
ATOM     13  C   UNL     1       2.332  -4.240   1.453  0.00  0.00    +0.000 C 
ATOM     14  C   UNL     1       1.560  -3.853   0.190  0.00  0.00    -0.077 C 
ATOM     15  H   UNL     1       2.339  -1.969   0.151  0.00  0.00    -0.081 HD
BRANCH  12  16
ATOM     16  N   UNL     1       2.344  -4.043   3.896  0.00  0.00    -0.306 NA
ATOM     17  C   UNL     1       2.455  -5.493   4.102  0.00  0.00    +0.104 C 
ATOM     18  C   UNL     1       3.671  -3.415   3.843  0.00  0.00    +0.104 C 
ENDBRANCH  12  16
ENDBRANCH   1   9
BRANCH   1  19
ATOM     19  C   UNL     1       0.683  -0.497  -1.238  0.00  0.00    -0.085 C 
BRANCH  19  20
ATOM     20  N   UNL     1       2.044   0.047  -1.331  0.00  0.00    +0.379 N 
ATOM     21  H   UNL     1       2.000   1.053  -1.404  0.00  0.00    -0.090 HD
ATOM     22  H   UNL     1       2.566  -0.208  -0.506  0.00  0.00    -0.090 HD
ATOM     23  H   UNL     1       2.502  -0.329  -2.148  0.00  0.00    -0.090 HD
ENDBRANCH  19  20
BRANCH  19  25
ATOM     24  C   UNL     1      -0.306   1.406  -2.519  0.00  0.00    +0.002 C 
ATOM     25  C   UNL     1      -0.108  -0.111  -2.489  0.00  0.00    -0.021 C 
ENDBRANCH  19  25
ENDBRANCH   1  19
TORSDOF 6
