REMARK  Name = ZINC64885895
REMARK  11 active torsions:
REMARK  status: ('A' for Active; 'I' for Inactive)
REMARK    1  A    between atoms: C_1  and  C_2
REMARK    2  A    between atoms: C_2  and  C_3
REMARK    3  A    between atoms: C_2  and  O_4
REMARK    4  A    between atoms: O_4  and  C_5
REMARK    5  A    between atoms: C_8  and  C_11
REMARK    6  A    between atoms: C_12  and  C_13
REMARK    7  A    between atoms: N_15  and  N_16
REMARK    8  A    between atoms: N_19  and  C_20
REMARK    9  A    between atoms: C_20  and  C_21
REMARK   10  A    between atoms: C_21  and  C_22
REMARK   11  A    between atoms: C_22  and  N_23
REMARK                            x       y       z     vdW  Elec       q    Type
REMARK                         _______ _______ _______ _____ _____    ______ ____
ROOT
ATOM      1  C   UNL     1      -2.455  -1.453   8.256  0.00  0.00    +0.253 C 
ATOM      2  O   UNL     1      -3.656  -1.257   8.240  0.00  0.00    -0.269 OA
ATOM      3  N   UNL     1      -1.843  -1.792   9.408  0.00  0.00    -0.230 N 
ATOM      4  H   UNL     1      -0.886  -1.949   9.421  0.00  0.00    +0.173 HD
ENDROOT
BRANCH   3   5
ATOM      5  N   UNL     1      -2.589  -1.918  10.587  0.00  0.00    -0.218 N 
ATOM      6  C   UNL     1      -1.977  -2.257  11.739  0.00  0.00    +0.316 C 
ATOM      7  O   UNL     1      -2.625  -2.366  12.762  0.00  0.00    -0.251 OA
ATOM      8  N   UNL     1      -0.647  -2.475  11.757  0.00  0.00    -0.298 N 
ATOM      9  H   UNL     1      -3.546  -1.761  10.574  0.00  0.00    +0.174 HD
ATOM     10  H   UNL     1      -0.130  -2.387  10.940  0.00  0.00    +0.150 HD
BRANCH   8  11
ATOM     11  C   UNL     1       0.018  -2.843  13.009  0.00  0.00    +0.107 C 
BRANCH  11  12
ATOM     12  C   UNL     1       1.515  -3.031  12.755  0.00  0.00    +0.040 C 
BRANCH  12  13
ATOM     13  C   UNL     1       2.210  -3.415  14.062  0.00  0.00    +0.124 C 
BRANCH  13  14
ATOM     14  N   UNL     1       3.644  -3.595  13.819  0.00  0.00    -0.338 N 
ATOM     15  C   UNL     1       4.266  -4.759  13.456  0.00  0.00    +0.104 A 
ATOM     16  C   UNL     1       5.578  -4.479  13.338  0.00  0.00    +0.101 A 
ATOM     17  N   UNL     1       5.752  -3.179  13.621  0.00  0.00    -0.352 N 
ATOM     18  C   UNL     1       4.597  -2.643  13.905  0.00  0.00    +0.173 A 
ATOM     19  H   UNL     1       6.601  -2.711  13.613  0.00  0.00    +0.166 HD
ENDBRANCH  13  14
ENDBRANCH  12  13
ENDBRANCH  11  12
ENDBRANCH   8  11
ENDBRANCH   3   5
BRANCH   1  21
ATOM     20  C   UNL     1      -2.289  -0.982   5.871  0.00  0.00    +0.013 C 
ATOM     21  C   UNL     1      -1.676  -1.321   7.025  0.00  0.00    +0.069 C 
BRANCH  20  25
ATOM     22  C   UNL     1      -0.030  -0.600   2.302  0.00  0.00    +0.121 A 
ATOM     23  C   UNL     1      -1.401  -0.375   2.281  0.00  0.00    +0.046 A 
ATOM     24  C   UNL     1      -2.139  -0.498   3.437  0.00  0.00    +0.011 A 
ATOM     25  C   UNL     1      -1.506  -0.850   4.634  0.00  0.00    -0.025 A 
ATOM     26  C   UNL     1      -0.125  -1.075   4.650  0.00  0.00    +0.011 A 
ATOM     27  C   UNL     1       0.603  -0.954   3.488  0.00  0.00    +0.046 A 
BRANCH  22  28
ATOM     28  O   UNL     1       0.693  -0.477   1.160  0.00  0.00    -0.489 OA
BRANCH  28  30
ATOM     29  C   UNL     1      -0.293   1.273  -0.184  0.00  0.00    +0.051 C 
ATOM     30  C   UNL     1      -0.034  -0.229  -0.045  0.00  0.00    +0.167 C 
ATOM     31  C   UNL     1       0.781  -0.719  -1.243  0.00  0.00    +0.051 C 
ENDBRANCH  28  30
ENDBRANCH  22  28
ENDBRANCH  20  25
ENDBRANCH   1  21
TORSDOF 9
