REMARK  Name = ZINC12495825
REMARK  7 active torsions:
REMARK  status: ('A' for Active; 'I' for Inactive)
REMARK    1  A    between atoms: C_1  and  N_2
REMARK    2  A    between atoms: C_7  and  C_20
REMARK    3  A    between atoms: C_9  and  C_14
REMARK    4  A    between atoms: C_9  and  C_16
REMARK    5  A    between atoms: C_14  and  O_15
REMARK    6  A    between atoms: C_16  and  O_18
REMARK    7  A    between atoms: O_18  and  C_19
REMARK                            x       y       z     vdW  Elec       q    Type
REMARK                         _______ _______ _______ _____ _____    ______ ____
ROOT
ATOM      1  C   UNL     1       2.819   4.455   5.046  0.00  0.00    +0.141 C 
ATOM      2  N   UNL     1       2.997   4.110   3.633  0.00  0.00    -0.245 N 
ATOM      3  C   UNL     1       2.157   4.534   2.634  0.00  0.00    +0.224 C 
ATOM      4  O   UNL     1       1.053   5.020   2.753  0.00  0.00    -0.275 OA
ATOM      5  C   UNL     1       2.870   4.263   1.386  0.00  0.00    +0.077 C 
ATOM      6  C   UNL     1       2.453   3.935  -0.001  0.00  0.00    -0.024 C 
ATOM      7  C   UNL     1       4.508   2.803   0.593  0.00  0.00    +0.067 C 
ATOM      8  C   UNL     1       3.610   2.926   1.800  0.00  0.00    +0.088 C 
ATOM      9  C   UNL     1       4.020   3.329   3.164  0.00  0.00    +0.225 C 
ATOM     10  O   UNL     1       5.043   3.031   3.743  0.00  0.00    -0.275 OA
ATOM     11  N   UNL     1       3.562   3.089  -0.528  0.00  0.00    +0.397 N 
ATOM     12  H   UNL     1       4.054   3.589  -1.278  0.00  0.00    -0.083 HD
ATOM     13  H   UNL     1       3.183   2.209  -0.896  0.00  0.00    -0.083 HD
ENDROOT
BRANCH   6  14
ATOM     14  C   UNL     1       1.158   3.165   0.007  0.00  0.00    -0.025 A 
ATOM     15  C   UNL     1       1.175   1.783   0.000  0.00  0.00    +0.005 A 
ATOM     16  C   UNL     1      -0.013   1.076   0.008  0.00  0.00    +0.000 A 
ATOM     17  C   UNL     1      -1.220   1.750   0.017  0.00  0.00    +0.003 A 
ATOM     18  C   UNL     1      -1.240   3.132   0.030  0.00  0.00    +0.038 A 
ATOM     19  C   UNL     1      -0.050   3.841   0.022  0.00  0.00    +0.125 A 
ATOM     20  F   UNL     1      -0.068   5.192   0.030  0.00  0.00    -0.205 F 
ENDBRANCH   6  14
BRANCH   7  21
ATOM     21  C   UNL     1       5.614   3.825   0.635  0.00  0.00    +0.299 C 
ATOM     22  O   UNL     1       6.044   4.206   1.699  0.00  0.00    -0.252 OA
BRANCH  21  23
ATOM     23  O   UNL     1       6.121   4.314  -0.507  0.00  0.00    -0.469 OA
ATOM     24  C   UNL     1       7.184   5.296  -0.390  0.00  0.00    +0.280 C 
ENDBRANCH  21  23
ENDBRANCH   7  21
BRANCH   7  25
ATOM     25  C   UNL     1       5.082   1.389   0.483  0.00  0.00    +0.155 C 
BRANCH  25  26
ATOM     26  O   UNL     1       5.820   1.267  -0.734  0.00  0.00    -0.396 OA
ATOM     27  H   UNL     1       6.213   0.394  -0.870  0.00  0.00    +0.209 HD
ENDBRANCH  25  26
ENDBRANCH   7  25
TORSDOF 5
