REMARK  Name = ZINC37560997
REMARK  6 active torsions:
REMARK  status: ('A' for Active; 'I' for Inactive)
REMARK    1  A    between atoms: C_1  and  C_2
REMARK    2  A    between atoms: C_2  and  C_3
REMARK    3  A    between atoms: C_3  and  C_5
REMARK    4  A    between atoms: C_3  and  N_13
REMARK    5  A    between atoms: C_10  and  O_11
REMARK    6  A    between atoms: N_17  and  C_19
REMARK                            x       y       z     vdW  Elec       q    Type
REMARK                         _______ _______ _______ _____ _____    ______ ____
ROOT
ATOM      1  C   UNL     1       0.718  -0.497  -1.257  0.00  0.00    +0.105 C 
ENDROOT
BRANCH   1   2
ATOM      2  N   UNL     1       2.125  -0.091  -1.209  0.00  0.00    -0.321 N 
ATOM      3  C   UNL     1       2.501   1.181  -1.656  0.00  0.00    +0.141 A 
ATOM      4  C   UNL     1       1.639   2.165  -2.166  0.00  0.00    +0.064 A 
ATOM      5  C   UNL     1       2.386   3.246  -2.486  0.00  0.00    +0.110 A 
ATOM      6  N   UNL     1       3.672   2.963  -2.191  0.00  0.00    -0.273 N 
ATOM      7  N   UNL     1       3.721   1.665  -1.667  0.00  0.00    -0.157 NA
ATOM      8  C   UNL     1       4.816   3.858  -2.381  0.00  0.00    +0.172 C 
ATOM      9  H   UNL     1       2.795  -0.703  -0.868  0.00  0.00    +0.148 HD
ENDBRANCH   1   2
BRANCH   1  10
ATOM     10  C   UNL     1       0.632  -2.000  -1.327  0.00  0.00    +0.015 A 
ATOM     11  C   UNL     1       1.661  -2.776  -0.831  0.00  0.00    +0.024 A 
ATOM     12  C   UNL     1       1.582  -4.156  -0.895  0.00  0.00    +0.018 A 
ATOM     13  C   UNL     1       0.472  -4.761  -1.457  0.00  0.00    +0.019 A 
ATOM     14  C   UNL     1      -0.559  -3.990  -1.955  0.00  0.00    +0.047 A 
ATOM     15  C   UNL     1      -0.484  -2.606  -1.886  0.00  0.00    +0.122 A 
ATOM     16 BR   UNL     1       2.993  -5.215  -0.215  0.00  0.00    -0.050 Br
BRANCH  15  17
ATOM     17  O   UNL     1      -1.500  -1.844  -2.371  0.00  0.00    -0.506 OA
ATOM     18  H   UNL     1      -1.405  -1.609  -3.304  0.00  0.00    +0.292 HD
ENDBRANCH  15  17
ENDBRANCH   1  10
BRANCH   1  20
ATOM     19  C   UNL     1      -0.019   1.526   0.010  0.00  0.00    +0.006 C 
ATOM     20  C   UNL     1       0.002  -0.004   0.002  0.00  0.00    +0.024 C 
ENDBRANCH   1  20
TORSDOF 4
