REMARK  Name = ZINC35342789
REMARK  6 active torsions:
REMARK  status: ('A' for Active; 'I' for Inactive)
REMARK    1  A    between atoms: C_1  and  C_2
REMARK    2  A    between atoms: C_5  and  C_8
REMARK    3  A    between atoms: C_8  and  C_10
REMARK    4  A    between atoms: C_12  and  N_18
REMARK    5  A    between atoms: C_13  and  O_17
REMARK    6  A    between atoms: C_14  and  O_16
REMARK                            x       y       z     vdW  Elec       q    Type
REMARK                         _______ _______ _______ _____ _____    ______ ____
ROOT
ATOM      1  C   UNL     1       0.188  -4.994   1.246  0.00  0.00    +0.028 A 
ATOM      2  C   UNL     1      -0.413  -4.503   2.410  0.00  0.00    +0.048 A 
ATOM      3  C   UNL     1      -0.293  -5.198   3.593  0.00  0.00    +0.172 A 
ATOM      4  C   UNL     1       0.424  -6.387   3.634  0.00  0.00    +0.189 A 
ATOM      5  C   UNL     1       1.026  -6.882   2.477  0.00  0.00    +0.161 A 
ATOM      6  C   UNL     1       0.905  -6.194   1.286  0.00  0.00    +0.061 A 
ENDROOT
BRANCH   3   7
ATOM      7  N   UNL     1      -0.929  -4.677   4.823  0.00  0.00    +0.060 N 
ATOM      8  O   UNL     1      -1.553  -3.642   4.790  0.00  0.00    -0.126 OA
ATOM      9  O   UNL     1      -0.825  -5.286   5.862  0.00  0.00    -0.126 OA
ENDBRANCH   3   7
BRANCH   1  10
ATOM     10  C   UNL     1       0.060  -4.251  -0.021  0.00  0.00    +0.193 C 
ATOM     11  O   UNL     1      -0.010  -4.854  -1.075  0.00  0.00    -0.287 OA
BRANCH  10  16
ATOM     12  C   UNL     1      -0.111   1.501   0.019  0.00  0.00    +0.044 C 
ATOM     13  C   UNL     1      -0.066  -0.006   0.008  0.00  0.00    -0.050 A 
ATOM     14  C   UNL     1      -0.301  -0.693  -1.169  0.00  0.00    +0.004 A 
ATOM     15  C   UNL     1      -0.262  -2.072  -1.186  0.00  0.00    +0.012 A 
ATOM     16  C   UNL     1       0.016  -2.774  -0.011  0.00  0.00    +0.022 A 
ATOM     17  C   UNL     1       0.253  -2.073   1.174  0.00  0.00    +0.012 A 
ATOM     18  C   UNL     1       0.215  -0.694   1.175  0.00  0.00    +0.004 A 
ENDBRANCH  10  16
ENDBRANCH   1  10
BRANCH   5  19
ATOM     19  O   UNL     1       1.728  -8.046   2.521  0.00  0.00    -0.503 OA
ATOM     20  H   UNL     1       1.195  -8.834   2.344  0.00  0.00    +0.292 HD
ENDBRANCH   5  19
BRANCH   4  21
ATOM     21  O   UNL     1       0.539  -7.069   4.802  0.00  0.00    -0.502 OA
ATOM     22  H   UNL     1      -0.163  -7.716   4.951  0.00  0.00    +0.292 HD
ENDBRANCH   4  21
TORSDOF 5
