REMARK  Name = ZINC67584741
REMARK  6 active torsions:
REMARK  status: ('A' for Active; 'I' for Inactive)
REMARK    1  A    between atoms: C_1  and  C_2
REMARK    2  A    between atoms: C_2  and  C_3
REMARK    3  A    between atoms: C_3  and  C_4
REMARK    4  A    between atoms: N_6  and  C_7
REMARK    5  A    between atoms: C_11  and  N_14
REMARK    6  A    between atoms: C_12  and  C_13
REMARK                            x       y       z     vdW  Elec       q    Type
REMARK                         _______ _______ _______ _____ _____    ______ ____
ROOT
ATOM      1  N   UNL     1       2.823  -6.889  -4.075  0.00  0.00    -0.269 N 
ATOM      2  C   UNL     1       2.814  -8.236  -4.044  0.00  0.00    +0.307 C 
ATOM      3  O   UNL     1       2.289  -8.819  -3.115  0.00  0.00    -0.252 OA
ATOM      4  N   UNL     1       3.387  -8.937  -5.043  0.00  0.00    -0.281 N 
ATOM      5  C   UNL     1       4.133  -8.257  -6.112  0.00  0.00    +0.116 C 
ATOM      6  C   UNL     1       5.604  -8.682  -6.043  0.00  0.00    +0.072 C 
ATOM      7  C   UNL     1       5.676 -10.181  -5.872  0.00  0.00    +0.023 A 
ATOM      8  C   UNL     1       4.647 -10.945  -5.446  0.00  0.00    -0.002 A 
ATOM      9  C   UNL     1       5.114 -12.314  -5.412  0.00  0.00    +0.005 A 
ATOM     10  C   UNL     1       4.501 -13.519  -5.055  0.00  0.00    +0.010 A 
ATOM     11  C   UNL     1       5.265 -14.656  -5.146  0.00  0.00    +0.001 A 
ATOM     12  C   UNL     1       6.583 -14.625  -5.570  0.00  0.00    +0.002 A 
ATOM     13  C   UNL     1       7.216 -13.447  -5.929  0.00  0.00    +0.026 A 
ATOM     14  C   UNL     1       6.465 -12.277  -5.845  0.00  0.00    +0.047 A 
ATOM     15  N   UNL     1       6.769 -10.973  -6.115  0.00  0.00    -0.358 N 
ATOM     16  H   UNL     1       7.629 -10.656  -6.432  0.00  0.00    +0.166 HD
ATOM     17  C   UNL     1       3.287 -10.407  -5.090  0.00  0.00    +0.146 C 
ATOM     18  H   UNL     1       3.306  -6.423  -4.776  0.00  0.00    +0.156 HD
ENDROOT
BRANCH   1  23
ATOM     19  C   UNL     1       0.918  -4.201  -2.432  0.00  0.00    +0.038 A 
ATOM     20  C   UNL     1       0.775  -4.728  -1.155  0.00  0.00    +0.024 A 
ATOM     21  C   UNL     1       1.310  -5.965  -0.852  0.00  0.00    +0.004 A 
ATOM     22  C   UNL     1       1.989  -6.682  -1.818  0.00  0.00    +0.024 A 
ATOM     23  C   UNL     1       2.135  -6.162  -3.098  0.00  0.00    +0.039 A 
ATOM     24  C   UNL     1       1.594  -4.921  -3.406  0.00  0.00    -0.008 A 
ATOM     25  C   UNL     1       1.745  -4.356  -4.795  0.00  0.00    +0.047 C 
BRANCH  19  28
ATOM     26  C   UNL     1      -0.604  -2.432  -1.970  0.00  0.00    +0.217 C 
ATOM     27  O   UNL     1      -1.096  -3.099  -1.085  0.00  0.00    -0.275 OA
ATOM     28  N   UNL     1       0.376  -2.948  -2.738  0.00  0.00    -0.285 N 
ATOM     29  H   UNL     1       0.705  -2.450  -3.503  0.00  0.00    +0.155 HD
BRANCH  26  30
ATOM     30  C   UNL     1      -1.087  -1.024  -2.209  0.00  0.00    +0.096 C 
BRANCH  30  32
ATOM     31  C   UNL     1      -2.685   0.741  -1.452  0.00  0.00    +0.004 C 
ATOM     32  C   UNL     1      -2.194  -0.688  -1.208  0.00  0.00    +0.006 C 
ENDBRANCH  30  32
ENDBRANCH  26  30
ENDBRANCH  19  28
ENDBRANCH   1  23
TORSDOF 4
