REMARK  Name = ZINC67353616
REMARK  8 active torsions:
REMARK  status: ('A' for Active; 'I' for Inactive)
REMARK    1  A    between atoms: C_1  and  C_2
REMARK    2  A    between atoms: C_2  and  C_26
REMARK    3  A    between atoms: C_4  and  N_10
REMARK    4  A    between atoms: C_6  and  C_8
REMARK    5  A    between atoms: C_6  and  C_9
REMARK    6  A    between atoms: N_13  and  C_14
REMARK    7  A    between atoms: C_17  and  S_21
REMARK    8  A    between atoms: S_21  and  C_24
REMARK                            x       y       z     vdW  Elec       q    Type
REMARK                         _______ _______ _______ _____ _____    ______ ____
ROOT
ATOM      1  N   UNL     1       2.710  -0.922  -2.541  0.00  0.00    -0.296 N 
ATOM      2  C   UNL     1       3.867  -0.451  -3.048  0.00  0.00    +0.304 C 
ATOM      3  O   UNL     1       4.560   0.298  -2.387  0.00  0.00    -0.253 OA
ATOM      4  N   UNL     1       4.255  -0.809  -4.288  0.00  0.00    -0.269 N 
ATOM      5  H   UNL     1       2.157  -1.519  -3.068  0.00  0.00    +0.151 HD
ATOM      6  H   UNL     1       3.742  -1.466  -4.786  0.00  0.00    +0.156 HD
ENDROOT
BRANCH   1  10
ATOM      7  C   UNL     1       0.385   1.242   0.510  0.00  0.00    -0.010 C 
ATOM      8  C   UNL     1       0.302  -0.276   0.320  0.00  0.00    -0.072 C 
ATOM      9  C   UNL     1       0.767  -0.646  -1.085  0.00  0.00    +0.009 C 
ATOM     10  C   UNL     1       2.288  -0.531  -1.190  0.00  0.00    +0.072 C 
ATOM     11  C   UNL     1       2.910  -1.486  -0.172  0.00  0.00    +0.009 C 
ATOM     12  C   UNL     1       2.461  -1.123   1.240  0.00  0.00    -0.072 C 
ATOM     13  N   UNL     1       1.022  -0.979   1.367  0.00  0.00    +0.386 N 
ATOM     14  C   UNL     1       3.191   0.141   1.707  0.00  0.00    -0.010 C 
ATOM     15  C   UNL     1       2.903  -2.273   2.175  0.00  0.00    -0.010 C 
ATOM     16  C   UNL     1      -1.190  -0.666   0.430  0.00  0.00    -0.010 C 
ATOM     17  H   UNL     1       0.823  -0.516   2.260  0.00  0.00    -0.084 HD
ATOM     18  H   UNL     1       0.614  -1.915   1.463  0.00  0.00    -0.084 HD
ENDBRANCH   1  10
BRANCH   4  19
ATOM     19  C   UNL     1       5.396  -0.235  -4.858  0.00  0.00    +0.040 A 
ATOM     20  C   UNL     1       6.191  -0.977  -5.721  0.00  0.00    +0.063 A 
ATOM     21  C   UNL     1       7.320  -0.407  -6.283  0.00  0.00    +0.153 A 
ATOM     22  C   UNL     1       7.656   0.902  -5.985  0.00  0.00    +0.158 A 
ATOM     23  C   UNL     1       6.865   1.644  -5.125  0.00  0.00    +0.153 A 
ATOM     24  C   UNL     1       5.732   1.080  -4.565  0.00  0.00    +0.063 A 
ATOM     25  F   UNL     1       7.196   2.922  -4.836  0.00  0.00    -0.203 F 
ATOM     26  F   UNL     1       8.094  -1.129  -7.122  0.00  0.00    -0.203 F 
BRANCH  22  27
ATOM     27  S   UNL     1       9.094   1.626  -6.702  0.00  0.00    -0.000 S 
ATOM     28  O   UNL     1       9.485   2.639  -5.786  0.00  0.00    -0.169 OA
ATOM     29  O   UNL     1       9.954   0.528  -6.978  0.00  0.00    -0.169 OA
ATOM     30  C   UNL     1       8.518   2.372  -8.252  0.00  0.00    +0.200 C 
ENDBRANCH  22  27
ENDBRANCH   4  19
TORSDOF 3
