REMARK  Name = ZINC03670429
REMARK  13 active torsions:
REMARK  status: ('A' for Active; 'I' for Inactive)
REMARK    1  A    between atoms: C_1  and  C_2
REMARK    2  A    between atoms: C_2  and  N_63
REMARK    3  A    between atoms: C_3  and  C_4
REMARK    4  A    between atoms: C_3  and  N_63
REMARK    5  A    between atoms: C_5  and  C_6
REMARK    6  A    between atoms: C_5  and  N_63
REMARK    7  A    between atoms: C_6  and  C_7
REMARK    8  A    between atoms: C_7  and  N_8
REMARK    9  A    between atoms: C_9  and  C_11
REMARK   10  A    between atoms: C_11  and  O_31
REMARK   11  A    between atoms: N_21  and  C_22
REMARK   12  A    between atoms: C_25  and  C_29
REMARK   13  A    between atoms: C_26  and  C_28
REMARK                            x       y       z     vdW  Elec       q    Type
REMARK                         _______ _______ _______ _____ _____    ______ ____
ROOT
ATOM      1  C   UNL     1       3.369  -0.168  -0.844  0.00  0.00    +0.247 C 
ATOM      2  C   UNL     1       2.166   0.689  -0.523  0.00  0.00    +0.034 A 
ATOM      3  C   UNL     1       0.886   0.237  -0.747  0.00  0.00    +0.025 A 
ATOM      4  C   UNL     1      -0.193   1.051  -0.441  0.00  0.00    +0.018 A 
ATOM      5  C   UNL     1       0.019   2.312   0.087  0.00  0.00    +0.017 A 
ATOM      6  C   UNL     1       1.304   2.767   0.312  0.00  0.00    +0.025 A 
ATOM      7  C   UNL     1       2.388   1.956   0.006  0.00  0.00    +0.043 A 
ATOM      8  N   UNL     1       3.693   2.398   0.226  0.00  0.00    -0.269 N 
ATOM      9  C   UNL     1       4.771   1.653  -0.052  0.00  0.00    +0.314 C 
ATOM     10  O   UNL     1       5.871   2.120   0.173  0.00  0.00    -0.252 OA
ATOM     11  N   UNL     1       4.693   0.412  -0.566  0.00  0.00    -0.214 N 
ATOM     12 BR   UNL     1      -1.956   0.438  -0.744  0.00  0.00    -0.050 Br
ATOM     13  H   UNL     1       3.826   3.284   0.596  0.00  0.00    +0.156 HD
ENDROOT
BRANCH  11  14
ATOM     14  C   UNL     1       5.857  -0.317  -0.835  0.00  0.00    +0.042 A 
ATOM     15  C   UNL     1       6.504  -0.172  -2.055  0.00  0.00    +0.024 A 
ATOM     16  C   UNL     1       7.652  -0.893  -2.317  0.00  0.00    +0.005 A 
ATOM     17  C   UNL     1       8.157  -1.760  -1.365  0.00  0.00    -0.047 A 
ATOM     18  C   UNL     1       7.516  -1.907  -0.149  0.00  0.00    -0.046 A 
ATOM     19  C   UNL     1       6.370  -1.184   0.121  0.00  0.00    +0.027 A 
ATOM     20  C   UNL     1       8.070  -2.853   0.885  0.00  0.00    +0.044 C 
ATOM     21  C   UNL     1       9.411  -2.546  -1.654  0.00  0.00    +0.044 C 
ENDBRANCH  11  14
BRANCH   1  23
ATOM     22  N   UNL     1       3.426   0.450  -3.239  0.00  0.00    -0.311 N 
ATOM     23  C   UNL     1       3.312  -0.518  -2.309  0.00  0.00    +0.269 C 
ATOM     24  O   UNL     1       3.164  -1.673  -2.651  0.00  0.00    -0.270 OA
ATOM     25  H   UNL     1       3.544   1.373  -2.965  0.00  0.00    +0.149 HD
BRANCH  22  26
ATOM     26  C   UNL     1       3.371   0.109  -4.662  0.00  0.00    +0.102 C 
BRANCH  26  27
ATOM     27  C   UNL     1       3.524   1.382  -5.498  0.00  0.00    +0.000 C 
BRANCH  27  28
ATOM     28  C   UNL     1       3.466   1.026  -6.985  0.00  0.00    -0.077 C 
BRANCH  28  29
ATOM     29  N   UNL     1       3.594   2.267  -7.777  0.00  0.00    +0.379 N 
ATOM     30  H   UNL     1       2.907   2.951  -7.439  0.00  0.00    -0.082 HD
BRANCH  29  32
ATOM     31  C   UNL     1       6.010   1.788  -7.981  0.00  0.00    -0.017 C 
ATOM     32  C   UNL     1       4.951   2.830  -7.619  0.00  0.00    -0.082 C 
ENDBRANCH  29  32
BRANCH  29  33
ATOM     33  C   UNL     1       3.328   1.985  -9.204  0.00  0.00    -0.082 C 
ATOM     34  C   UNL     1       3.094   3.310  -9.932  0.00  0.00    -0.017 C 
ENDBRANCH  29  33
ENDBRANCH  28  29
ENDBRANCH  27  28
ENDBRANCH  26  27
ENDBRANCH  22  26
ENDBRANCH   1  23
BRANCH   1  35
ATOM     35  O   UNL     1       3.255  -1.383  -0.100  0.00  0.00    -0.360 OA
ATOM     36  H   UNL     1       2.461  -1.895  -0.302  0.00  0.00    +0.213 HD
ENDBRANCH   1  35
TORSDOF 9
