REMARK  Name = ZINC38777239
REMARK  3 active torsions:
REMARK  status: ('A' for Active; 'I' for Inactive)
REMARK    1  A    between atoms: C_1  and  C_2
REMARK    2  A    between atoms: C_4  and  C_8
REMARK    3  A    between atoms: C_12  and  C_15
REMARK                            x       y       z     vdW  Elec       q    Type
REMARK                         _______ _______ _______ _____ _____    ______ ____
ROOT
ATOM      1  C   UNL     1      -0.964  -2.951   1.248  0.00  0.00    +0.232 C 
ATOM      2  N   UNL     1      -0.385  -4.320   1.250  0.00  0.00    -0.225 NA
ATOM      3  N   UNL     1      -0.376  -4.654   2.684  0.00  0.00    -0.223 NA
ATOM      4  C   UNL     1      -0.056  -3.367   3.342  0.00  0.00    +0.233 C 
ATOM      5  O   UNL     1      -0.425  -2.323   2.425  0.00  0.00    -0.335 OA
ATOM      6  H   UNL     1       0.551  -4.317   0.873  0.00  0.00    +0.143 HD
ATOM      7  H   UNL     1      -1.277  -4.998   2.981  0.00  0.00    +0.144 HD
ENDROOT
BRANCH   4   8
ATOM      8  C   UNL     1      -0.844  -3.233   4.620  0.00  0.00    -0.003 A 
ATOM      9  C   UNL     1      -1.422  -2.022   4.952  0.00  0.00    +0.009 A 
ATOM     10  C   UNL     1      -2.144  -1.899   6.124  0.00  0.00    +0.020 A 
ATOM     11  C   UNL     1      -2.289  -2.989   6.964  0.00  0.00    +0.041 A 
ATOM     12  C   UNL     1      -1.710  -4.200   6.631  0.00  0.00    +0.020 A 
ATOM     13  C   UNL     1      -0.992  -4.324   5.457  0.00  0.00    +0.009 A 
ATOM     14 CL   UNL     1      -3.196  -2.835   8.437  0.00  0.00    -0.084 Cl
ENDBRANCH   4   8
BRANCH   1  18
ATOM     15  C   UNL     1      -0.018   1.503   0.010  0.00  0.00    +0.067 C 
ATOM     16  C   UNL     1       0.002  -0.004   0.002  0.00  0.00    +0.058 C 
ATOM     17  C   UNL     1      -1.086  -0.777   0.003  0.00  0.00    +0.030 C 
ATOM     18  C   UNL     1      -0.531  -2.190  -0.007  0.00  0.00    +0.197 C 
ATOM     19  N   UNL     1       0.926  -1.973  -0.013  0.00  0.00    -0.176 NA
ATOM     20  N   UNL     1       1.125  -0.756  -0.013  0.00  0.00    -0.159 NA
ENDBRANCH   1  18
TORSDOF 2
