REMARK  Name = ZINC42025675
REMARK  5 active torsions:
REMARK  status: ('A' for Active; 'I' for Inactive)
REMARK    1  A    between atoms: C_1  and  N_2
REMARK    2  A    between atoms: N_2  and  C_3
REMARK    3  A    between atoms: N_2  and  C_4
REMARK    4  A    between atoms: C_7  and  C_10
REMARK    5  A    between atoms: C_11  and  C_12
REMARK                            x       y       z     vdW  Elec       q    Type
REMARK                         _______ _______ _______ _____ _____    ______ ____
ROOT
ATOM      1  C   UNL     1      -0.005  -2.791  -4.887  0.00  0.00    +0.013 C 
ATOM      2  C   UNL     1      -0.020  -2.110  -6.053  0.00  0.00    +0.068 C 
ENDROOT
BRANCH   2   3
ATOM      3  C   UNL     1      -0.021  -2.834  -7.323  0.00  0.00    +0.240 C 
ATOM      4  O   UNL     1      -0.009  -4.051  -7.329  0.00  0.00    -0.271 OA
ATOM      5  N   UNL     1      -0.036  -2.154  -8.486  0.00  0.00    -0.288 N 
ATOM      6  C   UNL     1      -0.043  -2.853  -9.782  0.00  0.00    +0.127 C 
ATOM      7  C   UNL     1      -1.330  -2.477 -10.520  0.00  0.00    +0.123 C 
ATOM      8  N   UNL     1      -1.552  -1.038 -10.470  0.00  0.00    -0.313 N 
ATOM      9  C   UNL     1      -1.023  -0.222  -9.558  0.00  0.00    +0.230 C 
ATOM     10  O   UNL     1      -1.345   0.948  -9.572  0.00  0.00    -0.274 OA
ATOM     11  C   UNL     1      -0.051  -0.684  -8.513  0.00  0.00    +0.203 C 
ATOM     12  H   UNL     1      -2.125  -0.647 -11.148  0.00  0.00    +0.149 HD
ENDBRANCH   2   3
BRANCH   1  16
ATOM     13  C   UNL     1       0.000  -0.693  -1.206  0.00  0.00    +0.029 A 
ATOM     14  C   UNL     1       0.013  -2.085  -1.212  0.00  0.00    +0.023 A 
ATOM     15  C   UNL     1       0.012  -2.768  -2.401  0.00  0.00    +0.010 A 
ATOM     16  C   UNL     1      -0.004  -2.064  -3.611  0.00  0.00    -0.025 A 
ATOM     17  C   UNL     1      -0.017  -0.664  -3.601  0.00  0.00    +0.010 A 
ATOM     18  C   UNL     1      -0.021   0.011  -2.407  0.00  0.00    +0.023 A 
BRANCH  13  20
ATOM     19  C   UNL     1      -0.018   1.461   0.010  0.00  0.00    +0.129 C 
ATOM     20  N   UNL     1       0.002  -0.004   0.002  0.00  0.00    -0.336 N 
ATOM     21  C   UNL     1       0.024  -0.743   1.267  0.00  0.00    +0.129 C 
ENDBRANCH  13  20
ENDBRANCH   1  16
TORSDOF 3
