REMARK  Name = ZINC54242247
REMARK  10 active torsions:
REMARK  status: ('A' for Active; 'I' for Inactive)
REMARK    1  A    between atoms: C_1  and  C_2
REMARK    2  A    between atoms: C_2  and  C_4
REMARK    3  A    between atoms: C_2  and  N_14
REMARK    4  A    between atoms: C_9  and  O_10
REMARK    5  A    between atoms: O_10  and  C_11
REMARK    6  A    between atoms: C_11  and  C_12
REMARK    7  A    between atoms: C_11  and  C_13
REMARK    8  A    between atoms: N_14  and  C_15
REMARK    9  A    between atoms: C_15  and  C_16
REMARK   10  A    between atoms: N_22  and  C_23
REMARK                            x       y       z     vdW  Elec       q    Type
REMARK                         _______ _______ _______ _____ _____    ______ ____
ROOT
ATOM      1  C   UNL     1       0.185   1.720   0.245  0.00  0.00    -0.009 C 
ATOM      2  C   UNL     1      -0.012   0.202   0.224  0.00  0.00    -0.041 C 
ENDROOT
BRANCH   2   3
ATOM      3  C   UNL     1       0.770  -0.390  -0.920  0.00  0.00    -0.020 A 
ATOM      4  C   UNL     1       1.993  -0.987  -0.685  0.00  0.00    +0.005 A 
ATOM      5  C   UNL     1       2.711  -1.530  -1.734  0.00  0.00    +0.000 A 
ATOM      6  C   UNL     1       2.207  -1.478  -3.021  0.00  0.00    +0.004 A 
ATOM      7  C   UNL     1       0.984  -0.882  -3.261  0.00  0.00    +0.046 A 
ATOM      8  C   UNL     1       0.259  -0.341  -2.209  0.00  0.00    +0.122 A 
BRANCH   8   9
ATOM      9  O   UNL     1      -0.947   0.241  -2.441  0.00  0.00    -0.489 OA
BRANCH   9  10
ATOM     10  C   UNL     1      -1.381   0.314  -3.801  0.00  0.00    +0.167 C 
ATOM     11  C   UNL     1      -2.904   0.446  -3.844  0.00  0.00    +0.051 C 
ATOM     12  C   UNL     1      -0.744   1.531  -4.475  0.00  0.00    +0.051 C 
ENDBRANCH   9  10
ENDBRANCH   8   9
ENDBRANCH   2   3
BRANCH   2  13
ATOM     13  N   UNL     1       0.463  -0.371   1.490  0.00  0.00    +0.382 N 
ATOM     14  H   UNL     1       0.410  -1.377   1.445  0.00  0.00    -0.085 HD
ATOM     15  H   UNL     1       1.420  -0.091   1.648  0.00  0.00    -0.085 HD
BRANCH  13  16
ATOM     16  C   UNL     1      -0.377   0.115   2.594  0.00  0.00    -0.097 C 
BRANCH  16  17
ATOM     17  C   UNL     1       0.178  -0.401   3.923  0.00  0.00    -0.087 C 
ATOM     18  C   UNL     1       0.097  -1.929   3.950  0.00  0.00    -0.017 C 
ATOM     19  C   UNL     1       0.654  -2.440   5.282  0.00  0.00    -0.003 C 
ATOM     20  C   UNL     1      -0.127  -1.797   6.431  0.00  0.00    -0.019 C 
ATOM     21  C   UNL     1      -0.038  -0.274   6.312  0.00  0.00    -0.079 C 
ATOM     22  N   UNL     1      -0.610   0.154   5.030  0.00  0.00    +0.379 N 
ATOM     23  C   UNL     1      -0.594   1.621   4.954  0.00  0.00    -0.096 C 
ATOM     24  H   UNL     1      -1.562  -0.174   4.961  0.00  0.00    -0.082 HD
ENDBRANCH  16  17
ENDBRANCH  13  16
ENDBRANCH   2  13
TORSDOF 6
