REMARK  Name = ZINC62833665
REMARK  3 active torsions:
REMARK  status: ('A' for Active; 'I' for Inactive)
REMARK    1  A    between atoms: C_5  and  N_7
REMARK    2  A    between atoms: C_8  and  C_10
REMARK    3  A    between atoms: C_16  and  N_20
REMARK                            x       y       z     vdW  Elec       q    Type
REMARK                         _______ _______ _______ _____ _____    ______ ____
ROOT
ATOM      1  C   UNL     1       0.119  -4.239   0.189  0.00  0.00    +0.103 A 
ATOM      2  C   UNL     1      -0.970  -5.045   0.297  0.00  0.00    +0.041 A 
ATOM      3  C   UNL     1      -0.511  -6.382   0.369  0.00  0.00    +0.002 A 
ATOM      4  C   UNL     1      -1.163  -7.619   0.487  0.00  0.00    +0.010 A 
ATOM      5  C   UNL     1      -0.435  -8.771   0.533  0.00  0.00    +0.002 A 
ATOM      6  C   UNL     1       0.952  -8.737   0.465  0.00  0.00    +0.025 A 
ATOM      7  C   UNL     1       1.621  -7.532   0.349  0.00  0.00    +0.049 A 
ATOM      8  C   UNL     1       0.893  -6.338   0.299  0.00  0.00    +0.068 A 
ATOM      9  N   UNL     1       1.259  -5.017   0.184  0.00  0.00    -0.349 N 
ATOM     10  H   UNL     1       2.168  -4.686   0.113  0.00  0.00    +0.166 HD
ENDROOT
BRANCH   1  12
ATOM     11  N   UNL     1       1.237  -2.079  -0.022  0.00  0.00    -0.279 N 
ATOM     12  C   UNL     1       0.087  -2.772   0.087  0.00  0.00    +0.265 C 
ATOM     13  O   UNL     1      -0.978  -2.184   0.102  0.00  0.00    -0.268 OA
ATOM     14  H   UNL     1       2.080  -2.550  -0.115  0.00  0.00    +0.155 HD
BRANCH  11  19
ATOM     15  C   UNL     1       0.154   1.371   0.637  0.00  0.00    +0.002 A 
ATOM     16  C   UNL     1       1.173   2.086   0.035  0.00  0.00    +0.001 A 
ATOM     17  C   UNL     1       2.214   1.421  -0.587  0.00  0.00    +0.016 A 
ATOM     18  C   UNL     1       2.239   0.040  -0.608  0.00  0.00    +0.035 A 
ATOM     19  C   UNL     1       1.216  -0.681  -0.003  0.00  0.00    +0.047 A 
ATOM     20  C   UNL     1       0.172  -0.009   0.621  0.00  0.00    +0.024 A 
ATOM     21  I   UNL     1       3.815  -0.967  -1.551  0.00  0.00    -0.042 I 
ENDBRANCH  11  19
ENDBRANCH   1  12
BRANCH   7  22
ATOM     22  N   UNL     1       3.017  -7.507   0.282  0.00  0.00    -0.356 N 
ATOM     23  H   UNL     1       3.519  -8.336   0.317  0.00  0.00    +0.142 HD
ATOM     24  H   UNL     1       3.484  -6.660   0.201  0.00  0.00    +0.142 HD
ENDBRANCH   7  22
TORSDOF 3
