REMARK  Name = ZINC03027011
REMARK  7 active torsions:
REMARK  status: ('A' for Active; 'I' for Inactive)
REMARK    1  A    between atoms: C_1  and  C_2
REMARK    2  A    between atoms: C_7  and  N_8
REMARK    3  A    between atoms: C_9  and  N_25
REMARK    4  A    between atoms: C_10  and  C_14
REMARK    5  A    between atoms: N_16  and  C_17
REMARK    6  A    between atoms: C_22  and  O_23
REMARK    7  A    between atoms: O_23  and  C_24
REMARK                            x       y       z     vdW  Elec       q    Type
REMARK                         _______ _______ _______ _____ _____    ______ ____
ROOT
ATOM      1  N   UNL     1      -2.410   1.008   0.017  0.00  0.00    -0.285 N 
ATOM      2  C   UNL     1      -3.006   0.682  -1.150  0.00  0.00    +0.121 A 
ATOM      3  C   UNL     1      -4.187  -0.016  -1.091  0.00  0.00    +0.115 A 
ATOM      4  S   UNL     1      -4.419  -0.176   0.672  0.00  0.00    -0.055 S 
ATOM      5  C   UNL     1      -2.986   0.655   1.187  0.00  0.00    +0.132 A 
ATOM      6  S   UNL     1      -2.438   0.954   2.781  0.00  0.00    -0.024 S 
ENDROOT
BRANCH   1  13
ATOM      7  C   UNL     1      -2.514   3.852   0.057  0.00  0.00    +0.046 C 
ATOM      8  C   UNL     1      -1.206   3.103   0.033  0.00  0.00    -0.027 A 
ATOM      9  C   UNL     1      -0.012   3.798   0.025  0.00  0.00    +0.005 A 
ATOM     10  C   UNL     1       1.188   3.112   0.003  0.00  0.00    +0.000 A 
ATOM     11  C   UNL     1       1.198   1.729  -0.010  0.00  0.00    +0.002 A 
ATOM     12  C   UNL     1       0.007   1.029  -0.001  0.00  0.00    +0.026 A 
ATOM     13  C   UNL     1      -1.200   1.715   0.015  0.00  0.00    +0.052 A 
ENDBRANCH   1  13
BRANCH   3  14
ATOM     14  C   UNL     1      -5.004  -0.480  -2.144  0.00  0.00    +0.258 C 
ATOM     15  O   UNL     1      -4.681  -0.275  -3.301  0.00  0.00    -0.269 OA
ATOM     16  N   UNL     1      -6.141  -1.149  -1.871  0.00  0.00    -0.278 N 
ATOM     17  H   UNL     1      -6.366  -1.369  -0.953  0.00  0.00    +0.155 HD
BRANCH  16  18
ATOM     18  C   UNL     1      -6.999  -1.528  -2.912  0.00  0.00    +0.076 A 
ATOM     19  C   UNL     1      -6.477  -1.896  -4.143  0.00  0.00    +0.027 A 
ATOM     20  C   UNL     1      -7.325  -2.273  -5.167  0.00  0.00    +0.002 A 
ATOM     21  C   UNL     1      -8.694  -2.276  -4.971  0.00  0.00    +0.004 A 
ATOM     22  C   UNL     1      -9.221  -1.905  -3.748  0.00  0.00    +0.047 A 
ATOM     23  C   UNL     1      -8.378  -1.530  -2.715  0.00  0.00    +0.141 A 
BRANCH  23  24
ATOM     24  O   UNL     1      -8.895  -1.165  -1.511  0.00  0.00    -0.493 OA
ATOM     25  C   UNL     1     -10.318  -1.191  -1.382  0.00  0.00    +0.277 C 
ENDBRANCH  23  24
ENDBRANCH  16  18
ENDBRANCH   3  14
BRANCH   2  26
ATOM     26  N   UNL     1      -2.446   1.033  -2.359  0.00  0.00    -0.343 N 
ATOM     27  H   UNL     1      -1.609   1.523  -2.381  0.00  0.00    +0.144 HD
ATOM     28  H   UNL     1      -2.888   0.790  -3.187  0.00  0.00    +0.144 HD
ENDBRANCH   2  26
TORSDOF 5
