REMARK  Name = ZINC48934351
REMARK  7 active torsions:
REMARK  status: ('A' for Active; 'I' for Inactive)
REMARK    1  A    between atoms: C_1  and  C_2
REMARK    2  A    between atoms: C_2  and  C_4
REMARK    3  A    between atoms: C_2  and  N_12
REMARK    4  A    between atoms: C_7  and  C_10
REMARK    5  A    between atoms: C_13  and  C_15
REMARK    6  A    between atoms: C_15  and  C_17
REMARK    7  A    between atoms: C_15  and  N_18
REMARK                            x       y       z     vdW  Elec       q    Type
REMARK                         _______ _______ _______ _____ _____    ______ ____
ROOT
ATOM      1  N   UNL     1       0.688  -0.476  -1.203  0.00  0.00    -0.307 N 
ATOM      2  C   UNL     1       0.006  -0.608  -2.358  0.00  0.00    +0.234 C 
ATOM      3  O   UNL     1      -1.175  -0.336  -2.400  0.00  0.00    -0.274 OA
ATOM      4  H   UNL     1       1.632  -0.695  -1.170  0.00  0.00    +0.149 HD
ENDROOT
BRANCH   1   6
ATOM      5  C   UNL     1      -0.019   1.526   0.010  0.00  0.00    +0.033 C 
ATOM      6  C   UNL     1       0.002  -0.004   0.002  0.00  0.00    +0.100 C 
BRANCH   6   7
ATOM      7  C   UNL     1       0.731  -0.503   1.223  0.00  0.00    -0.027 A 
ATOM      8  C   UNL     1       2.114  -0.512   1.243  0.00  0.00    +0.007 A 
ATOM      9  C   UNL     1       2.788  -0.968   2.358  0.00  0.00    +0.019 A 
ATOM     10  C   UNL     1       2.070  -1.420   3.467  0.00  0.00    +0.052 A 
ATOM     11  C   UNL     1       0.674  -1.408   3.439  0.00  0.00    +0.019 A 
ATOM     12  C   UNL     1       0.014  -0.945   2.321  0.00  0.00    +0.007 A 
BRANCH  10  13
ATOM     13  C   UNL     1       2.763  -1.895   4.627  0.00  0.00    +0.099 C 
ATOM     14  N   UNL     1       3.312  -2.272   5.547  0.00  0.00    -0.191 NA
ENDBRANCH  10  13
ENDBRANCH   6   7
ENDBRANCH   1   6
BRANCH   2  15
ATOM     15  C   UNL     1       0.712  -1.094  -3.598  0.00  0.00    +0.157 C 
ATOM     16  C   UNL     1       1.849  -0.133  -3.948  0.00  0.00    +0.038 C 
BRANCH  15  17
ATOM     17  N   UNL     1      -0.240  -1.150  -4.711  0.00  0.00    -0.289 N 
ATOM     18  C   UNL     1      -0.021  -1.989  -5.743  0.00  0.00    +0.298 C 
ATOM     19  O   UNL     1       0.966  -2.699  -5.751  0.00  0.00    -0.253 OA
ATOM     20  N   UNL     1      -0.896  -2.041  -6.767  0.00  0.00    -0.313 N 
ATOM     21  H   UNL     1      -1.027  -0.584  -4.705  0.00  0.00    +0.151 HD
ATOM     22  H   UNL     1      -1.683  -1.474  -6.761  0.00  0.00    +0.146 HD
ATOM     23  H   UNL     1      -0.739  -2.644  -7.510  0.00  0.00    +0.146 HD
ENDBRANCH  15  17
ENDBRANCH   2  15
TORSDOF 5
