REMARK  Name = ZINC51250890
REMARK  11 active torsions:
REMARK  status: ('A' for Active; 'I' for Inactive)
REMARK    1  A    between atoms: C_1  and  C_2
REMARK    2  A    between atoms: N_11  and  C_12
REMARK    3  A    between atoms: C_12  and  C_13
REMARK    4  A    between atoms: C_13  and  C_14
REMARK    5  A    between atoms: C_13  and  C_15
REMARK    6  A    between atoms: C_13  and  C_16
REMARK    7  A    between atoms: C_16  and  N_17
REMARK    8  A    between atoms: N_17  and  C_18
REMARK    9  A    between atoms: C_18  and  C_19
REMARK   10  A    between atoms: C_18  and  C_20
REMARK   11  A    between atoms: C_18  and  C_21
REMARK                            x       y       z     vdW  Elec       q    Type
REMARK                         _______ _______ _______ _____ _____    ______ ____
ROOT
ATOM      1  C   UNL     1       2.436  -0.079   1.013  0.00  0.00    -0.073 C 
ENDROOT
BRANCH   1  11
ATOM      2  C   UNL     1       0.172   1.485   0.136  0.00  0.00    -0.008 C 
ATOM      3  C   UNL     1       0.487   0.076  -0.369  0.00  0.00    -0.040 C 
ATOM      4  C   UNL     1      -0.807  -0.627  -0.764  0.00  0.00    -0.051 A 
ATOM      5  C   UNL     1      -1.856  -0.008  -1.440  0.00  0.00    +0.010 A 
ATOM      6  C   UNL     1      -2.971  -0.711  -1.748  0.00  0.00    +0.045 A 
ATOM      7  S   UNL     1      -2.587  -2.324  -1.082  0.00  0.00    -0.101 S 
ATOM      8  C   UNL     1      -0.979  -1.942  -0.450  0.00  0.00    -0.010 A 
ATOM      9  C   UNL     1      -0.002  -2.818   0.265  0.00  0.00    +0.024 C 
ATOM     10  C   UNL     1       1.352  -2.087   0.278  0.00  0.00    -0.073 C 
ATOM     11  N   UNL     1       1.140  -0.694   0.696  0.00  0.00    +0.385 N 
ATOM     12  H   UNL     1       0.557  -0.682   1.519  0.00  0.00    -0.081 HD
ENDBRANCH   1  11
BRANCH   1  13
ATOM     13  C   UNL     1       2.787  -0.355   2.476  0.00  0.00    -0.065 C 
ATOM     14  C   UNL     1       1.727   0.274   3.383  0.00  0.00    +0.007 C 
ATOM     15  C   UNL     1       2.830  -1.866   2.714  0.00  0.00    +0.007 C 
BRANCH  13  16
ATOM     16  C   UNL     1       4.155   0.251   2.795  0.00  0.00    -0.077 C 
BRANCH  16  17
ATOM     17  N   UNL     1       4.492  -0.014   4.200  0.00  0.00    +0.383 N 
ATOM     18  H   UNL     1       3.793   0.401   4.798  0.00  0.00    -0.085 HD
ATOM     19  H   UNL     1       4.521  -1.011   4.357  0.00  0.00    -0.085 HD
BRANCH  17  20
ATOM     20  C   UNL     1       5.806   0.567   4.507  0.00  0.00    -0.077 C 
ATOM     21  C   UNL     1       5.763   2.078   4.269  0.00  0.00    -0.011 C 
ATOM     22  C   UNL     1       6.157   0.291   5.970  0.00  0.00    -0.011 C 
ATOM     23  C   UNL     1       6.866  -0.062   3.600  0.00  0.00    -0.011 C 
ENDBRANCH  17  20
ENDBRANCH  16  17
ENDBRANCH  13  16
ENDBRANCH   1  13
TORSDOF 5
