REMARK  Name = ZINC01657143
REMARK  7 active torsions:
REMARK  status: ('A' for Active; 'I' for Inactive)
REMARK    1  A    between atoms: C_1  and  C_2
REMARK    2  A    between atoms: N_4  and  C_5
REMARK    3  A    between atoms: C_8  and  C_11
REMARK    4  A    between atoms: N_12  and  N_13
REMARK    5  A    between atoms: N_13  and  C_14
REMARK    6  A    between atoms: C_14  and  N_16
REMARK    7  A    between atoms: N_16  and  C_17
REMARK                            x       y       z     vdW  Elec       q    Type
REMARK                         _______ _______ _______ _____ _____    ______ ____
ROOT
ATOM      1  N   UNL     1       2.350   1.000   0.124  0.00  0.00    -0.218 N 
ATOM      2  H   UNL     1       3.174   1.495  -0.009  0.00  0.00    +0.176 HD
ENDROOT
BRANCH   1   4
ATOM      3  C   UNL     1       3.484  -1.037  -0.058  0.00  0.00    +0.138 C 
ATOM      4  N   UNL     1       2.367  -0.401   0.122  0.00  0.00    -0.188 NA
BRANCH   3   8
ATOM      5  C   UNL     1       3.535  -5.282  -0.064  0.00  0.00    +0.033 A 
ATOM      6  C   UNL     1       4.716  -4.574  -0.256  0.00  0.00    +0.024 A 
ATOM      7  C   UNL     1       4.704  -3.197  -0.254  0.00  0.00    +0.011 A 
ATOM      8  C   UNL     1       3.502  -2.511  -0.061  0.00  0.00    -0.005 A 
ATOM      9  C   UNL     1       2.317  -3.226   0.136  0.00  0.00    +0.011 A 
ATOM     10  C   UNL     1       2.337  -4.603   0.129  0.00  0.00    +0.024 A 
BRANCH   5  14
ATOM     11  C   UNL     1       4.693  -8.843   0.302  0.00  0.00    +0.109 C 
ATOM     12  C   UNL     1       4.623  -7.342   0.412  0.00  0.00    +0.214 C 
ATOM     13  O   UNL     1       5.531  -6.729   0.933  0.00  0.00    -0.276 OA
ATOM     14  N   UNL     1       3.551  -6.680  -0.067  0.00  0.00    -0.286 N 
ATOM     15  H   UNL     1       2.791  -7.173  -0.413  0.00  0.00    +0.155 HD
ENDBRANCH   5  14
ENDBRANCH   3   8
ENDBRANCH   1   4
BRANCH   1  16
ATOM     16  C   UNL     1       1.190   1.660   0.311  0.00  0.00    +0.150 C 
ATOM     17  S   UNL     1       1.170   3.372   0.314  0.00  0.00    -0.017 S 
BRANCH  16  18
ATOM     18  N   UNL     1       0.046   0.972   0.496  0.00  0.00    -0.324 N 
ATOM     19  H   UNL     1       0.058   0.002   0.494  0.00  0.00    +0.148 HD
BRANCH  18  20
ATOM     20  C   UNL     1      -1.216   1.689   0.693  0.00  0.00    +0.058 C 
ATOM     21  C   UNL     1      -1.828   2.035  -0.668  0.00  0.00    -0.056 C 
ATOM     22  C   UNL     1      -4.068   1.908   0.245  0.00  0.00    -0.078 C 
ATOM     23  C   UNL     1      -3.520   1.559   1.632  0.00  0.00    -0.014 C 
ATOM     24  C   UNL     1      -2.198   0.799   1.465  0.00  0.00    +0.004 C 
ATOM     25  C   UNL     1      -2.462  -0.467   0.640  0.00  0.00    -0.014 C 
ATOM     26  C   UNL     1      -3.040  -0.061  -0.718  0.00  0.00    -0.078 C 
ATOM     27  N   UNL     1      -3.160   1.409  -0.810  0.00  0.00    +0.381 N 
ATOM     28  H   UNL     1      -3.548   1.656  -1.728  0.00  0.00    -0.082 HD
ENDBRANCH  18  20
ENDBRANCH  16  18
ENDBRANCH   1  16
TORSDOF 6
