REMARK  Name = ZINC09328844
REMARK  4 active torsions:
REMARK  status: ('A' for Active; 'I' for Inactive)
REMARK    1  A    between atoms: C_1  and  C_2
REMARK    2  A    between atoms: C_8  and  C_9
REMARK    3  A    between atoms: C_8  and  N_50
REMARK    4  A    between atoms: N_13  and  C_14
REMARK                            x       y       z     vdW  Elec       q    Type
REMARK                         _______ _______ _______ _____ _____    ______ ____
ROOT
ATOM      1  C   UNL     1      -0.314   0.410  -0.331  0.00  0.00    +0.097 A 
ATOM      2  N   UNL     1      -0.570  -0.094  -1.559  0.00  0.00    -0.314 N 
ATOM      3  H   UNL     1      -0.807   0.495  -2.292  0.00  0.00    +0.170 HD
ATOM      4  C   UNL     1      -0.486  -1.458  -1.757  0.00  0.00    +0.233 A 
ATOM      5  N   UNL     1      -0.728  -1.978  -2.949  0.00  0.00    -0.213 NA
ATOM      6  N   UNL     1      -0.162  -2.249  -0.723  0.00  0.00    -0.179 NA
ATOM      7  C   UNL     1       0.077  -1.718   0.465  0.00  0.00    +0.217 A 
ATOM      8  N   UNL     1       0.000  -0.392   0.654  0.00  0.00    -0.204 NA
ATOM      9  N   UNL     1       0.409  -2.535   1.519  0.00  0.00    -0.327 N 
ATOM     10  H   UNL     1       0.586  -2.152   2.392  0.00  0.00    +0.145 HD
ATOM     11  H   UNL     1       0.467  -3.494   1.389  0.00  0.00    +0.145 HD
ENDROOT
BRANCH   5  12
ATOM     12  C   UNL     1      -0.947  -1.158  -4.022  0.00  0.00    +0.071 A 
ATOM     13  C   UNL     1      -2.252  -0.822  -4.392  0.00  0.00    +0.031 A 
ATOM     14  C   UNL     1      -2.469   0.009  -5.471  0.00  0.00    +0.051 A 
ATOM     15  C   UNL     1      -1.397   0.504  -6.200  0.00  0.00    +0.162 A 
ATOM     16  C   UNL     1      -0.095   0.172  -5.840  0.00  0.00    +0.164 A 
ATOM     17  C   UNL     1       0.131  -0.659  -4.754  0.00  0.00    +0.077 A 
ATOM     18  O   UNL     1       0.967   0.657  -6.539  0.00  0.00    -0.485 OA
ATOM     19  C   UNL     1       0.694   1.182  -7.843  0.00  0.00    +0.270 C 
ATOM     20  C   UNL     1      -0.535   2.095  -7.745  0.00  0.00    +0.270 C 
ATOM     21  O   UNL     1      -1.637   1.314  -7.270  0.00  0.00    -0.485 OA
ENDBRANCH   5  12
BRANCH   1  22
ATOM     22  C   UNL     1      -0.395   1.897  -0.095  0.00  0.00    -0.003 C 
BRANCH  22  29
ATOM     23  C   UNL     1       1.384   2.588   1.974  0.00  0.00    -0.013 C 
ATOM     24  C   UNL     1       0.090   1.829   2.276  0.00  0.00    -0.071 C 
ATOM     25  C   UNL     1      -0.432   2.241   3.655  0.00  0.00    -0.016 C 
ATOM     26  C   UNL     1      -1.737   1.496   3.945  0.00  0.00    -0.003 C 
ATOM     27  C   UNL     1      -2.751   1.809   2.841  0.00  0.00    -0.019 C 
ATOM     28  C   UNL     1      -2.162   1.409   1.486  0.00  0.00    -0.078 C 
ATOM     29  N   UNL     1      -0.922   2.180   1.256  0.00  0.00    +0.386 N 
ATOM     30  H   UNL     1      -1.134   3.182   1.328  0.00  0.00    -0.081 HD
ENDBRANCH  22  29
ENDBRANCH   1  22
TORSDOF 3
