REMARK  Name = ZINC19818615
REMARK  14 active torsions:
REMARK  status: ('A' for Active; 'I' for Inactive)
REMARK    1  A    between atoms: C_1  and  C_2
REMARK    2  A    between atoms: C_2  and  O_3
REMARK    3  A    between atoms: O_3  and  C_4
REMARK    4  A    between atoms: C_4  and  C_6
REMARK    5  A    between atoms: C_9  and  O_38
REMARK    6  A    between atoms: C_14  and  C_15
REMARK    7  A    between atoms: C_15  and  N_16
REMARK    8  A    between atoms: N_19  and  C_22
REMARK    9  A    between atoms: C_22  and  C_23
REMARK   10  A    between atoms: C_24  and  C_33
REMARK   11  A    between atoms: C_27  and  O_32
REMARK   12  A    between atoms: C_33  and  O_35
REMARK   13  A    between atoms: O_35  and  C_36
REMARK   14  A    between atoms: C_36  and  C_37
REMARK                            x       y       z     vdW  Elec       q    Type
REMARK                         _______ _______ _______ _____ _____    ______ ____
ROOT
ATOM      1  N   UNL     1       6.493   1.009  -1.440  0.00  0.00    +0.386 N 
ATOM      2  C   UNL     1       6.244  -0.266  -2.126  0.00  0.00    -0.063 C 
ATOM      3  C   UNL     1       6.678  -0.149  -3.589  0.00  0.00    +0.066 C 
ATOM      4  N   UNL     1       8.103   0.207  -3.647  0.00  0.00    -0.299 NA
ATOM      5  C   UNL     1       8.352   1.483  -2.960  0.00  0.00    +0.066 C 
ATOM      6  C   UNL     1       7.918   1.365  -1.498  0.00  0.00    -0.063 C 
ATOM      7  H   UNL     1       5.925   1.793  -1.963  0.00  0.00    -0.081 HD
ENDROOT
BRANCH   1   8
ATOM      8  C   UNL     1       6.018   0.961  -0.051  0.00  0.00    -0.002 C 
BRANCH   8  17
ATOM      9  C   UNL     1       3.828  -0.337  -0.036  0.00  0.00    +0.106 A 
ATOM     10  C   UNL     1       2.399   0.038  -0.021  0.00  0.00    +0.038 A 
ATOM     11  C   UNL     1       1.208  -0.681  -0.013  0.00  0.00    +0.058 A 
ATOM     12  C   UNL     1       0.002  -0.004   0.002  0.00  0.00    +0.118 A 
ATOM     13  C   UNL     1      -0.017   1.387   0.010  0.00  0.00    +0.049 A 
ATOM     14  C   UNL     1       1.160   2.104   0.002  0.00  0.00    +0.050 A 
ATOM     15  C   UNL     1       2.380   1.440  -0.013  0.00  0.00    +0.136 A 
ATOM     16  O   UNL     1       3.661   1.866  -0.023  0.00  0.00    -0.461 OA
ATOM     17  C   UNL     1       4.516   0.838  -0.037  0.00  0.00    +0.104 A 
BRANCH   9  18
ATOM     18  C   UNL     1       4.389  -1.694  -0.049  0.00  0.00    +0.343 C 
ATOM     19  O   UNL     1       4.611  -2.250  -1.107  0.00  0.00    -0.245 OA
BRANCH  18  20
ATOM     20  O   UNL     1       4.657  -2.324   1.113  0.00  0.00    -0.461 OA
BRANCH  20  22
ATOM     21  C   UNL     1       5.446  -4.211   2.433  0.00  0.00    +0.048 C 
ATOM     22  C   UNL     1       5.210  -3.663   1.024  0.00  0.00    +0.229 C 
ENDBRANCH  20  22
ENDBRANCH  18  20
ENDBRANCH   9  18
BRANCH  12  23
ATOM     23  O   UNL     1      -1.167  -0.699   0.009  0.00  0.00    -0.507 OA
ATOM     24  H   UNL     1      -2.126  -0.161   0.021  0.00  0.00    +0.292 HD
ENDBRANCH  12  23
ENDBRANCH   8  17
ENDBRANCH   1   8
BRANCH   4  25
ATOM     25  C   UNL     1       8.578   0.255  -5.036  0.00  0.00    +0.159 C 
BRANCH  25  26
ATOM     26  C   UNL     1       8.533  -1.129  -5.630  0.00  0.00    +0.134 A 
ATOM     27  C   UNL     1       7.466  -1.666  -6.284  0.00  0.00    +0.109 A 
ATOM     28  C   UNL     1       7.885  -3.025  -6.684  0.00  0.00    +0.038 A 
ATOM     29  C   UNL     1       7.270  -4.067  -7.369  0.00  0.00    +0.058 A 
ATOM     30  C   UNL     1       7.958  -5.248  -7.578  0.00  0.00    +0.118 A 
ATOM     31  C   UNL     1       9.259  -5.390  -7.104  0.00  0.00    +0.049 A 
ATOM     32  C   UNL     1       9.874  -4.361  -6.425  0.00  0.00    +0.050 A 
ATOM     33  C   UNL     1       9.196  -3.167  -6.207  0.00  0.00    +0.136 A 
ATOM     34  O   UNL     1       9.534  -2.016  -5.589  0.00  0.00    -0.458 OA
BRANCH  30  35
ATOM     35  O   UNL     1       7.364  -6.272  -8.246  0.00  0.00    -0.507 OA
ATOM     36  H   UNL     1       7.911  -7.211  -8.412  0.00  0.00    +0.292 HD
ENDBRANCH  30  35
BRANCH  27  37
ATOM     37  C   UNL     1       6.169  -1.026  -6.539  0.00  0.00    +0.343 C 
ATOM     38  O   UNL     1       5.999  -0.382  -7.556  0.00  0.00    -0.245 OA
BRANCH  37  39
ATOM     39  O   UNL     1       5.167  -1.154  -5.646  0.00  0.00    -0.461 OA
BRANCH  39  40
ATOM     40  C   UNL     1       3.913  -0.495  -5.964  0.00  0.00    +0.229 C 
ATOM     41  C   UNL     1       2.904  -0.751  -4.843  0.00  0.00    +0.048 C 
ENDBRANCH  39  40
ENDBRANCH  37  39
ENDBRANCH  27  37
ENDBRANCH  25  26
ENDBRANCH   4  25
TORSDOF 12
