REMARK  Name = ZINC58005761
REMARK  9 active torsions:
REMARK  status: ('A' for Active; 'I' for Inactive)
REMARK    1  A    between atoms: C_1  and  C_2
REMARK    2  A    between atoms: C_2  and  C_3
REMARK    3  A    between atoms: C_3  and  C_5
REMARK    4  A    between atoms: C_3  and  N_21
REMARK    5  A    between atoms: C_5  and  N_6
REMARK    6  A    between atoms: C_8  and  C_17
REMARK    7  A    between atoms: C_8  and  C_19
REMARK    8  A    between atoms: C_17  and  C_18
REMARK    9  A    between atoms: C_19  and  C_20
REMARK                            x       y       z     vdW  Elec       q    Type
REMARK                         _______ _______ _______ _____ _____    ______ ____
ROOT
ATOM      1  N   UNL     1      -3.629  -2.403   0.188  0.00  0.00    -0.325 N 
ATOM      2  C   UNL     1      -4.548  -2.064   1.288  0.00  0.00    +0.153 C 
ATOM      3  C   UNL     1      -5.394  -3.310   1.585  0.00  0.00    +0.126 C 
ATOM      4  O   UNL     1      -6.092  -3.688   0.396  0.00  0.00    -0.482 OA
ATOM      5  C   UNL     1      -5.374  -3.788  -0.754  0.00  0.00    +0.142 A 
ATOM      6  C   UNL     1      -4.143  -3.148  -0.886  0.00  0.00    +0.073 A 
ATOM      7  C   UNL     1      -3.426  -3.249  -2.067  0.00  0.00    +0.046 A 
ATOM      8  C   UNL     1      -3.935  -3.986  -3.122  0.00  0.00    +0.043 A 
ATOM      9  C   UNL     1      -5.158  -4.621  -2.996  0.00  0.00    +0.024 A 
ATOM     10  C   UNL     1      -5.875  -4.530  -1.812  0.00  0.00    +0.049 A 
ATOM     11 CL   UNL     1      -3.040  -4.115  -4.604  0.00  0.00    -0.083 Cl
ENDROOT
BRANCH   3  12
ATOM     12  C   UNL     1      -6.402  -2.992   2.692  0.00  0.00    +0.046 C 
ATOM     13  C   UNL     1      -7.317  -1.854   2.237  0.00  0.00    +0.008 C 
ENDBRANCH   3  12
BRANCH   3  14
ATOM     14  C   UNL     1      -4.483  -4.455   2.031  0.00  0.00    +0.046 C 
ATOM     15  C   UNL     1      -5.324  -5.707   2.287  0.00  0.00    +0.008 C 
ENDBRANCH   3  14
BRANCH   1  16
ATOM     16  C   UNL     1      -2.228  -1.974   0.210  0.00  0.00    +0.089 C 
BRANCH  16  17
ATOM     17  C   UNL     1      -2.126  -0.541  -0.317  0.00  0.00    -0.058 C 
BRANCH  17  18
ATOM     18  N   UNL     1      -2.762  -0.459  -1.639  0.00  0.00    +0.381 N 
ATOM     19  H   UNL     1      -2.240  -1.015  -2.299  0.00  0.00    -0.090 HD
ATOM     20  H   UNL     1      -3.707  -0.807  -1.579  0.00  0.00    -0.090 HD
ATOM     21  H   UNL     1      -2.777   0.502  -1.946  0.00  0.00    -0.090 HD
ENDBRANCH  17  18
BRANCH  17  23
ATOM     22  C   UNL     1      -0.551   1.326  -0.842  0.00  0.00    +0.002 C 
ATOM     23  C   UNL     1      -0.653  -0.145  -0.435  0.00  0.00    -0.018 C 
ENDBRANCH  17  23
ENDBRANCH  16  17
ENDBRANCH   1  16
TORSDOF 6
