REMARK  Name = ZINC50585314
REMARK  10 active torsions:
REMARK  status: ('A' for Active; 'I' for Inactive)
REMARK    1  A    between atoms: C_1  and  C_2
REMARK    2  A    between atoms: C_2  and  N_3
REMARK    3  A    between atoms: N_3  and  C_4
REMARK    4  A    between atoms: C_4  and  C_5
REMARK    5  A    between atoms: C_8  and  O_12
REMARK    6  A    between atoms: C_10  and  C_11
REMARK    7  A    between atoms: O_12  and  C_13
REMARK    8  A    between atoms: C_16  and  C_21
REMARK    9  A    between atoms: C_18  and  O_19
REMARK   10  A    between atoms: O_19  and  C_20
REMARK                            x       y       z     vdW  Elec       q    Type
REMARK                         _______ _______ _______ _____ _____    ______ ____
ROOT
ATOM      1  C   UNL     1      -2.787  -2.461  -0.048  0.00  0.00    -0.061 A 
ATOM      2  C   UNL     1      -3.308  -2.958   1.133  0.00  0.00    +0.005 A 
ATOM      3  C   UNL     1      -4.598  -3.450   1.167  0.00  0.00    +0.046 A 
ATOM      4  C   UNL     1      -5.371  -3.447   0.014  0.00  0.00    +0.129 A 
ATOM      5  C   UNL     1      -4.846  -2.948  -1.169  0.00  0.00    +0.049 A 
ATOM      6  C   UNL     1      -3.557  -2.451  -1.196  0.00  0.00    -0.046 A 
ATOM      7  C   UNL     1      -2.988  -1.903  -2.479  0.00  0.00    +0.044 C 
ENDROOT
BRANCH   1   8
ATOM      8  C   UNL     1      -1.379  -1.924  -0.082  0.00  0.00    -0.047 C 
BRANCH   8   9
ATOM      9  N   UNL     1      -1.412  -0.458  -0.003  0.00  0.00    +0.382 N 
ATOM     10  H   UNL     1      -1.859  -0.177   0.857  0.00  0.00    -0.085 HD
ATOM     11  H   UNL     1      -1.931  -0.091  -0.787  0.00  0.00    -0.085 HD
BRANCH   9  13
ATOM     12  C   UNL     1      -0.074   1.593   0.046  0.00  0.00    -0.017 C 
ATOM     13  C   UNL     1      -0.040   0.066  -0.036  0.00  0.00    -0.086 C 
ENDBRANCH   9  13
ENDBRANCH   8   9
ENDBRANCH   1   8
BRANCH   4  14
ATOM     14  O   UNL     1      -6.640  -3.931   0.044  0.00  0.00    -0.452 OA
BRANCH  14  15
ATOM     15  C   UNL     1      -6.904  -5.074  -0.643  0.00  0.00    +0.170 A 
ATOM     16  C   UNL     1      -5.870  -5.780  -1.240  0.00  0.00    +0.050 A 
ATOM     17  C   UNL     1      -6.140  -6.942  -1.939  0.00  0.00    +0.007 A 
ATOM     18  C   UNL     1      -7.439  -7.403  -2.044  0.00  0.00    -0.047 A 
ATOM     19  C   UNL     1      -8.475  -6.704  -1.451  0.00  0.00    +0.052 A 
ATOM     20  C   UNL     1      -8.211  -5.542  -0.745  0.00  0.00    +0.162 A 
ATOM     21  C   UNL     1      -7.728  -8.669  -2.808  0.00  0.00    +0.044 C 
BRANCH  20  22
ATOM     22  O   UNL     1      -9.227  -4.856  -0.157  0.00  0.00    -0.491 OA
ATOM     23  C   UNL     1     -10.543  -5.395  -0.302  0.00  0.00    +0.277 C 
ENDBRANCH  20  22
ENDBRANCH  14  15
ENDBRANCH   4  14
TORSDOF 6
