REMARK  Name = ZINC43091739
REMARK  12 active torsions:
REMARK  status: ('A' for Active; 'I' for Inactive)
REMARK    1  A    between atoms: C_1  and  C_2
REMARK    2  A    between atoms: C_2  and  C_3
REMARK    3  A    between atoms: C_3  and  C_5
REMARK    4  A    between atoms: C_3  and  N_22
REMARK    5  A    between atoms: C_5  and  C_7
REMARK    6  A    between atoms: C_5  and  N_14
REMARK    7  A    between atoms: N_14  and  C_15
REMARK    8  A    between atoms: N_14  and  C_16
REMARK    9  A    between atoms: C_16  and  C_18
REMARK   10  A    between atoms: C_16  and  C_19
REMARK   11  A    between atoms: C_19  and  C_20
REMARK   12  A    between atoms: C_19  and  C_21
REMARK                            x       y       z     vdW  Elec       q    Type
REMARK                         _______ _______ _______ _____ _____    ______ ____
ROOT
ATOM      1  C   UNL     1       0.551  -1.873   1.470  0.00  0.00    -0.051 C 
ENDROOT
BRANCH   1   2
ATOM      2  C   UNL     1       1.191  -2.474   2.695  0.00  0.00    -0.049 A 
ATOM      3  C   UNL     1       1.541  -1.665   3.760  0.00  0.00    +0.003 A 
ATOM      4  C   UNL     1       2.128  -2.216   4.883  0.00  0.00    +0.000 A 
ATOM      5  C   UNL     1       2.365  -3.577   4.943  0.00  0.00    +0.001 A 
ATOM      6  C   UNL     1       2.016  -4.386   3.879  0.00  0.00    +0.015 A 
ATOM      7  C   UNL     1       1.424  -3.836   2.756  0.00  0.00    +0.019 A 
ATOM      8 BR   UNL     1       0.939  -4.944   1.303  0.00  0.00    -0.050 Br
ENDBRANCH   1   2
BRANCH   1   9
ATOM      9  N   UNL     1      -0.897  -2.113   1.507  0.00  0.00    +0.383 N 
ATOM     10  C   UNL     1      -1.543  -1.091   2.342  0.00  0.00    -0.095 C 
ATOM     11  H   UNL     1      -1.077  -3.027   1.895  0.00  0.00    -0.081 HD
BRANCH   9  12
ATOM     12  C   UNL     1      -1.440  -2.045   0.143  0.00  0.00    -0.069 C 
ATOM     13  C   UNL     1      -0.899  -3.216  -0.679  0.00  0.00    -0.013 C 
BRANCH  12  14
ATOM     14  C   UNL     1      -2.967  -2.122   0.198  0.00  0.00    -0.031 C 
ATOM     15  C   UNL     1      -3.532  -2.051  -1.223  0.00  0.00    +0.005 C 
ATOM     16  C   UNL     1      -3.389  -3.440   0.849  0.00  0.00    +0.005 C 
ENDBRANCH  12  14
ENDBRANCH   9  12
ENDBRANCH   1   9
BRANCH   1  17
ATOM     17  C   UNL     1       0.817  -0.366   1.443  0.00  0.00    -0.085 C 
BRANCH  17  18
ATOM     18  N   UNL     1       2.265  -0.126   1.373  0.00  0.00    +0.379 N 
ATOM     19  H   UNL     1       2.445   0.864   1.444  0.00  0.00    -0.090 HD
ATOM     20  H   UNL     1       2.723  -0.607   2.133  0.00  0.00    -0.090 HD
ATOM     21  H   UNL     1       2.621  -0.471   0.494  0.00  0.00    -0.090 HD
ENDBRANCH  17  18
BRANCH  17  23
ATOM     22  C   UNL     1       0.437   1.749   0.169  0.00  0.00    +0.002 C 
ATOM     23  C   UNL     1       0.139   0.249   0.217  0.00  0.00    -0.021 C 
ENDBRANCH  17  23
ENDBRANCH   1  17
TORSDOF 7
