REMARK  Name = ZINC42507326
REMARK  11 active torsions:
REMARK  status: ('A' for Active; 'I' for Inactive)
REMARK    1  A    between atoms: C_1  and  C_2
REMARK    2  A    between atoms: C_2  and  C_3
REMARK    3  A    between atoms: C_2  and  N_4
REMARK    4  A    between atoms: N_4  and  C_5
REMARK    5  A    between atoms: N_4  and  C_9
REMARK    6  A    between atoms: C_5  and  C_6
REMARK    7  A    between atoms: C_6  and  C_7
REMARK    8  A    between atoms: C_7  and  O_8
REMARK    9  A    between atoms: C_9  and  C_10
REMARK   10  A    between atoms: C_13  and  C_17
REMARK   11  A    between atoms: N_18  and  O_19
REMARK                            x       y       z     vdW  Elec       q    Type
REMARK                         _______ _______ _______ _____ _____    ______ ____
ROOT
ATOM      1  C   UNL     1       1.695  -2.662   0.723  0.00  0.00    -0.029 A 
ATOM      2  C   UNL     1       1.214  -3.201  -0.457  0.00  0.00    +0.005 A 
ATOM      3  C   UNL     1       2.074  -3.823  -1.337  0.00  0.00    +0.012 A 
ATOM      4  C   UNL     1       3.434  -3.909  -1.037  0.00  0.00    +0.020 A 
ATOM      5  C   UNL     1       3.916  -3.365   0.153  0.00  0.00    +0.050 A 
ATOM      6  C   UNL     1       3.045  -2.739   1.025  0.00  0.00    +0.125 A 
ATOM      7  F   UNL     1       3.510  -2.206   2.176  0.00  0.00    -0.205 F 
ENDROOT
BRANCH   4   8
ATOM      8  C   UNL     1       4.362  -4.577  -1.978  0.00  0.00    +0.162 C 
ATOM      9  N   UNL     1       3.909  -5.084  -3.087  0.00  0.00    -0.072 NA
ATOM     10  N   UNL     1       5.711  -4.661  -1.678  0.00  0.00    -0.340 N 
ATOM     11  H   UNL     1       6.048  -4.282  -0.851  0.00  0.00    +0.144 HD
ATOM     12  H   UNL     1       6.318  -5.098  -2.295  0.00  0.00    +0.144 HD
BRANCH   9  13
ATOM     13  O   UNL     1       4.796  -5.722  -3.987  0.00  0.00    -0.408 OA
ATOM     14  H   UNL     1       4.369  -6.067  -4.783  0.00  0.00    +0.328 HD
ENDBRANCH   9  13
ENDBRANCH   4   8
BRANCH   1  15
ATOM     15  C   UNL     1       0.749  -1.984   1.680  0.00  0.00    -0.040 C 
BRANCH  15  16
ATOM     16  N   UNL     1       1.234  -0.628   1.969  0.00  0.00    +0.384 N 
ATOM     17  H   UNL     1       2.203  -0.669   2.246  0.00  0.00    -0.081 HD
BRANCH  16  19
ATOM     18  C   UNL     1       2.083  -0.284  -0.302  0.00  0.00    -0.014 C 
ATOM     19  C   UNL     1       1.103   0.205   0.766  0.00  0.00    -0.074 C 
ATOM     20  C   UNL     1      -0.326   0.106   0.230  0.00  0.00    -0.014 C 
ENDBRANCH  16  19
BRANCH  16  21
ATOM     21  C   UNL     1       0.437  -0.045   3.057  0.00  0.00    -0.076 C 
BRANCH  21  22
ATOM     22  C   UNL     1       0.962   1.356   3.379  0.00  0.00    +0.009 C 
BRANCH  22  23
ATOM     23  C   UNL     1       0.193   1.927   4.572  0.00  0.00    +0.154 C 
BRANCH  23  24
ATOM     24  O   UNL     1       0.683   3.235   4.873  0.00  0.00    -0.395 OA
ATOM     25  H   UNL     1       0.239   3.659   5.620  0.00  0.00    +0.209 HD
ENDBRANCH  23  24
ENDBRANCH  22  23
ENDBRANCH  21  22
ENDBRANCH  16  21
ENDBRANCH  15  16
ENDBRANCH   1  15
TORSDOF 9
