REMARK  Name = ZINC36938326
REMARK  5 active torsions:
REMARK  status: ('A' for Active; 'I' for Inactive)
REMARK    1  A    between atoms: C_1  and  C_2
REMARK    2  A    between atoms: C_5  and  C_7
REMARK    3  A    between atoms: C_8  and  C_14
REMARK    4  A    between atoms: C_9  and  N_13
REMARK    5  A    between atoms: N_10  and  C_12
REMARK                            x       y       z     vdW  Elec       q    Type
REMARK                         _______ _______ _______ _____ _____    ______ ____
ROOT
ATOM      1  C   UNL     1       1.434  -1.989   0.869  0.00  0.00    +0.076 A 
ATOM      2  C   UNL     1       2.807  -2.220   1.077  0.00  0.00    +0.045 A 
ATOM      3  C   UNL     1       3.071  -3.517   0.673  0.00  0.00    +0.122 A 
ATOM      4  N   UNL     1       1.905  -4.046   0.239  0.00  0.00    -0.253 N 
ATOM      5  N   UNL     1       0.905  -3.077   0.376  0.00  0.00    -0.174 NA
ATOM      6  C   UNL     1       1.720  -5.403  -0.282  0.00  0.00    +0.174 C 
ENDROOT
BRANCH   2   7
ATOM      7  C   UNL     1       3.789  -1.254   1.627  0.00  0.00    -0.009 A 
ATOM      8  C   UNL     1       4.091  -0.089   0.924  0.00  0.00    +0.012 A 
ATOM      9  C   UNL     1       5.005   0.809   1.437  0.00  0.00    +0.050 A 
ATOM     10  C   UNL     1       5.625   0.557   2.651  0.00  0.00    +0.166 A 
ATOM     11  C   UNL     1       5.326  -0.605   3.359  0.00  0.00    +0.167 A 
ATOM     12  C   UNL     1       4.406  -1.506   2.851  0.00  0.00    +0.058 A 
ATOM     13  O   UNL     1       6.061  -0.617   4.509  0.00  0.00    -0.453 OA
ATOM     14  C   UNL     1       7.112   0.344   4.304  0.00  0.00    +0.466 C 
ATOM     15  O   UNL     1       6.547   1.273   3.360  0.00  0.00    -0.453 OA
ENDBRANCH   2   7
BRANCH   1  19
ATOM     16  C   UNL     1      -0.019   1.526   0.010  0.00  0.00    +0.008 C 
ATOM     17  C   UNL     1       0.002  -0.004   0.002  0.00  0.00    -0.004 C 
ATOM     18  C   UNL     1      -0.828  -0.728   1.065  0.00  0.00    +0.014 C 
ATOM     19  C   UNL     1       0.700  -0.708   1.168  0.00  0.00    +0.043 C 
ENDBRANCH   1  19
BRANCH   3  20
ATOM     20  N   UNL     1       4.304  -4.156   0.707  0.00  0.00    -0.343 N 
ATOM     21  H   UNL     1       5.085  -3.686   1.039  0.00  0.00    +0.144 HD
ATOM     22  H   UNL     1       4.384  -5.073   0.399  0.00  0.00    +0.144 HD
ENDBRANCH   3  20
TORSDOF 3
