REMARK  Name = ZINC04031006
REMARK  7 active torsions:
REMARK  status: ('A' for Active; 'I' for Inactive)
REMARK    1  A    between atoms: C_1  and  O_2
REMARK    2  A    between atoms: O_2  and  C_3
REMARK    3  A    between atoms: C_7  and  C_11
REMARK    4  A    between atoms: C_8  and  O_9
REMARK    5  A    between atoms: O_9  and  C_10
REMARK    6  A    between atoms: C_11  and  N_48
REMARK    7  A    between atoms: C_12  and  N_48
REMARK                            x       y       z     vdW  Elec       q    Type
REMARK                         _______ _______ _______ _____ _____    ______ ____
ROOT
ATOM      1  N   UNL     1      -1.505   5.091   0.051  0.00  0.00    +0.386 N 
ATOM      2  H   UNL     1      -1.983   5.415   0.900  0.00  0.00    -0.085 HD
ATOM      3  H   UNL     1      -0.539   5.440   0.048  0.00  0.00    -0.085 HD
ENDROOT
BRANCH   1   4
ATOM      4  C   UNL     1      -1.490   3.616   0.036  0.00  0.00    -0.067 C 
ATOM      5  C   UNL     1      -0.773   3.123  -1.223  0.00  0.00    -0.009 C 
ATOM      6  C   UNL     1      -0.753   1.593  -1.232  0.00  0.00    -0.012 C 
ATOM      7  C   UNL     1      -0.013   1.086   0.008  0.00  0.00    +0.007 C 
ATOM      8  C   UNL     1      -0.729   1.579   1.267  0.00  0.00    -0.012 C 
ATOM      9  C   UNL     1      -0.750   3.109   1.275  0.00  0.00    -0.009 C 
ATOM     10  C   UNL     1      -2.164   1.050   1.278  0.00  0.00    +0.007 C 
ATOM     11  C   UNL     1      -2.904   1.556   0.038  0.00  0.00    -0.012 C 
ATOM     12  C   UNL     1      -2.188   1.063  -1.221  0.00  0.00    +0.007 C 
ATOM     13  C   UNL     1      -2.925   3.086   0.047  0.00  0.00    -0.009 C 
ENDBRANCH   1   4
BRANCH   1  14
ATOM     14  C   UNL     1      -2.214   5.608  -1.135  0.00  0.00    -0.042 C 
BRANCH  14  19
ATOM     15  C   UNL     1      -1.093   9.210  -1.452  0.00  0.00    +0.162 A 
ATOM     16  C   UNL     1      -2.220   9.884  -1.010  0.00  0.00    +0.049 A 
ATOM     17  C   UNL     1      -3.338   9.175  -0.611  0.00  0.00    +0.004 A 
ATOM     18  C   UNL     1      -3.335   7.793  -0.652  0.00  0.00    +0.005 A 
ATOM     19  C   UNL     1      -2.214   7.115  -1.091  0.00  0.00    -0.019 A 
ATOM     20  C   UNL     1      -1.088   7.819  -1.488  0.00  0.00    +0.163 A 
BRANCH  15  22
ATOM     21  C   UNL     1      -0.068  11.331  -1.776  0.00  0.00    +0.277 C 
ATOM     22  O   UNL     1       0.007   9.906  -1.845  0.00  0.00    -0.491 OA
ENDBRANCH  15  22
BRANCH  20  23
ATOM     23  O   UNL     1       0.017   7.152  -1.916  0.00  0.00    -0.491 OA
ATOM     24  C   UNL     1       0.103   6.869  -3.314  0.00  0.00    +0.277 C 
ENDBRANCH  20  23
ENDBRANCH  14  19
ENDBRANCH   1  14
TORSDOF 5
