REMARK  Name = ZINC13152784
REMARK  8 active torsions:
REMARK  status: ('A' for Active; 'I' for Inactive)
REMARK    1  A    between atoms: C_1  and  C_2
REMARK    2  A    between atoms: C_2  and  O_3
REMARK    3  A    between atoms: O_3  and  C_4
REMARK    4  A    between atoms: C_4  and  C_6
REMARK    5  A    between atoms: C_7  and  N_29
REMARK    6  A    between atoms: C_23  and  C_26
REMARK    7  A    between atoms: C_26  and  C_27
REMARK    8  A    between atoms: C_26  and  C_28
REMARK                            x       y       z     vdW  Elec       q    Type
REMARK                         _______ _______ _______ _____ _____    ______ ____
ROOT
ATOM      1  C   UNL     1       1.354  -2.360   2.530  0.00  0.00    +0.119 A 
ATOM      2  C   UNL     1       1.674  -3.684   2.752  0.00  0.00    +0.055 A 
ATOM      3  C   UNL     1       2.450  -4.015   3.937  0.00  0.00    +0.031 A 
ATOM      4  C   UNL     1       2.894  -5.293   4.373  0.00  0.00    -0.025 A 
ATOM      5  C   UNL     1       3.619  -5.395   5.515  0.00  0.00    +0.020 A 
ATOM      6  C   UNL     1       3.916  -4.246   6.261  0.00  0.00    +0.105 A 
ATOM      7  N   UNL     1       3.499  -3.057   5.858  0.00  0.00    -0.337 N 
ATOM      8  C   UNL     1       2.799  -2.917   4.752  0.00  0.00    +0.089 A 
ATOM      9  S   UNL     1       2.098  -1.518   3.913  0.00  0.00    -0.062 S 
ATOM     10  N   UNL     1       4.652  -4.357   7.431  0.00  0.00    -0.312 N 
ATOM     11  C   UNL     1       6.120  -4.248   7.416  0.00  0.00    +0.134 C 
ATOM     12  C   UNL     1       6.540  -3.230   8.481  0.00  0.00    +0.178 C 
ATOM     13  O   UNL     1       5.943  -3.583   9.731  0.00  0.00    -0.377 OA
ATOM     14  C   UNL     1       4.514  -3.551   9.726  0.00  0.00    +0.178 C 
ATOM     15  C   UNL     1       3.989  -4.580   8.725  0.00  0.00    +0.134 C 
ATOM     16  C   UNL     1       4.127  -6.726   6.009  0.00  0.00    +0.199 C 
ATOM     17  O   UNL     1       3.434  -7.791   5.358  0.00  0.00    -0.371 OA
ATOM     18  C   UNL     1       3.433  -7.675   3.931  0.00  0.00    +0.126 C 
ATOM     19  C   UNL     1       2.537  -6.497   3.543  0.00  0.00    +0.068 C 
ATOM     20  H   UNL     1       3.714  -2.273   6.388  0.00  0.00    +0.168 HD
ENDROOT
BRANCH  18  21
ATOM     21  C   UNL     1       2.890  -8.963   3.309  0.00  0.00    +0.012 C 
ATOM     22  C   UNL     1       3.775 -10.141   3.722  0.00  0.00    +0.010 C 
ATOM     23  C   UNL     1       1.461  -9.203   3.800  0.00  0.00    +0.010 C 
ENDBRANCH  18  21
BRANCH   2  24
ATOM     24  N   UNL     1       1.267  -4.673   1.869  0.00  0.00    -0.356 N 
ATOM     25  H   UNL     1       1.110  -4.456   0.937  0.00  0.00    +0.142 HD
ATOM     26  H   UNL     1       1.139  -5.581   2.184  0.00  0.00    +0.142 HD
ENDBRANCH   2  24
BRANCH   1  27
ATOM     27  C   UNL     1       0.618  -1.805   1.459  0.00  0.00    +0.348 C 
ATOM     28  O   UNL     1       0.174  -2.528   0.586  0.00  0.00    -0.244 OA
BRANCH  27  29
ATOM     29  O   UNL     1       0.407  -0.473   1.404  0.00  0.00    -0.461 OA
BRANCH  29  31
ATOM     30  C   UNL     1      -0.480   1.540   0.403  0.00  0.00    +0.048 C 
ATOM     31  C   UNL     1      -0.346   0.020   0.294  0.00  0.00    +0.229 C 
ENDBRANCH  29  31
ENDBRANCH  27  29
ENDBRANCH   1  27
TORSDOF 5
