REMARK  Name = ZINC67624758
REMARK  13 active torsions:
REMARK  status: ('A' for Active; 'I' for Inactive)
REMARK    1  A    between atoms: C_1  and  C_2
REMARK    2  A    between atoms: C_2  and  C_3
REMARK    3  A    between atoms: C_2  and  C_4
REMARK    4  A    between atoms: C_4  and  C_5
REMARK    5  A    between atoms: C_5  and  C_7
REMARK    6  A    between atoms: C_5  and  N_11
REMARK    7  A    between atoms: C_7  and  N_8
REMARK    8  A    between atoms: N_8  and  C_9
REMARK    9  A    between atoms: N_8  and  C_10
REMARK   10  A    between atoms: N_14  and  N_15
REMARK   11  A    between atoms: C_16  and  C_18
REMARK   12  A    between atoms: C_23  and  O_24
REMARK   13  A    between atoms: O_24  and  C_25
REMARK                            x       y       z     vdW  Elec       q    Type
REMARK                         _______ _______ _______ _____ _____    ______ ____
ROOT
ATOM      1  N   UNL     1       2.869  -0.986  -0.087  0.00  0.00    -0.297 N 
ATOM      2  C   UNL     1       2.745  -0.633   1.208  0.00  0.00    +0.316 C 
ATOM      3  O   UNL     1       2.057   0.322   1.514  0.00  0.00    -0.251 OA
ATOM      4  N   UNL     1       3.383  -1.338   2.163  0.00  0.00    -0.218 N 
ATOM      5  H   UNL     1       3.418  -1.747  -0.332  0.00  0.00    +0.150 HD
ATOM      6  H   UNL     1       3.293  -1.084   3.095  0.00  0.00    +0.174 HD
ENDROOT
BRANCH   4   7
ATOM      7  N   UNL     1       4.175  -2.438   1.810  0.00  0.00    -0.229 N 
ATOM      8  C   UNL     1       4.813  -3.143   2.765  0.00  0.00    +0.264 C 
ATOM      9  O   UNL     1       4.700  -2.825   3.933  0.00  0.00    -0.269 OA
ATOM     10  H   UNL     1       4.265  -2.692   0.878  0.00  0.00    +0.173 HD
BRANCH   8  11
ATOM     11  C   UNL     1       5.647  -4.302   2.393  0.00  0.00    +0.080 A 
ATOM     12  C   UNL     1       5.784  -4.668   1.052  0.00  0.00    +0.017 A 
ATOM     13  C   UNL     1       6.565  -5.751   0.711  0.00  0.00    +0.001 A 
ATOM     14  C   UNL     1       7.216  -6.479   1.693  0.00  0.00    +0.004 A 
ATOM     15  C   UNL     1       7.090  -6.129   3.022  0.00  0.00    +0.046 A 
ATOM     16  C   UNL     1       6.312  -5.038   3.383  0.00  0.00    +0.132 A 
BRANCH  16  17
ATOM     17  O   UNL     1       6.192  -4.689   4.688  0.00  0.00    -0.494 OA
ATOM     18  C   UNL     1       6.898  -5.486   5.641  0.00  0.00    +0.277 C 
ENDBRANCH  16  17
ENDBRANCH   8  11
ENDBRANCH   4   7
BRANCH   1  19
ATOM     19  C   UNL     1       2.176  -0.219  -1.125  0.00  0.00    +0.058 C 
BRANCH  19  20
ATOM     20  C   UNL     1       0.902  -0.957  -1.539  0.00  0.00    +0.023 C 
BRANCH  20  22
ATOM     21  C   UNL     1      -0.517   0.415  -0.008  0.00  0.00    +0.007 C 
ATOM     22  C   UNL     1      -0.067  -1.005  -0.356  0.00  0.00    -0.016 C 
ATOM     23  C   UNL     1      -1.287  -1.849  -0.730  0.00  0.00    +0.007 C 
ENDBRANCH  20  22
ENDBRANCH  19  20
BRANCH  19  24
ATOM     24  C   UNL     1       3.092  -0.062  -2.341  0.00  0.00    -0.057 C 
BRANCH  24  25
ATOM     25  N   UNL     1       4.346   0.583  -1.929  0.00  0.00    +0.377 N 
ATOM     26  C   UNL     1       5.271   0.628  -3.069  0.00  0.00    -0.097 C 
ATOM     27  C   UNL     1       4.066   1.950  -1.471  0.00  0.00    -0.097 C 
ATOM     28  H   UNL     1       4.764   0.056  -1.177  0.00  0.00    -0.083 HD
ENDBRANCH  24  25
ENDBRANCH  19  24
ENDBRANCH   1  19
TORSDOF 8
