REMARK  Name = ZINC34897281
REMARK  8 active torsions:
REMARK  status: ('A' for Active; 'I' for Inactive)
REMARK    1  A    between atoms: C_1  and  C_2
REMARK    2  A    between atoms: C_2  and  O_3
REMARK    3  A    between atoms: O_3  and  C_4
REMARK    4  A    between atoms: C_4  and  C_5
REMARK    5  A    between atoms: N_7  and  C_13
REMARK    6  A    between atoms: C_8  and  C_12
REMARK    7  A    between atoms: C_28  and  C_37
REMARK    8  A    between atoms: C_33  and  C_36
REMARK                            x       y       z     vdW  Elec       q    Type
REMARK                         _______ _______ _______ _____ _____    ______ ____
ROOT
ATOM      1  C   UNL     1       3.313  -0.890  -5.410  0.00  0.00    +0.155 C 
ATOM      2  C   UNL     1       4.505  -0.384  -4.572  0.00  0.00    +0.037 C 
ATOM      3  C   UNL     1       4.381   1.163  -4.537  0.00  0.00    +0.008 C 
ATOM      4  C   UNL     1       3.763   1.575  -3.208  0.00  0.00    -0.003 C 
ATOM      5  C   UNL     1       2.686   0.602  -2.741  0.00  0.00    +0.004 C 
ATOM      6  C   UNL     1       2.317   0.963  -1.297  0.00  0.00    +0.004 C 
ATOM      7  C   UNL     1       1.721   2.367  -1.252  0.00  0.00    -0.005 C 
ATOM      8  C   UNL     1       0.314   2.336  -1.842  0.00  0.00    +0.004 C 
ATOM      9  C   UNL     1      -0.322   3.719  -1.684  0.00  0.00    +0.000 C 
ATOM     10  C   UNL     1       0.502   4.718  -2.496  0.00  0.00    +0.001 C 
ATOM     11  C   UNL     1       1.937   4.768  -2.003  0.00  0.00    +0.007 C 
ATOM     12  C   UNL     1       2.620   3.404  -1.893  0.00  0.00    -0.026 C 
ATOM     13  C   UNL     1       3.201   2.990  -3.240  0.00  0.00    -0.001 C 
ATOM     14  C   UNL     1       2.175   3.133  -4.359  0.00  0.00    +0.005 C 
ATOM     15  C   UNL     1       2.841   2.833  -5.702  0.00  0.00    +0.015 C 
ATOM     16  C   UNL     1       3.474   1.468  -5.737  0.00  0.00    +0.031 C 
ATOM     17  C   UNL     1       2.478   0.331  -5.753  0.00  0.00    +0.162 C 
ATOM     18  O   UNL     1       1.301   0.382  -5.981  0.00  0.00    -0.295 OA
ATOM     19  C   UNL     1       4.321   1.372  -7.016  0.00  0.00    +0.019 C 
ATOM     20  C   UNL     1       3.823   3.621  -0.932  0.00  0.00    +0.012 C 
ENDROOT
BRANCH   1  23
ATOM     21  C   UNL     1       0.663  -2.305  -3.307  0.00  0.00    +0.036 A 
ATOM     22  C   UNL     1       1.266  -1.524  -4.230  0.00  0.00    +0.097 A 
ATOM     23  N   UNL     1       2.519  -1.864  -4.663  0.00  0.00    -0.325 N 
ATOM     24  C   UNL     1       3.031  -3.092  -4.409  0.00  0.00    +0.109 A 
ATOM     25  N   UNL     1       2.499  -3.883  -3.520  0.00  0.00    -0.217 NA
ATOM     26  C   UNL     1       1.402  -3.480  -2.821  0.00  0.00    +0.133 A 
ATOM     27  N   UNL     1       1.009  -4.128  -1.741  0.00  0.00    -0.383 N 
ATOM     28  C   UNL     1       4.245  -3.555  -5.173  0.00  0.00    +0.086 C 
ATOM     29  H   UNL     1       0.223  -3.831  -1.256  0.00  0.00    +0.157 HD
ATOM     30  H   UNL     1       1.506  -4.902  -1.432  0.00  0.00    +0.157 HD
BRANCH  21  31
ATOM     31  C   UNL     1      -0.714  -1.981  -2.789  0.00  0.00    +0.200 C 
BRANCH  31  32
ATOM     32  O   UNL     1      -1.162  -0.752  -3.365  0.00  0.00    -0.375 OA
BRANCH  32  34
ATOM     33  C   UNL     1      -2.868   0.936  -3.647  0.00  0.00    +0.034 C 
ATOM     34  C   UNL     1      -2.423  -0.302  -2.865  0.00  0.00    +0.157 C 
ENDBRANCH  32  34
ENDBRANCH  31  32
ENDBRANCH  21  31
ENDBRANCH   1  23
TORSDOF 4
