REMARK  Name = ZINC02530783
REMARK  8 active torsions:
REMARK  status: ('A' for Active; 'I' for Inactive)
REMARK    1  A    between atoms: C_1  and  C_2
REMARK    2  A    between atoms: C_2  and  S_3
REMARK    3  A    between atoms: S_3  and  C_4
REMARK    4  A    between atoms: C_7  and  C_12
REMARK    5  A    between atoms: N_10  and  N_11
REMARK    6  A    between atoms: C_12  and  C_13
REMARK    7  A    between atoms: C_12  and  C_14
REMARK    8  A    between atoms: C_12  and  C_15
REMARK                            x       y       z     vdW  Elec       q    Type
REMARK                         _______ _______ _______ _____ _____    ______ ____
ROOT
ATOM      1  C   UNL     1       1.183  -0.685  -0.019  0.00  0.00    +0.210 A 
ATOM      2  N   UNL     1       1.194  -2.007  -0.021  0.00  0.00    -0.122 NA
ATOM      3  N   UNL     1       0.110  -2.697  -0.014  0.00  0.00    -0.146 NA
ATOM      4  C   UNL     1      -1.069  -2.120   0.000  0.00  0.00    +0.135 A 
ATOM      5  C   UNL     1      -1.151  -0.711   0.009  0.00  0.00    +0.294 A 
ATOM      6  O   UNL     1      -2.232  -0.147   0.023  0.00  0.00    -0.264 OA
ATOM      7  N   UNL     1       0.002  -0.004   0.002  0.00  0.00    -0.206 N 
ENDROOT
BRANCH   4   8
ATOM      8  C   UNL     1      -2.324  -2.955   0.007  0.00  0.00    +0.012 C 
ATOM      9  C   UNL     1      -1.949  -4.439  -0.005  0.00  0.00    +0.017 C 
ATOM     10  C   UNL     1      -3.136  -2.644   1.266  0.00  0.00    +0.017 C 
ATOM     11  C   UNL     1      -3.159  -2.630  -1.232  0.00  0.00    +0.017 C 
ENDBRANCH   4   8
BRANCH   7  12
ATOM     12  N   UNL     1      -0.016   1.362   0.009  0.00  0.00    -0.293 N 
ATOM     13  H   UNL     1       0.920   1.736   0.003  0.00  0.00    +0.163 HD
ATOM     14  H   UNL     1      -0.555   1.720  -0.765  0.00  0.00    +0.163 HD
ENDBRANCH   7  12
BRANCH   1  15
ATOM     15  S   UNL     1       2.705   0.203  -0.035  0.00  0.00    -0.085 S 
BRANCH  15  17
ATOM     16  C   UNL     1       5.305  -0.635  -0.077  0.00  0.00    +0.016 C 
ATOM     17  C   UNL     1       3.874  -1.178  -0.060  0.00  0.00    +0.074 C 
ENDBRANCH  15  17
ENDBRANCH   1  15
TORSDOF 4
