REMARK  Name = ZINC63492702
REMARK  5 active torsions:
REMARK  status: ('A' for Active; 'I' for Inactive)
REMARK    1  A    between atoms: C_1  and  C_2
REMARK    2  A    between atoms: C_2  and  C_3
REMARK    3  A    between atoms: C_3  and  C_5
REMARK    4  A    between atoms: C_3  and  N_6
REMARK    5  A    between atoms: C_9  and  C_15
REMARK                            x       y       z     vdW  Elec       q    Type
REMARK                         _______ _______ _______ _____ _____    ______ ____
ROOT
ATOM      1  C   UNL     1      -5.005   1.598  -2.050  0.00  0.00    -0.003 C 
ATOM      2  C   UNL     1      -6.072   0.727  -1.383  0.00  0.00    +0.097 C 
ATOM      3  C   UNL     1      -5.578   0.463   0.035  0.00  0.00    -0.041 C 
ATOM      4  C   UNL     1      -5.590  -0.853   0.197  0.00  0.00    +0.000 A 
ATOM      5  C   UNL     1      -5.310  -1.701   1.367  0.00  0.00    +0.030 A 
ATOM      6  C   UNL     1      -5.405  -3.043   1.171  0.00  0.00    +0.042 A 
ATOM      7  C   UNL     1      -5.748  -3.620  -0.058  0.00  0.00    +0.022 A 
ATOM      8  C   UNL     1      -6.028  -2.916  -1.183  0.00  0.00    +0.027 A 
ATOM      9  C   UNL     1      -5.966  -1.494  -1.101  0.00  0.00    +0.043 A 
ATOM     10  N   UNL     1      -6.213  -0.581  -2.019  0.00  0.00    -0.379 N 
ATOM     11 CL   UNL     1      -5.085  -4.096   2.514  0.00  0.00    -0.084 Cl
ATOM     12  C   UNL     1      -5.100   1.584   0.925  0.00  0.00    +0.014 C 
ATOM     13  C   UNL     1      -4.143   2.432   0.067  0.00  0.00    -0.077 C 
ATOM     14  N   UNL     1      -4.778   2.782  -1.207  0.00  0.00    +0.386 N 
ATOM     15  H   UNL     1      -4.185   3.430  -1.704  0.00  0.00    -0.085 HD
ATOM     16  H   UNL     1      -6.443  -0.739  -2.948  0.00  0.00    +0.160 HD
ATOM     17  H   UNL     1      -5.664   3.227  -1.021  0.00  0.00    -0.085 HD
ENDROOT
BRANCH   1  21
ATOM     18  N   UNL     1      -1.962  -0.034  -3.540  0.00  0.00    -0.285 N 
ATOM     19  C   UNL     1      -3.108   0.667  -3.441  0.00  0.00    +0.260 A 
ATOM     20  O   UNL     1      -3.609   1.169  -4.433  0.00  0.00    -0.267 OA
ATOM     21  C   UNL     1      -3.724   0.817  -2.185  0.00  0.00    +0.070 A 
ATOM     22  C   UNL     1      -3.143   0.247  -1.091  0.00  0.00    +0.257 A 
ATOM     23  N   UNL     1      -1.977  -0.459  -1.237  0.00  0.00    -0.302 N 
ATOM     24  C   UNL     1      -1.408  -0.595  -2.449  0.00  0.00    +0.164 A 
ATOM     25  S   UNL     1       0.044  -1.487  -2.605  0.00  0.00    -0.013 S 
ATOM     26  O   UNL     1      -3.713   0.376   0.126  0.00  0.00    -0.267 OA
ATOM     27  H   UNL     1      -1.560  -0.867  -0.462  0.00  0.00    +0.171 HD
BRANCH  18  28
ATOM     28  C   UNL     1      -1.317  -0.194  -4.846  0.00  0.00    +0.089 C 
ATOM     29  C   UNL     1      -2.293  -0.859  -5.819  0.00  0.00    +0.031 C 
BRANCH  28  31
ATOM     30  C   UNL     1       0.163   1.787  -4.486  0.00  0.00    +0.006 C 
ATOM     31  C   UNL     1      -0.915   1.180  -5.387  0.00  0.00    +0.021 C 
ENDBRANCH  28  31
ENDBRANCH  18  28
ENDBRANCH   1  21
TORSDOF 3
