REMARK  Name = ZINC61695238
REMARK  9 active torsions:
REMARK  status: ('A' for Active; 'I' for Inactive)
REMARK    1  A    between atoms: C_1  and  C_2
REMARK    2  A    between atoms: C_2  and  C_3
REMARK    3  A    between atoms: C_3  and  N_4
REMARK    4  A    between atoms: N_4  and  C_5
REMARK    5  A    between atoms: C_5  and  C_7
REMARK    6  A    between atoms: C_5  and  C_8
REMARK    7  A    between atoms: C_11  and  N_15
REMARK    8  A    between atoms: C_19  and  C_22
REMARK    9  A    between atoms: C_22  and  C_23
REMARK                            x       y       z     vdW  Elec       q    Type
REMARK                         _______ _______ _______ _____ _____    ______ ____
ROOT
ATOM      1  C   UNL     1      -2.774  -4.012  -0.117  0.00  0.00    -0.060 A 
ATOM      2  C   UNL     1      -1.822  -4.753   0.559  0.00  0.00    +0.004 A 
ATOM      3  C   UNL     1      -1.803  -6.129   0.440  0.00  0.00    +0.025 A 
ATOM      4  C   UNL     1      -2.741  -6.769  -0.358  0.00  0.00    +0.048 A 
ATOM      5  C   UNL     1      -3.698  -6.022  -1.036  0.00  0.00    +0.062 A 
ATOM      6  C   UNL     1      -3.714  -4.646  -0.909  0.00  0.00    +0.023 A 
ATOM      7 CL   UNL     1      -4.874  -6.816  -2.035  0.00  0.00    -0.082 Cl
ENDROOT
BRANCH   4   8
ATOM      8  N   UNL     1      -2.724  -8.161  -0.480  0.00  0.00    -0.324 N 
ATOM      9  C   UNL     1      -1.934  -8.819  -1.533  0.00  0.00    +0.133 C 
ATOM     10  C   UNL     1      -1.077  -9.911  -0.882  0.00  0.00    +0.179 C 
ATOM     11  O   UNL     1      -1.915 -10.759  -0.093  0.00  0.00    -0.373 OA
ATOM     12  C   UNL     1      -2.563 -10.094   0.994  0.00  0.00    +0.135 C 
ATOM     13  C   UNL     1      -3.491  -9.012   0.443  0.00  0.00    +0.136 C 
BRANCH  12  14
ATOM     14  C   UNL     1      -3.377 -11.108   1.801  0.00  0.00    +0.030 C 
ATOM     15  C   UNL     1      -2.431 -12.120   2.451  0.00  0.00    +0.006 C 
ENDBRANCH  12  14
ENDBRANCH   4   8
BRANCH   1  16
ATOM     16  C   UNL     1      -2.792  -2.511   0.015  0.00  0.00    -0.044 C 
ATOM     17  C   UNL     1      -3.469  -2.123   1.331  0.00  0.00    -0.009 C 
BRANCH  16  18
ATOM     18  N   UNL     1      -1.413  -2.002   0.005  0.00  0.00    +0.383 N 
ATOM     19  H   UNL     1      -0.941  -2.328  -0.825  0.00  0.00    -0.085 HD
ATOM     20  H   UNL     1      -0.925  -2.337   0.822  0.00  0.00    -0.085 HD
BRANCH  18  21
ATOM     21  C   UNL     1      -1.433  -0.534   0.013  0.00  0.00    -0.082 C 
BRANCH  21  23
ATOM     22  C   UNL     1      -0.019   1.526   0.010  0.00  0.00    +0.002 C 
ATOM     23  C   UNL     1       0.002  -0.004   0.002  0.00  0.00    -0.022 C 
ENDBRANCH  21  23
ENDBRANCH  18  21
ENDBRANCH  16  18
ENDBRANCH   1  16
TORSDOF 6
