REMARK  Name = ZINC38752917
REMARK  12 active torsions:
REMARK  status: ('A' for Active; 'I' for Inactive)
REMARK    1  A    between atoms: C_1  and  C_2
REMARK    2  A    between atoms: C_2  and  C_3
REMARK    3  A    between atoms: C_3  and  C_4
REMARK    4  A    between atoms: C_4  and  N_5
REMARK    5  A    between atoms: C_6  and  O_40
REMARK    6  A    between atoms: C_8  and  C_15
REMARK    7  A    between atoms: C_21  and  O_37
REMARK    8  A    between atoms: N_28  and  C_33
REMARK    9  A    between atoms: C_33  and  C_34
REMARK   10  A    between atoms: C_34  and  C_35
REMARK   11  A    between atoms: C_35  and  C_36
REMARK   12  A    between atoms: O_37  and  C_38
REMARK                            x       y       z     vdW  Elec       q    Type
REMARK                         _______ _______ _______ _____ _____    ______ ____
ROOT
ATOM      1  C   UNL     1       1.803  -0.874  -5.123  0.00  0.00    +0.059 C 
ATOM      2  C   UNL     1       0.416  -0.282  -5.131  0.00  0.00    +0.005 A 
ATOM      3  C   UNL     1      -0.547  -0.846  -4.307  0.00  0.00    +0.027 A 
ATOM      4  C   UNL     1      -1.829  -0.334  -4.276  0.00  0.00    +0.045 A 
ATOM      5  C   UNL     1      -2.162   0.750  -5.069  0.00  0.00    +0.069 A 
ATOM      6  C   UNL     1      -1.208   1.317  -5.896  0.00  0.00    +0.164 A 
ATOM      7  C   UNL     1       0.087   0.797  -5.930  0.00  0.00    +0.175 A 
ATOM      8  O   UNL     1       0.992   1.373  -6.771  0.00  0.00    -0.439 OA
ATOM      9  C   UNL     1       2.279   0.992  -6.647  0.00  0.00    +0.202 C 
ATOM     10  N   UNL     1       3.238   1.861  -6.732  0.00  0.00    -0.131 NA
ATOM     11  C   UNL     1       4.530   1.528  -6.600  0.00  0.00    +0.335 C 
ATOM     12  O   UNL     1       5.379   2.393  -6.706  0.00  0.00    -0.250 OA
ATOM     13  N   UNL     1       4.910   0.265  -6.353  0.00  0.00    -0.224 N 
ATOM     14  C   UNL     1       4.012  -0.727  -6.247  0.00  0.00    +0.235 C 
ATOM     15  O   UNL     1       4.398  -1.853  -6.017  0.00  0.00    -0.274 OA
ATOM     16  C   UNL     1       2.541  -0.475  -6.406  0.00  0.00    +0.167 C 
ATOM     17 CL   UNL     1      -3.025  -1.051  -3.241  0.00  0.00    -0.083 Cl
ENDROOT
BRANCH   1  20
ATOM     18  N   UNL     1       0.527  -2.732  -7.163  0.00  0.00    -0.259 N 
ATOM     19  C   UNL     1       1.783  -2.988  -6.456  0.00  0.00    +0.218 C 
ATOM     20  C   UNL     1       1.706  -2.399  -5.046  0.00  0.00    +0.131 C 
ATOM     21  C   UNL     1       0.392  -2.790  -4.417  0.00  0.00    +0.228 C 
ATOM     22  O   UNL     1       0.330  -3.003  -3.225  0.00  0.00    -0.275 OA
ATOM     23  N   UNL     1      -0.712  -2.901  -5.179  0.00  0.00    -0.240 N 
ATOM     24  C   UNL     1      -0.648  -2.750  -6.512  0.00  0.00    +0.310 C 
ATOM     25  O   UNL     1      -1.679  -2.632  -7.145  0.00  0.00    -0.252 OA
ATOM     26  H   UNL     1      -1.565  -3.089  -4.759  0.00  0.00    +0.159 HD
BRANCH  19  27
ATOM     27  O   UNL     1       2.862  -2.380  -7.168  0.00  0.00    -0.373 OA
ATOM     28  H   UNL     1       2.926  -2.652  -8.094  0.00  0.00    +0.212 HD
ENDBRANCH  19  27
BRANCH  18  29
ATOM     29  C   UNL     1       0.552  -2.446  -8.600  0.00  0.00    +0.112 C 
BRANCH  29  30
ATOM     30  C   UNL     1       0.500  -0.932  -8.819  0.00  0.00    +0.019 C 
BRANCH  30  32
ATOM     31  C   UNL     1       0.452   0.873 -10.546  0.00  0.00    +0.004 C 
ATOM     32  C   UNL     1       0.378  -0.638 -10.316  0.00  0.00    -0.002 C 
ENDBRANCH  30  32
ENDBRANCH  29  30
ENDBRANCH  18  29
ENDBRANCH   1  20
BRANCH   6  33
ATOM     33  O   UNL     1      -1.532   2.382  -6.676  0.00  0.00    -0.491 OA
ATOM     34  C   UNL     1      -2.840   2.933  -6.511  0.00  0.00    +0.277 C 
ENDBRANCH   6  33
BRANCH  13  35
ATOM     35  C   UNL     1       6.335  -0.038  -6.196  0.00  0.00    +0.118 C 
BRANCH  35  36
ATOM     36  C   UNL     1       6.728   0.102  -4.724  0.00  0.00    +0.019 C 
BRANCH  36  37
ATOM     37  C   UNL     1       8.216  -0.214  -4.560  0.00  0.00    -0.002 C 
ATOM     38  C   UNL     1       8.608  -0.073  -3.088  0.00  0.00    +0.004 C 
ENDBRANCH  36  37
ENDBRANCH  35  36
ENDBRANCH  13  35
TORSDOF 9
