REMARK  Name = ZINC37818646
REMARK  9 active torsions:
REMARK  status: ('A' for Active; 'I' for Inactive)
REMARK    1  A    between atoms: C_1  and  N_2
REMARK    2  A    between atoms: C_4  and  C_11
REMARK    3  A    between atoms: N_7  and  C_10
REMARK    4  A    between atoms: C_11  and  N_12
REMARK    5  A    between atoms: N_12  and  C_13
REMARK    6  A    between atoms: C_14  and  C_16
REMARK    7  A    between atoms: C_16  and  C_18
REMARK    8  A    between atoms: C_16  and  N_22
REMARK    9  A    between atoms: C_18  and  C_19
REMARK                            x       y       z     vdW  Elec       q    Type
REMARK                         _______ _______ _______ _____ _____    ______ ____
ROOT
ATOM      1  N   UNL     1      -2.810  -3.177  -1.378  0.00  0.00    -0.301 N 
ATOM      2  C   UNL     1      -2.336  -4.433  -1.965  0.00  0.00    +0.132 C 
ATOM      3  C   UNL     1      -3.580  -2.343  -2.103  0.00  0.00    +0.202 C 
ATOM      4  O   UNL     1      -3.973  -1.303  -1.617  0.00  0.00    -0.277 OA
ENDROOT
BRANCH   1   5
ATOM      5  C   UNL     1      -2.448  -2.829  -0.002  0.00  0.00    +0.149 C 
BRANCH   5   9
ATOM      6  C   UNL     1      -0.018   1.461   0.010  0.00  0.00    +0.153 C 
ATOM      7  N   UNL     1       0.002  -0.004   0.002  0.00  0.00    -0.303 N 
ATOM      8  C   UNL     1      -1.177  -0.698   0.004  0.00  0.00    +0.100 A 
ATOM      9  C   UNL     1      -1.159  -2.048  -0.004  0.00  0.00    +0.051 A 
ATOM     10  C   UNL     1       0.087  -2.720  -0.014  0.00  0.00    +0.261 A 
ATOM     11  O   UNL     1       0.129  -3.937  -0.022  0.00  0.00    -0.267 OA
ATOM     12  N   UNL     1       1.227  -2.000  -0.016  0.00  0.00    -0.264 N 
ATOM     13  C   UNL     1       1.180  -0.654  -0.013  0.00  0.00    +0.331 A 
ATOM     14  O   UNL     1       2.216  -0.018  -0.019  0.00  0.00    -0.246 OA
ATOM     15  C   UNL     1       2.522  -2.684  -0.026  0.00  0.00    +0.157 C 
ENDBRANCH   5   9
ENDBRANCH   1   5
BRANCH   3  16
ATOM     16  C   UNL     1      -3.953  -2.701  -3.519  0.00  0.00    +0.022 C 
BRANCH  16  17
ATOM     17  N   UNL     1      -4.359  -1.487  -4.240  0.00  0.00    +0.386 N 
ATOM     18  H   UNL     1      -3.593  -0.830  -4.250  0.00  0.00    -0.089 HD
ATOM     19  H   UNL     1      -4.608  -1.727  -5.188  0.00  0.00    -0.089 HD
ATOM     20  H   UNL     1      -5.153  -1.071  -3.778  0.00  0.00    -0.089 HD
ENDBRANCH  16  17
BRANCH  16  21
ATOM     21  C   UNL     1      -5.114  -3.697  -3.504  0.00  0.00    +0.088 C 
BRANCH  21  22
ATOM     22  C   UNL     1      -5.406  -4.149  -4.912  0.00  0.00    +0.209 C 
ATOM     23  O   UNL     1      -4.751  -3.717  -5.836  0.00  0.00    -0.276 OA
ATOM     24  N   UNL     1      -6.396  -5.034  -5.144  0.00  0.00    -0.329 N 
ATOM     25  H   UNL     1      -6.921  -5.380  -4.404  0.00  0.00    +0.145 HD
ATOM     26  H   UNL     1      -6.584  -5.325  -6.050  0.00  0.00    +0.145 HD
ENDBRANCH  21  22
ENDBRANCH  16  21
ENDBRANCH   3  16
TORSDOF 6
