REMARK  Name = ZINC39969366
REMARK  6 active torsions:
REMARK  status: ('A' for Active; 'I' for Inactive)
REMARK    1  A    between atoms: C_2  and  C_3
REMARK    2  A    between atoms: C_3  and  N_4
REMARK    3  A    between atoms: C_5  and  C_25
REMARK    4  A    between atoms: C_9  and  S_11
REMARK    5  A    between atoms: S_11  and  C_12
REMARK    6  A    between atoms: C_12  and  C_13
REMARK                            x       y       z     vdW  Elec       q    Type
REMARK                         _______ _______ _______ _____ _____    ______ ____
ROOT
ATOM      1  N   UNL     1      -1.478  -1.821  -1.014  0.00  0.00    +0.415 N 
ATOM      2  C   UNL     1      -2.788  -2.512  -1.024  0.00  0.00    +0.086 C 
ATOM      3  N   UNL     1      -2.463  -3.904  -1.432  0.00  0.00    -0.264 NA
ATOM      4  N   UNL     1      -1.183  -4.159  -0.754  0.00  0.00    -0.261 NA
ATOM      5  C   UNL     1      -0.454  -2.873  -0.843  0.00  0.00    +0.078 C 
ATOM      6  H   UNL     1      -3.174  -4.548  -1.118  0.00  0.00    +0.139 HD
ATOM      7  H   UNL     1      -1.330  -4.425   0.208  0.00  0.00    +0.140 HD
ATOM      8  H   UNL     1      -1.334  -1.337  -1.888  0.00  0.00    -0.075 HD
ENDROOT
BRANCH   2   9
ATOM      9  C   UNL     1      -3.715  -1.869  -2.023  0.00  0.00    +0.106 A 
ATOM     10  C   UNL     1      -4.696  -2.493  -2.700  0.00  0.00    +0.044 A 
ATOM     11  C   UNL     1      -5.310  -1.519  -3.521  0.00  0.00    +0.041 A 
ATOM     12  C   UNL     1      -4.668  -0.359  -3.297  0.00  0.00    +0.195 A 
ATOM     13  O   UNL     1      -3.706  -0.576  -2.384  0.00  0.00    -0.468 OA
ENDBRANCH   2   9
BRANCH   1  14
ATOM     14  C   UNL     1      -1.417  -0.872   0.105  0.00  0.00    -0.045 C 
BRANCH  14  16
ATOM     15  C   UNL     1      -3.297   0.552   0.737  0.00  0.00    +0.002 C 
ATOM     16  C   UNL     1      -2.374   0.265  -0.148  0.00  0.00    -0.053 C 
ENDBRANCH  14  16
ENDBRANCH   1  14
BRANCH   5  17
ATOM     17  S   UNL     1       0.485  -2.584   0.682  0.00  0.00    -0.152 S 
BRANCH  17  18
ATOM     18  C   UNL     1       1.951  -3.637   0.500  0.00  0.00    +0.143 C 
BRANCH  18  19
ATOM     19  C   UNL     1       2.888  -3.398   1.656  0.00  0.00    +0.120 A 
ATOM     20  N   UNL     1       4.053  -4.096   1.696  0.00  0.00    -0.310 N 
ATOM     21  H   UNL     1       4.260  -4.727   0.989  0.00  0.00    +0.170 HD
ATOM     22  C   UNL     1       4.928  -3.917   2.713  0.00  0.00    +0.259 A 
ATOM     23  O   UNL     1       5.976  -4.534   2.761  0.00  0.00    -0.267 OA
ATOM     24  C   UNL     1       4.564  -2.948   3.757  0.00  0.00    +0.065 A 
ATOM     25  C   UNL     1       5.395  -2.690   4.846  0.00  0.00    +0.015 A 
ATOM     26  C   UNL     1       5.004  -1.772   5.796  0.00  0.00    +0.001 A 
ATOM     27  C   UNL     1       3.792  -1.104   5.675  0.00  0.00    +0.002 A 
ATOM     28  C   UNL     1       2.957  -1.344   4.607  0.00  0.00    +0.028 A 
ATOM     29  C   UNL     1       3.332  -2.270   3.631  0.00  0.00    +0.078 A 
ATOM     30  N   UNL     1       2.542  -2.533   2.560  0.00  0.00    -0.233 NA
ENDBRANCH  18  19
ENDBRANCH  17  18
ENDBRANCH   5  17
TORSDOF 6
