REMARK  Name = ZINC55064461
REMARK  10 active torsions:
REMARK  status: ('A' for Active; 'I' for Inactive)
REMARK    1  A    between atoms: C_1  and  C_2
REMARK    2  A    between atoms: C_2  and  C_3
REMARK    3  A    between atoms: C_3  and  C_5
REMARK    4  A    between atoms: C_3  and  N_6
REMARK    5  A    between atoms: N_9  and  C_12
REMARK    6  A    between atoms: C_12  and  C_14
REMARK    7  A    between atoms: C_12  and  C_16
REMARK    8  A    between atoms: C_14  and  N_15
REMARK    9  A    between atoms: C_18  and  C_22
REMARK   10  A    between atoms: C_20  and  C_21
REMARK                            x       y       z     vdW  Elec       q    Type
REMARK                         _______ _______ _______ _____ _____    ______ ____
ROOT
ATOM      1  C   UNL     1      -1.448   1.082  -6.516  0.00  0.00    +0.070 C 
ENDROOT
BRANCH   1   5
ATOM      2  N   UNL     1       0.019  -0.036  -2.712  0.00  0.00    +0.383 N 
ATOM      3  C   UNL     1       0.396  -0.861  -3.868  0.00  0.00    -0.063 C 
ATOM      4  C   UNL     1      -0.586  -0.612  -5.015  0.00  0.00    +0.066 C 
ATOM      5  N   UNL     1      -0.559   0.812  -5.378  0.00  0.00    -0.301 NA
ATOM      6  C   UNL     1      -0.910   1.652  -4.224  0.00  0.00    +0.066 C 
ATOM      7  C   UNL     1       0.074   1.384  -3.084  0.00  0.00    -0.063 C 
ATOM      8  H   UNL     1      -0.918  -0.272  -2.423  0.00  0.00    -0.081 HD
BRANCH   2   9
ATOM      9  C   UNL     1       0.951  -0.289  -1.605  0.00  0.00    -0.072 C 
ATOM     10  C   UNL     1       2.383  -0.019  -2.072  0.00  0.00    -0.013 C 
BRANCH   9  12
ATOM     11  C   UNL     1      -0.574  -1.990  -0.593  0.00  0.00    +0.002 C 
ATOM     12  C   UNL     1       0.827  -1.747  -1.158  0.00  0.00    -0.019 C 
ENDBRANCH   9  12
ENDBRANCH   2   9
ENDBRANCH   1   5
BRANCH   1  13
ATOM     13  C   UNL     1      -0.964   2.304  -7.253  0.00  0.00    -0.022 A 
ATOM     14  C   UNL     1      -0.065   3.171  -6.660  0.00  0.00    +0.016 A 
ATOM     15  C   UNL     1       0.350   4.261  -7.351  0.00  0.00    -0.013 A 
ATOM     16  S   UNL     1      -0.537   4.084  -8.889  0.00  0.00    -0.098 S 
ATOM     17  C   UNL     1      -1.398   2.566  -8.510  0.00  0.00    -0.008 A 
ATOM     18  C   UNL     1      -2.360   1.781  -9.365  0.00  0.00    +0.052 C 
ATOM     19  C   UNL     1       1.312   5.342  -6.929  0.00  0.00    +0.051 C 
ENDBRANCH   1  13
BRANCH   1  20
ATOM     20  C   UNL     1      -2.870   1.325  -6.005  0.00  0.00    -0.063 C 
BRANCH  20  21
ATOM     21  N   UNL     1      -3.313   0.165  -5.221  0.00  0.00    +0.379 N 
ATOM     22  H   UNL     1      -4.302   0.241  -5.037  0.00  0.00    -0.090 HD
ATOM     23  H   UNL     1      -3.131  -0.682  -5.739  0.00  0.00    -0.090 HD
ATOM     24  H   UNL     1      -2.810   0.138  -4.346  0.00  0.00    -0.090 HD
ENDBRANCH  20  21
ENDBRANCH   1  20
TORSDOF 6
