REMARK  Name = ZINC20578154
REMARK  8 active torsions:
REMARK  status: ('A' for Active; 'I' for Inactive)
REMARK    1  A    between atoms: C_1  and  C_2
REMARK    2  A    between atoms: C_2  and  O_3
REMARK    3  A    between atoms: O_3  and  C_4
REMARK    4  A    between atoms: C_9  and  C_10
REMARK    5  A    between atoms: C_10  and  C_12
REMARK    6  A    between atoms: C_10  and  N_16
REMARK    7  A    between atoms: C_12  and  C_13
REMARK    8  A    between atoms: C_18  and  C_21
REMARK                            x       y       z     vdW  Elec       q    Type
REMARK                         _______ _______ _______ _____ _____    ______ ____
ROOT
ATOM      1  C   UNL     1       1.482   3.371   0.006  0.00  0.00    +0.123 A 
ATOM      2  C   UNL     1       0.372   4.205   0.021  0.00  0.00    +0.053 A 
ATOM      3  C   UNL     1       0.540   5.571   0.029  0.00  0.00    +0.001 A 
ATOM      4  C   UNL     1       1.810   6.133   0.027  0.00  0.00    +0.125 A 
ATOM      5  C   UNL     1       2.919   5.292   0.007  0.00  0.00    +0.051 A 
ATOM      6  C   UNL     1       2.754   3.922   0.003  0.00  0.00    -0.016 A 
ATOM      7  O   UNL     1       1.748   7.494   0.051  0.00  0.00    -0.488 OA
ATOM      8  C   UNL     1       0.439   7.915  -0.369  0.00  0.00    +0.175 C 
ATOM      9  C   UNL     1      -0.453   6.718   0.035  0.00  0.00    +0.083 C 
ATOM     10  C   UNL     1       0.400   8.134  -1.883  0.00  0.00    +0.052 C 
ENDROOT
BRANCH   1  11
ATOM     11  O   UNL     1       1.322   2.020   0.000  0.00  0.00    -0.492 OA
BRANCH  11  13
ATOM     12  C   UNL     1       0.002  -0.004   0.002  0.00  0.00    +0.048 C 
ATOM     13  C   UNL     1      -0.019   1.526   0.010  0.00  0.00    +0.225 C 
ENDBRANCH  11  13
ENDBRANCH   1  11
BRANCH   6  14
ATOM     14  C   UNL     1       3.962   3.021  -0.011  0.00  0.00    -0.032 C 
BRANCH  14  15
ATOM     15  N   UNL     1       5.109   3.730   0.573  0.00  0.00    +0.383 N 
ATOM     16  H   UNL     1       5.990   3.072   0.562  0.00  0.00    -0.089 HD
ATOM     17  H   UNL     1       4.875   4.014   1.609  0.00  0.00    -0.089 HD
ATOM     18  H   UNL     1       5.319   4.635  -0.017  0.00  0.00    -0.089 HD
ENDBRANCH  14  15
BRANCH  14  19
ATOM     19  C   UNL     1       4.287   2.626  -1.453  0.00  0.00    +0.084 C 
BRANCH  19  20
ATOM     20  C   UNL     1       5.417   1.629  -1.459  0.00  0.00    +0.209 C 
ATOM     21  O   UNL     1       5.914   1.270  -0.412  0.00  0.00    -0.276 OA
ATOM     22  N   UNL     1       5.876   1.137  -2.626  0.00  0.00    -0.329 N 
ATOM     23  H   UNL     1       6.701   0.409  -2.630  0.00  0.00    +0.145 HD
ATOM     24  H   UNL     1       5.426   1.463  -3.576  0.00  0.00    +0.145 HD
ENDBRANCH  19  20
ENDBRANCH  14  19
ENDBRANCH   6  14
TORSDOF 6
