REMARK  Name = ZINC50562638
REMARK  6 active torsions:
REMARK  status: ('A' for Active; 'I' for Inactive)
REMARK    1  A    between atoms: C_1  and  C_2
REMARK    2  A    between atoms: C_4  and  C_19
REMARK    3  A    between atoms: C_7  and  O_8
REMARK    4  A    between atoms: O_8  and  C_9
REMARK    5  A    between atoms: C_12  and  N_16
REMARK    6  A    between atoms: C_19  and  N_20
REMARK                            x       y       z     vdW  Elec       q    Type
REMARK                         _______ _______ _______ _____ _____    ______ ____
ROOT
ATOM      1  C   UNL     1       0.428   1.488   0.035  0.00  0.00    +0.047 C 
ATOM      2  C   UNL     1       0.312  -0.014   0.019  0.00  0.00    -0.008 A 
ATOM      3  C   UNL     1       0.409  -0.703  -1.175  0.00  0.00    +0.008 A 
ATOM      4  C   UNL     1       0.303  -2.081  -1.190  0.00  0.00    -0.064 A 
ATOM      5  C   UNL     1       0.100  -2.775  -0.010  0.00  0.00    +0.005 A 
ATOM      6  C   UNL     1       0.003  -2.091   1.186  0.00  0.00    +0.047 A 
ATOM      7  C   UNL     1       0.115  -0.708   1.204  0.00  0.00    +0.131 A 
ENDROOT
BRANCH   7   8
ATOM      8  O   UNL     1       0.025  -0.034   2.381  0.00  0.00    -0.453 OA
BRANCH   8   9
ATOM      9  C   UNL     1      -0.065  -0.759   3.527  0.00  0.00    +0.164 A 
ATOM     10  C   UNL     1      -1.308  -1.050   4.069  0.00  0.00    +0.051 A 
ATOM     11  C   UNL     1      -1.396  -1.788   5.234  0.00  0.00    +0.036 A 
ATOM     12  C   UNL     1      -0.248  -2.236   5.861  0.00  0.00    +0.129 A 
ATOM     13  C   UNL     1       0.993  -1.948   5.323  0.00  0.00    +0.074 A 
ATOM     14  C   UNL     1       1.088  -1.215   4.154  0.00  0.00    +0.168 A 
ATOM     15  F   UNL     1       2.300  -0.938   3.626  0.00  0.00    -0.202 F 
BRANCH  12  16
ATOM     16  N   UNL     1      -0.347  -3.025   7.109  0.00  0.00    +0.057 N 
ATOM     17  O   UNL     1      -1.432  -3.277   7.580  0.00  0.00    -0.126 OA
ATOM     18  O   UNL     1       0.656  -3.418   7.657  0.00  0.00    -0.126 OA
ENDBRANCH  12  16
ENDBRANCH   8   9
ENDBRANCH   7   8
BRANCH   4  19
ATOM     19  C   UNL     1       0.409  -2.830  -2.493  0.00  0.00    -0.051 C 
BRANCH  19  20
ATOM     20  N   UNL     1       1.813  -3.180  -2.745  0.00  0.00    +0.381 N 
ATOM     21  H   UNL     1       2.366  -2.337  -2.795  0.00  0.00    -0.090 HD
ATOM     22  H   UNL     1       2.154  -3.762  -1.994  0.00  0.00    -0.090 HD
ATOM     23  H   UNL     1       1.884  -3.681  -3.618  0.00  0.00    -0.090 HD
ENDBRANCH  19  20
ENDBRANCH   4  19
TORSDOF 5
