REMARK  Name = ZINC42029461
REMARK  4 active torsions:
REMARK  status: ('A' for Active; 'I' for Inactive)
REMARK    1  A    between atoms: C_4  and  N_20
REMARK    2  A    between atoms: C_6  and  C_7
REMARK    3  A    between atoms: N_11  and  C_12
REMARK    4  A    between atoms: C_12  and  C_13
REMARK                            x       y       z     vdW  Elec       q    Type
REMARK                         _______ _______ _______ _____ _____    ______ ____
ROOT
ATOM      1  C   UNL     1      -1.307  -0.783   0.061  0.00  0.00    +0.182 A 
ATOM      2  N   UNL     1      -1.463  -2.080   0.226  0.00  0.00    -0.108 NA
ATOM      3  N   UNL     1      -2.701  -2.401   0.114  0.00  0.00    -0.023 NA
ATOM      4  N   UNL     1      -3.417  -1.356  -0.124  0.00  0.00    -0.044 NA
ATOM      5  N   UNL     1      -2.537  -0.260  -0.163  0.00  0.00    -0.223 N 
ENDROOT
BRANCH   1  11
ATOM      6  C   UNL     1       0.059   1.239  -0.439  0.00  0.00    +0.014 A 
ATOM      7  C   UNL     1       1.250   1.934  -0.386  0.00  0.00    +0.041 A 
ATOM      8  C   UNL     1       2.360   1.369   0.218  0.00  0.00    +0.144 A 
ATOM      9  C   UNL     1       2.280   0.095   0.775  0.00  0.00    +0.061 A 
ATOM     10  C   UNL     1       1.088  -0.608   0.726  0.00  0.00    +0.037 A 
ATOM     11  C   UNL     1      -0.030  -0.037   0.117  0.00  0.00    +0.023 A 
ATOM     12  F   UNL     1       3.523   2.054   0.266  0.00  0.00    -0.204 F 
BRANCH   9  13
ATOM     13  N   UNL     1       3.403  -0.474   1.383  0.00  0.00    -0.356 N 
ATOM     14  H   UNL     1       4.238   0.019   1.417  0.00  0.00    +0.142 HD
ATOM     15  H   UNL     1       3.348  -1.361   1.772  0.00  0.00    +0.142 HD
ENDBRANCH   9  13
ENDBRANCH   1  11
BRANCH   5  16
ATOM     16  C   UNL     1      -2.877   1.146  -0.397  0.00  0.00    +0.181 C 
BRANCH  16  17
ATOM     17  C   UNL     1      -3.011   1.394  -1.901  0.00  0.00    +0.165 C 
ATOM     18  C   UNL     1      -3.389   2.858  -2.146  0.00  0.00    +0.193 C 
ATOM     19  O   UNL     1      -3.403   3.109  -3.555  0.00  0.00    -0.375 OA
ATOM     20  C   UNL     1      -2.155   2.832  -4.198  0.00  0.00    +0.188 C 
ATOM     21  C   UNL     1      -1.778   1.368  -3.953  0.00  0.00    +0.188 C 
ATOM     22  O   UNL     1      -1.764   1.115  -2.545  0.00  0.00    -0.370 OA
ENDBRANCH  16  17
ENDBRANCH   5  16
TORSDOF 4
