REMARK  Name = ZINC48348866
REMARK  4 active torsions:
REMARK  status: ('A' for Active; 'I' for Inactive)
REMARK    1  A    between atoms: C_6  and  C_7
REMARK    2  A    between atoms: C_7  and  C_12
REMARK    3  A    between atoms: C_12  and  N_13
REMARK    4  A    between atoms: C_14  and  C_16
REMARK                            x       y       z     vdW  Elec       q    Type
REMARK                         _______ _______ _______ _____ _____    ______ ____
ROOT
ATOM      1  N   UNL     1      -2.366   1.150  -1.045  0.00  0.00    -0.314 N 
ATOM      2  C   UNL     1      -3.204   1.774  -1.895  0.00  0.00    +0.216 C 
ATOM      3  O   UNL     1      -3.813   1.134  -2.726  0.00  0.00    -0.276 OA
ATOM      4  H   UNL     1      -1.879   1.662  -0.380  0.00  0.00    +0.149 HD
ENDROOT
BRANCH   2   5
ATOM      5  C   UNL     1      -3.386   3.268  -1.813  0.00  0.00    +0.078 C 
ATOM      6  C   UNL     1      -3.917   3.642  -0.427  0.00  0.00    +0.032 C 
ATOM      7  C   UNL     1      -4.067   5.163  -0.336  0.00  0.00    +0.110 C 
ATOM      8  N   UNL     1      -4.910   5.623  -1.448  0.00  0.00    -0.286 N 
ATOM      9  C   UNL     1      -4.540   5.242  -2.818  0.00  0.00    +0.110 C 
ATOM     10  C   UNL     1      -4.384   3.719  -2.882  0.00  0.00    +0.032 C 
ATOM     11  C   UNL     1      -6.001   6.379  -1.216  0.00  0.00    +0.300 C 
ATOM     12  O   UNL     1      -6.351   6.608  -0.075  0.00  0.00    -0.253 OA
ATOM     13  N   UNL     1      -6.705   6.880  -2.250  0.00  0.00    -0.313 N 
ATOM     14  H   UNL     1      -6.470   6.639  -3.160  0.00  0.00    +0.146 HD
ATOM     15  H   UNL     1      -7.448   7.483  -2.085  0.00  0.00    +0.146 HD
ENDBRANCH   2   5
BRANCH   1  16
ATOM     16  C   UNL     1      -2.189  -0.302  -1.124  0.00  0.00    +0.115 C 
BRANCH  16  17
ATOM     17  C   UNL     1      -1.276  -0.768   0.012  0.00  0.00    +0.011 C 
ATOM     18  C   UNL     1      -1.879  -0.365   1.374  0.00  0.00    +0.013 C 
ATOM     19  C   UNL     1      -2.647  -1.627   1.838  0.00  0.00    +0.001 C 
ATOM     20  C   UNL     1      -1.723  -2.780   1.375  0.00  0.00    +0.001 C 
ATOM     21  C   UNL     1      -1.178  -2.304   0.013  0.00  0.00    +0.013 C 
BRANCH  17  27
ATOM     22  C   UNL     1       0.394   0.585  -1.270  0.00  0.00    +0.007 A 
ATOM     23  C   UNL     1       1.651   1.141  -1.416  0.00  0.00    +0.038 A 
ATOM     24  C   UNL     1       2.610   0.948  -0.436  0.00  0.00    +0.123 A 
ATOM     25  C   UNL     1       2.309   0.200   0.689  0.00  0.00    +0.038 A 
ATOM     26  C   UNL     1       1.052  -0.355   0.833  0.00  0.00    +0.007 A 
ATOM     27  C   UNL     1       0.094  -0.163  -0.146  0.00  0.00    -0.040 A 
ATOM     28  F   UNL     1       3.839   1.491  -0.579  0.00  0.00    -0.205 F 
ENDBRANCH  17  27
ENDBRANCH  16  17
ENDBRANCH   1  16
TORSDOF 4
