REMARK  Name = ZINC13552645
REMARK  3 active torsions:
REMARK  status: ('A' for Active; 'I' for Inactive)
REMARK    1  A    between atoms: N_14  and  N_15
REMARK    2  A    between atoms: C_16  and  C_17
REMARK    3  A    between atoms: C_22  and  O_23
REMARK                            x       y       z     vdW  Elec       q    Type
REMARK                         _______ _______ _______ _____ _____    ______ ____
ROOT
ATOM      1  C   UNL     1       1.161   3.174   0.008  0.00  0.00    +0.001 A 
ATOM      2  C   UNL     1       1.168   1.785   0.001  0.00  0.00    +0.001 A 
ATOM      3  C   UNL     1      -0.013   1.076   0.008  0.00  0.00    +0.012 A 
ATOM      4  C   UNL     1      -1.227   1.761   0.017  0.00  0.00    +0.031 A 
ATOM      5  C   UNL     1      -1.236   3.173   0.031  0.00  0.00    +0.029 A 
ATOM      6  C   UNL     1      -0.028   3.870   0.023  0.00  0.00    +0.012 A 
ATOM      7  C   UNL     1      -2.528   3.870   0.047  0.00  0.00    +0.167 A 
ATOM      8  N   UNL     1      -3.643   3.190   0.054  0.00  0.00    -0.146 NA
ATOM      9  N   UNL     1      -3.671   1.796   0.047  0.00  0.00    -0.198 N 
ATOM     10  C   UNL     1      -2.515   1.060   0.033  0.00  0.00    +0.185 A 
ATOM     11  N   UNL     1      -2.863  -0.210   0.029  0.00  0.00    -0.128 NA
ATOM     12  N   UNL     1      -4.146  -0.301   0.041  0.00  0.00    -0.136 NA
ATOM     13  C   UNL     1      -4.681   0.894   0.052  0.00  0.00    +0.249 A 
ATOM     14  N   UNL     1      -2.564   5.256   0.054  0.00  0.00    -0.219 N 
ATOM     15  H   UNL     1      -1.737   5.763   0.049  0.00  0.00    +0.176 HD
ENDROOT
BRANCH  14  16
ATOM     16  N   UNL     1      -3.795   5.925   0.070  0.00  0.00    -0.189 NA
ATOM     17  C   UNL     1      -3.830   7.222   0.077  0.00  0.00    +0.142 C 
BRANCH  17  18
ATOM     18  C   UNL     1      -5.125   7.925   0.093  0.00  0.00    +0.038 A 
ATOM     19  C   UNL     1      -5.166   9.322   0.100  0.00  0.00    +0.028 A 
ATOM     20  C   UNL     1      -6.382   9.974   0.115  0.00  0.00    +0.020 A 
ATOM     21  C   UNL     1      -7.562   9.250   0.122  0.00  0.00    +0.034 A 
ATOM     22  C   UNL     1      -7.534   7.867   0.115  0.00  0.00    +0.061 A 
ATOM     23  C   UNL     1      -6.322   7.197   0.095  0.00  0.00    +0.139 A 
ATOM     24 BR   UNL     1      -9.153   6.890   0.126  0.00  0.00    -0.046 Br
ATOM     25 BR   UNL     1      -6.436  11.864   0.125  0.00  0.00    -0.050 Br
BRANCH  23  26
ATOM     26  O   UNL     1      -6.293   5.839   0.082  0.00  0.00    -0.505 OA
ATOM     27  H   UNL     1      -6.278   5.437   0.962  0.00  0.00    +0.292 HD
ENDBRANCH  23  26
ENDBRANCH  17  18
ENDBRANCH  14  16
TORSDOF 3
