REMARK  Name = ZINC62239363
REMARK  7 active torsions:
REMARK  status: ('A' for Active; 'I' for Inactive)
REMARK    1  A    between atoms: C_1  and  C_2
REMARK    2  A    between atoms: C_2  and  C_3
REMARK    3  A    between atoms: C_2  and  C_4
REMARK    4  A    between atoms: C_2  and  C_5
REMARK    5  A    between atoms: C_6  and  C_17
REMARK    6  A    between atoms: N_9  and  C_10
REMARK    7  A    between atoms: C_17  and  N_18
REMARK                            x       y       z     vdW  Elec       q    Type
REMARK                         _______ _______ _______ _____ _____    ______ ____
ROOT
ATOM      1  C   UNL     1       1.332  -0.587  -0.080  0.00  0.00    +0.071 A 
ATOM      2  C   UNL     1       1.339  -1.918   0.168  0.00  0.00    +0.070 A 
ATOM      3  N   UNL     1       2.574  -2.350  -0.110  0.00  0.00    -0.136 NA
ATOM      4  N   UNL     1       3.289  -1.356  -0.504  0.00  0.00    -0.060 NA
ATOM      5  N   UNL     1       2.587  -0.277  -0.508  0.00  0.00    -0.216 N 
ENDROOT
BRANCH   5   6
ATOM      6  C   UNL     1       3.036   0.996  -0.886  0.00  0.00    +0.068 A 
ATOM      7  C   UNL     1       2.337   1.728  -1.837  0.00  0.00    +0.028 A 
ATOM      8  C   UNL     1       2.781   2.982  -2.207  0.00  0.00    +0.003 A 
ATOM      9  C   UNL     1       3.923   3.510  -1.631  0.00  0.00    +0.015 A 
ATOM     10  C   UNL     1       4.622   2.784  -0.684  0.00  0.00    +0.020 A 
ATOM     11  C   UNL     1       4.179   1.530  -0.306  0.00  0.00    +0.043 A 
ATOM     12 BR   UNL     1       6.183   3.509   0.100  0.00  0.00    -0.050 Br
ENDBRANCH   5   6
BRANCH   1  14
ATOM     13  C   UNL     1      -0.635   0.402  -1.221  0.00  0.00    +0.017 C 
ATOM     14  C   UNL     1       0.170   0.359   0.080  0.00  0.00    +0.006 C 
ATOM     15  C   UNL     1       0.693   1.760   0.403  0.00  0.00    +0.017 C 
ATOM     16  C   UNL     1      -0.729  -0.126   1.220  0.00  0.00    +0.017 C 
ENDBRANCH   1  14
BRANCH   2  17
ATOM     17  C   UNL     1       0.183  -2.749   0.661  0.00  0.00    -0.026 C 
BRANCH  17  18
ATOM     18  N   UNL     1      -0.794  -2.920  -0.422  0.00  0.00    +0.382 N 
ATOM     19  H   UNL     1      -0.357  -3.396  -1.197  0.00  0.00    -0.090 HD
ATOM     20  H   UNL     1      -1.574  -3.467  -0.089  0.00  0.00    -0.090 HD
ATOM     21  H   UNL     1      -1.123  -2.016  -0.725  0.00  0.00    -0.090 HD
ENDBRANCH  17  18
ENDBRANCH   2  17
TORSDOF 4
