REMARK  Name = ZINC63075087
REMARK  8 active torsions:
REMARK  status: ('A' for Active; 'I' for Inactive)
REMARK    1  A    between atoms: C_1  and  C_2
REMARK    2  A    between atoms: C_2  and  O_3
REMARK    3  A    between atoms: O_3  and  C_4
REMARK    4  A    between atoms: C_9  and  S_14
REMARK    5  A    between atoms: S_14  and  C_15
REMARK    6  A    between atoms: C_15  and  C_16
REMARK    7  A    between atoms: N_18  and  C_19
REMARK    8  A    between atoms: C_23  and  C_29
REMARK                            x       y       z     vdW  Elec       q    Type
REMARK                         _______ _______ _______ _____ _____    ______ ____
ROOT
ATOM      1  C   UNL     1       4.349  -5.741   1.604  0.00  0.00    +0.168 C 
ENDROOT
BRANCH   1   2
ATOM      2  C   UNL     1       5.712  -6.319   1.320  0.00  0.00    +0.225 C 
ATOM      3  O   UNL     1       6.096  -7.294   1.932  0.00  0.00    -0.275 OA
ATOM      4  N   UNL     1       6.503  -5.753   0.387  0.00  0.00    -0.288 N 
ATOM      5  H   UNL     1       6.195  -4.974  -0.102  0.00  0.00    +0.151 HD
BRANCH   4   6
ATOM      6  C   UNL     1       7.827  -6.315   0.112  0.00  0.00    +0.224 C 
ATOM      7  N   UNL     1       8.405  -5.734  -1.107  0.00  0.00    -0.316 N 
ATOM      8  C   UNL     1       9.592  -5.014  -0.979  0.00  0.00    +0.046 A 
ATOM      9  C   UNL     1      10.288  -4.389  -2.029  0.00  0.00    -0.028 A 
ATOM     10  C   UNL     1      11.456  -3.700  -1.798  0.00  0.00    +0.005 A 
ATOM     11  C   UNL     1      11.985  -3.598  -0.525  0.00  0.00    +0.001 A 
ATOM     12  C   UNL     1      11.321  -4.203   0.529  0.00  0.00    +0.016 A 
ATOM     13  C   UNL     1      10.152  -4.893   0.297  0.00  0.00    +0.032 A 
ATOM     14  S   UNL     1       9.049  -5.779   1.376  0.00  0.00    -0.082 S 
ATOM     15  C   UNL     1       9.745  -4.477  -3.432  0.00  0.00    +0.046 C 
ATOM     16  H   UNL     1       7.976  -5.847  -1.970  0.00  0.00    +0.149 HD
ENDBRANCH   4   6
ENDBRANCH   1   2
BRANCH   1  17
ATOM     17  S   UNL     1       3.536  -6.717   2.898  0.00  0.00    -0.106 S 
BRANCH  17  23
ATOM     18  C   UNL     1       0.802  -1.821   1.305  0.00  0.00    +0.123 A 
ATOM     19  C   UNL     1       0.224  -2.693   0.290  0.00  0.00    +0.048 A 
ATOM     20  C   UNL     1       0.299  -4.034   0.378  0.00  0.00    +0.031 A 
ATOM     21  C   UNL     1       0.979  -4.654   1.525  0.00  0.00    +0.061 A 
ATOM     22  N   UNL     1       1.190  -5.897   1.851  0.00  0.00    -0.355 N 
ATOM     23  C   UNL     1       1.930  -5.903   3.119  0.00  0.00    +0.236 C 
ATOM     24  N   UNL     1       2.124  -4.496   3.491  0.00  0.00    -0.355 N 
ATOM     25  C   UNL     1       1.570  -3.766   2.562  0.00  0.00    +0.064 A 
ATOM     26  C   UNL     1       1.449  -2.317   2.388  0.00  0.00    +0.073 A 
ATOM     27  H   UNL     1       0.909  -6.677   1.348  0.00  0.00    +0.162 HD
ATOM     28  H   UNL     1       2.580  -4.170   4.283  0.00  0.00    +0.162 HD
BRANCH  18  29
ATOM     29  O   UNL     1       0.693  -0.477   1.160  0.00  0.00    -0.492 OA
BRANCH  29  31
ATOM     30  C   UNL     1      -0.019   1.526   0.010  0.00  0.00    +0.048 C 
ATOM     31  C   UNL     1       0.002  -0.004   0.002  0.00  0.00    +0.225 C 
ENDBRANCH  29  31
ENDBRANCH  18  29
ENDBRANCH  17  23
ENDBRANCH   1  17
TORSDOF 6
