REMARK  Name = ZINC48880780
REMARK  7 active torsions:
REMARK  status: ('A' for Active; 'I' for Inactive)
REMARK    1  A    between atoms: C_1  and  N_2
REMARK    2  A    between atoms: N_2  and  C_3
REMARK    3  A    between atoms: N_2  and  S_11
REMARK    4  A    between atoms: C_3  and  C_4
REMARK    5  A    between atoms: S_11  and  C_14
REMARK    6  A    between atoms: C_17  and  N_20
REMARK    7  A    between atoms: N_20  and  N_21
REMARK                            x       y       z     vdW  Elec       q    Type
REMARK                         _______ _______ _______ _____ _____    ______ ____
ROOT
ATOM      1  S   UNL     1      -0.000  -0.824  -1.437  0.00  0.00    +0.061 S 
ATOM      2  O   UNL     1      -0.531  -2.115  -1.167  0.00  0.00    -0.153 OA
ATOM      3  O   UNL     1      -0.572   0.049  -2.401  0.00  0.00    -0.153 OA
ENDROOT
BRANCH   1   4
ATOM      4  C   UNL     1       1.682  -1.059  -1.905  0.00  0.00    +0.106 A 
ATOM      5  C   UNL     1       2.322  -0.108  -2.677  0.00  0.00    +0.030 A 
ATOM      6  C   UNL     1       3.641  -0.289  -3.046  0.00  0.00    +0.026 A 
ATOM      7  C   UNL     1       4.324  -1.429  -2.641  0.00  0.00    +0.041 A 
ATOM      8  C   UNL     1       3.677  -2.383  -1.865  0.00  0.00    +0.026 A 
ATOM      9  C   UNL     1       2.360  -2.192  -1.495  0.00  0.00    +0.030 A 
BRANCH   7  10
ATOM     10  N   UNL     1       5.657  -1.615  -3.013  0.00  0.00    -0.283 N 
ATOM     11  H   UNL     1       6.107  -0.949  -3.555  0.00  0.00    +0.166 HD
BRANCH  10  12
ATOM     12  N   UNL     1       6.327  -2.737  -2.613  0.00  0.00    -0.257 NA
ATOM     13  H   UNL     1       5.841  -3.571  -2.905  0.00  0.00    +0.140 HD
ATOM     14  H   UNL     1       7.276  -2.732  -2.956  0.00  0.00    +0.140 HD
ENDBRANCH  10  12
ENDBRANCH   7  10
ENDBRANCH   1   4
BRANCH   1  16
ATOM     15  C   UNL     1      -0.018   1.461   0.010  0.00  0.00    +0.132 C 
ATOM     16  N   UNL     1       0.002  -0.004   0.002  0.00  0.00    -0.175 NA
BRANCH  16  17
ATOM     17  C   UNL     1       0.024  -0.743   1.267  0.00  0.00    +0.144 C 
BRANCH  17  18
ATOM     18  C   UNL     1      -1.384  -0.909   1.776  0.00  0.00    -0.032 A 
ATOM     19  C   UNL     1      -1.936   0.049   2.606  0.00  0.00    +0.006 A 
ATOM     20  C   UNL     1      -3.228  -0.103   3.074  0.00  0.00    +0.020 A 
ATOM     21  C   UNL     1      -3.969  -1.213   2.711  0.00  0.00    +0.041 A 
ATOM     22  C   UNL     1      -3.416  -2.172   1.880  0.00  0.00    +0.020 A 
ATOM     23  C   UNL     1      -2.126  -2.016   1.409  0.00  0.00    +0.006 A 
ATOM     24 CL   UNL     1      -5.591  -1.405   3.299  0.00  0.00    -0.084 Cl
ENDBRANCH  17  18
ENDBRANCH  16  17
ENDBRANCH   1  16
TORSDOF 6
