REMARK  Name = ZINC37706848
REMARK  8 active torsions:
REMARK  status: ('A' for Active; 'I' for Inactive)
REMARK    1  A    between atoms: C_1  and  C_2
REMARK    2  A    between atoms: C_2  and  N_3
REMARK    3  A    between atoms: N_3  and  C_4
REMARK    4  A    between atoms: C_4  and  C_6
REMARK    5  A    between atoms: C_4  and  C_7
REMARK    6  A    between atoms: C_12  and  O_13
REMARK    7  A    between atoms: O_13  and  C_14
REMARK    8  A    between atoms: C_21  and  O_23
REMARK                            x       y       z     vdW  Elec       q    Type
REMARK                         _______ _______ _______ _____ _____    ______ ____
ROOT
ATOM      1  C   UNL     1       1.445  -2.514  -2.434  0.00  0.00    -0.020 A 
ATOM      2  C   UNL     1       2.291  -1.694  -3.156  0.00  0.00    +0.005 A 
ATOM      3  C   UNL     1       2.642  -2.029  -4.451  0.00  0.00    +0.000 A 
ATOM      4  C   UNL     1       2.149  -3.185  -5.026  0.00  0.00    +0.004 A 
ATOM      5  C   UNL     1       1.304  -4.009  -4.309  0.00  0.00    +0.046 A 
ATOM      6  C   UNL     1       0.954  -3.678  -3.008  0.00  0.00    +0.123 A 
ENDROOT
BRANCH   1   7
ATOM      7  C   UNL     1       1.062  -2.148  -1.024  0.00  0.00    -0.041 C 
ATOM      8  C   UNL     1       1.999  -2.854  -0.042  0.00  0.00    -0.009 C 
BRANCH   7   9
ATOM      9  N   UNL     1       1.173  -0.694  -0.848  0.00  0.00    +0.383 N 
ATOM     10  H   UNL     1       0.618  -0.227  -1.549  0.00  0.00    -0.085 HD
ATOM     11  H   UNL     1       2.138  -0.416  -0.943  0.00  0.00    -0.085 HD
BRANCH   9  13
ATOM     12  C   UNL     1       0.801   1.190   0.671  0.00  0.00    -0.017 C 
ATOM     13  C   UNL     1       0.686  -0.324   0.488  0.00  0.00    -0.085 C 
ENDBRANCH   9  13
ENDBRANCH   7   9
ENDBRANCH   1   7
BRANCH   6  14
ATOM     14  O   UNL     1       0.126  -4.489  -2.298  0.00  0.00    -0.484 OA
BRANCH  14  15
ATOM     15  C   UNL     1      -0.253  -5.724  -2.909  0.00  0.00    +0.224 C 
ATOM     16  C   UNL     1      -1.422  -5.454  -3.882  0.00  0.00    +0.213 C 
ATOM     17  S   UNL     1      -2.436  -6.981  -3.659  0.00  0.00    -0.025 S 
ATOM     18  O   UNL     1      -1.893  -8.026  -4.454  0.00  0.00    -0.174 OA
ATOM     19  O   UNL     1      -3.813  -6.652  -3.773  0.00  0.00    -0.174 OA
ATOM     20  C   UNL     1      -2.022  -7.282  -1.886  0.00  0.00    +0.201 C 
ATOM     21  C   UNL     1      -0.586  -6.726  -1.814  0.00  0.00    +0.177 C 
BRANCH  21  22
ATOM     22  O   UNL     1      -0.407  -6.092  -0.546  0.00  0.00    -0.386 OA
ATOM     23  H   UNL     1      -0.599  -6.663   0.210  0.00  0.00    +0.210 HD
ENDBRANCH  21  22
ENDBRANCH  14  15
ENDBRANCH   6  14
TORSDOF 6
