REMARK  Name = ZINC51053905
REMARK  13 active torsions:
REMARK  status: ('A' for Active; 'I' for Inactive)
REMARK    1  A    between atoms: C_1  and  C_2
REMARK    2  A    between atoms: C_2  and  C_3
REMARK    3  A    between atoms: C_3  and  C_4
REMARK    4  A    between atoms: C_4  and  C_6
REMARK    5  A    between atoms: C_4  and  N_7
REMARK    6  A    between atoms: C_8  and  C_10
REMARK    7  A    between atoms: N_15  and  C_17
REMARK    8  A    between atoms: C_17  and  C_19
REMARK    9  A    between atoms: C_17  and  C_20
REMARK   10  A    between atoms: N_25  and  C_26
REMARK   11  A    between atoms: C_26  and  C_27
REMARK   12  A    between atoms: C_26  and  C_28
REMARK   13  A    between atoms: C_26  and  C_29
REMARK                            x       y       z     vdW  Elec       q    Type
REMARK                         _______ _______ _______ _____ _____    ______ ____
ROOT
ATOM      1  C   UNL     1       3.059  -5.219  -0.714  0.00  0.00    +0.058 C 
ATOM      2  C   UNL     1       4.304  -5.998  -0.281  0.00  0.00    +0.009 C 
ATOM      3  C   UNL     1       5.008  -6.548  -1.524  0.00  0.00    -0.018 C 
ATOM      4  C   UNL     1       4.028  -7.416  -2.317  0.00  0.00    -0.078 C 
ATOM      5  N   UNL     1       2.873  -6.607  -2.724  0.00  0.00    +0.388 N 
ATOM      6  C   UNL     1       2.151  -6.134  -1.537  0.00  0.00    -0.065 C 
ATOM      7  H   UNL     1       3.191  -5.814  -3.260  0.00  0.00    -0.081 HD
ENDROOT
BRANCH   1   9
ATOM      8  N   UNL     1       2.924  -3.915   1.384  0.00  0.00    -0.313 N 
ATOM      9  C   UNL     1       2.317  -4.738   0.506  0.00  0.00    +0.215 C 
ATOM     10  O   UNL     1       1.172  -5.091   0.698  0.00  0.00    -0.276 OA
ATOM     11  H   UNL     1       3.839  -3.633   1.231  0.00  0.00    +0.149 HD
BRANCH   8  12
ATOM     12  C   UNL     1       2.202  -3.448   2.570  0.00  0.00    +0.070 C 
ATOM     13  C   UNL     1       2.324  -4.489   3.685  0.00  0.00    +0.028 C 
BRANCH  12  14
ATOM     14  C   UNL     1       2.801  -2.122   3.042  0.00  0.00    +0.022 C 
BRANCH  14  16
ATOM     15  C   UNL     1       3.167   0.277   2.450  0.00  0.00    +0.004 C 
ATOM     16  C   UNL     1       2.568  -1.049   1.977  0.00  0.00    -0.002 C 
ENDBRANCH  14  16
ENDBRANCH  12  14
ENDBRANCH   8  12
ENDBRANCH   1   9
BRANCH   5  17
ATOM     17  C   UNL     1       1.973  -7.423  -3.551  0.00  0.00    +0.017 C 
ATOM     18  C   UNL     1       0.741  -6.598  -3.929  0.00  0.00    -0.004 C 
BRANCH  17  19
ATOM     19  C   UNL     1       2.693  -7.854  -4.802  0.00  0.00    +0.207 C 
ATOM     20  O   UNL     1       3.596  -7.177  -5.246  0.00  0.00    -0.277 OA
ATOM     21  N   UNL     1       2.333  -8.992  -5.428  0.00  0.00    -0.242 N 
ATOM     22  C   UNL     1       2.977  -9.378  -6.548  0.00  0.00    +0.306 C 
ATOM     23  O   UNL     1       3.882  -8.699  -6.993  0.00  0.00    -0.252 OA
ATOM     24  N   UNL     1       2.618 -10.516  -7.174  0.00  0.00    -0.294 N 
ATOM     25  H   UNL     1       1.611  -9.534  -5.073  0.00  0.00    +0.159 HD
ATOM     26  H   UNL     1       1.895 -11.057  -6.819  0.00  0.00    +0.151 HD
BRANCH  24  27
ATOM     27  C   UNL     1       3.317 -10.935  -8.391  0.00  0.00    +0.028 C 
ATOM     28  C   UNL     1       4.802 -11.137  -8.081  0.00  0.00    +0.031 C 
ATOM     29  C   UNL     1       2.719 -12.249  -8.896  0.00  0.00    +0.031 C 
ATOM     30  C   UNL     1       3.162  -9.857  -9.465  0.00  0.00    +0.031 C 
ENDBRANCH  24  27
ENDBRANCH  17  19
ENDBRANCH   5  17
TORSDOF 7
