REMARK  Name = ZINC09135807
REMARK  9 active torsions:
REMARK  status: ('A' for Active; 'I' for Inactive)
REMARK    1  A    between atoms: C_1  and  N_2
REMARK    2  A    between atoms: C_10  and  C_12
REMARK    3  A    between atoms: C_12  and  C_14
REMARK    4  A    between atoms: C_12  and  N_70
REMARK    5  A    between atoms: C_14  and  N_15
REMARK    6  A    between atoms: C_16  and  C_18
REMARK    7  A    between atoms: N_20  and  C_21
REMARK    8  A    between atoms: C_21  and  C_22
REMARK    9  A    between atoms: C_22  and  C_23
REMARK                            x       y       z     vdW  Elec       q    Type
REMARK                         _______ _______ _______ _____ _____    ______ ____
ROOT
ATOM      1  N   UNL     1      -1.263   3.742  -6.029  0.00  0.00    -0.309 N 
ATOM      2  C   UNL     1      -1.848   4.500  -5.080  0.00  0.00    +0.299 C 
ATOM      3  O   UNL     1      -2.508   3.976  -4.207  0.00  0.00    -0.265 OA
ATOM      4  H   UNL     1      -0.735   4.161  -6.727  0.00  0.00    +0.149 HD
ENDROOT
BRANCH   2   5
ATOM      5  C   UNL     1      -1.682   5.985  -5.101  0.00  0.00    +0.299 C 
ATOM      6  O   UNL     1      -1.021   6.509  -5.974  0.00  0.00    -0.265 OA
ATOM      7  N   UNL     1      -2.266   6.742  -4.152  0.00  0.00    -0.307 N 
ATOM      8  H   UNL     1      -2.794   6.323  -3.454  0.00  0.00    +0.149 HD
BRANCH   7   9
ATOM      9  C   UNL     1      -2.103   8.198  -4.173  0.00  0.00    +0.109 C 
BRANCH   9  10
ATOM     10  C   UNL     1      -2.861   8.813  -2.995  0.00  0.00    +0.056 C 
BRANCH  10  11
ATOM     11  C   UNL     1      -2.694  10.310  -3.017  0.00  0.00    -0.021 A 
ATOM     12  C   UNL     1      -1.783  11.022  -2.335  0.00  0.00    +0.087 A 
ATOM     13  N   UNL     1      -1.933  12.355  -2.607  0.00  0.00    -0.360 N 
ATOM     14  H   UNL     1      -1.388  13.065  -2.232  0.00  0.00    +0.165 HD
ATOM     15  C   UNL     1      -2.976  12.539  -3.486  0.00  0.00    +0.047 A 
ATOM     16  C   UNL     1      -3.498  11.266  -3.782  0.00  0.00    +0.003 A 
ATOM     17  C   UNL     1      -4.577  11.143  -4.659  0.00  0.00    +0.010 A 
ATOM     18  C   UNL     1      -5.121  12.260  -5.227  0.00  0.00    +0.001 A 
ATOM     19  C   UNL     1      -4.610  13.518  -4.938  0.00  0.00    +0.002 A 
ATOM     20  C   UNL     1      -3.546  13.663  -4.075  0.00  0.00    +0.026 A 
ENDBRANCH  10  11
ENDBRANCH   9  10
ENDBRANCH   7   9
ENDBRANCH   2   5
BRANCH   1  21
ATOM     21  C   UNL     1      -1.426   2.287  -6.008  0.00  0.00    +0.094 C 
BRANCH  21  22
ATOM     22  C   UNL     1      -0.779   1.683  -7.256  0.00  0.00    -0.020 C 
BRANCH  22  32
ATOM     23  C   UNL     1      -5.074   3.207 -11.632  0.00  0.00    +0.129 C 
ATOM     24  N   UNL     1      -3.631   3.355 -11.869  0.00  0.00    -0.333 N 
ATOM     25  C   UNL     1      -3.313   4.703 -12.345  0.00  0.00    +0.105 C 
ATOM     26  C   UNL     1      -1.796   4.806 -12.549  0.00  0.00    +0.024 C 
ATOM     27  C   UNL     1      -1.131   4.743 -11.172  0.00  0.00    +0.038 C 
ATOM     28  C   UNL     1      -1.715   3.602 -10.377  0.00  0.00    -0.026 A 
ATOM     29  C   UNL     1      -2.899   2.985 -10.742  0.00  0.00    +0.033 A 
ATOM     30  C   UNL     1      -3.396   1.940  -9.961  0.00  0.00    +0.023 A 
ATOM     31  C   UNL     1      -2.710   1.518  -8.842  0.00  0.00    +0.004 A 
ATOM     32  C   UNL     1      -1.529   2.140  -8.481  0.00  0.00    -0.059 A 
ATOM     33  C   UNL     1      -1.034   3.176  -9.248  0.00  0.00    +0.007 A 
ENDBRANCH  22  32
BRANCH  22  38
ATOM     34  C   UNL     1      -0.206  -0.405  -8.369  0.00  0.00    -0.078 C 
ATOM     35  C   UNL     1       0.131  -1.839  -7.889  0.00  0.00    -0.020 C 
ATOM     36  C   UNL     1       0.577  -1.618  -6.426  0.00  0.00    -0.020 C 
ATOM     37  C   UNL     1      -0.048  -0.272  -6.014  0.00  0.00    -0.078 C 
ATOM     38  N   UNL     1      -0.815   0.192  -7.170  0.00  0.00    +0.385 N 
ATOM     39  H   UNL     1      -1.790  -0.117  -7.086  0.00  0.00    -0.081 HD
ENDBRANCH  22  38
ENDBRANCH  21  22
ENDBRANCH   1  21
TORSDOF 8
