REMARK  Name = ZINC38653519
REMARK  10 active torsions:
REMARK  status: ('A' for Active; 'I' for Inactive)
REMARK    1  A    between atoms: C_1  and  C_2
REMARK    2  A    between atoms: C_4  and  O_43
REMARK    3  A    between atoms: C_14  and  C_15
REMARK    4  A    between atoms: C_14  and  O_32
REMARK    5  A    between atoms: C_15  and  C_17
REMARK    6  A    between atoms: C_17  and  O_18
REMARK    7  A    between atoms: O_18  and  C_19
REMARK    8  A    between atoms: C_19  and  C_21
REMARK    9  A    between atoms: C_27  and  C_29
REMARK   10  A    between atoms: C_41  and  C_42
REMARK                            x       y       z     vdW  Elec       q    Type
REMARK                         _______ _______ _______ _____ _____    ______ ____
ROOT
ATOM      1  C   UNL     1      -0.205   1.220   0.201  0.00  0.00    +0.015 C 
ATOM      2  C   UNL     1      -0.360  -0.302   0.249  0.00  0.00    +0.009 C 
ATOM      3  C   UNL     1       0.235  -0.975  -0.991  0.00  0.00    +0.041 C 
ATOM      4  C   UNL     1       1.758  -0.900  -0.962  0.00  0.00    +0.120 C 
ATOM      5  C   UNL     1       2.269  -1.675   0.259  0.00  0.00    +0.035 C 
ATOM      6  C   UNL     1       1.742  -0.996   1.522  0.00  0.00    -0.000 C 
ATOM      7  C   UNL     1       0.246  -0.901   1.529  0.00  0.00    +0.002 C 
ATOM      8  C   UNL     1      -0.423  -2.284   1.631  0.00  0.00    +0.008 C 
ATOM      9  C   UNL     1      -1.880  -2.013   1.190  0.00  0.00    +0.043 C 
ATOM     10  C   UNL     1      -1.849  -0.734   0.333  0.00  0.00    +0.133 C 
ATOM     11  C   UNL     1       2.228  -1.749   2.763  0.00  0.00    +0.008 C 
ATOM     12  C   UNL     1       3.757  -1.685   2.842  0.00  0.00    +0.032 C 
ATOM     13  C   UNL     1       4.317  -2.221   1.538  0.00  0.00    -0.056 C 
ATOM     14  C   UNL     1       5.235  -3.177   1.577  0.00  0.00    +0.051 C 
ATOM     15  C   UNL     1       5.785  -3.736   0.333  0.00  0.00    +0.179 C 
ATOM     16  O   UNL     1       6.657  -4.584   0.363  0.00  0.00    -0.288 OA
ATOM     17  C   UNL     1       5.257  -3.245  -0.952  0.00  0.00    +0.047 C 
ATOM     18  C   UNL     1       4.345  -2.285  -0.967  0.00  0.00    -0.012 C 
ATOM     19  C   UNL     1       3.801  -1.646   0.251  0.00  0.00    +0.013 C 
ATOM     20  C   UNL     1       4.237  -0.180   0.199  0.00  0.00    +0.020 C 
ENDROOT
BRANCH  10  21
ATOM     21  C   UNL     1      -2.382  -1.023  -1.047  0.00  0.00    +0.202 C 
ATOM     22  O   UNL     1      -2.351  -2.148  -1.483  0.00  0.00    -0.291 OA
BRANCH  21  23
ATOM     23  C   UNL     1      -2.955   0.093  -1.882  0.00  0.00    +0.309 C 
BRANCH  23  24
ATOM     24  O   UNL     1      -3.391  -0.428  -3.139  0.00  0.00    -0.457 OA
BRANCH  24  25
ATOM     25  C   UNL     1      -3.931   0.443  -4.006  0.00  0.00    +0.312 C 
ATOM     26  O   UNL     1      -4.029   1.609  -3.708  0.00  0.00    -0.250 OA
BRANCH  25  27
ATOM     27  C   UNL     1      -4.413  -0.034  -5.352  0.00  0.00    +0.116 C 
ATOM     28  C   UNL     1      -4.421   1.135  -6.340  0.00  0.00    +0.042 C 
ATOM     29  C   UNL     1      -5.511   2.103  -5.985  0.00  0.00    -0.030 C 
ATOM     30  C   UNL     1      -6.506   1.823  -5.206  0.00  0.00    -0.030 C 
ATOM     31  C   UNL     1      -6.703   0.492  -4.541  0.00  0.00    +0.042 C 
ATOM     32  C   UNL     1      -5.842  -0.578  -5.224  0.00  0.00    +0.120 C 
BRANCH  32  33
ATOM     33  C   UNL     1      -5.833  -1.837  -4.397  0.00  0.00    +0.360 C 
ATOM     34  O   UNL     1      -6.806  -2.131  -3.724  0.00  0.00    -0.246 OA
ATOM     35  O   UNL     1      -4.853  -2.562  -4.402  0.00  0.00    -0.246 OA
ENDBRANCH  32  33
ENDBRANCH  25  27
ENDBRANCH  24  25
ENDBRANCH  23  24
ENDBRANCH  21  23
ENDBRANCH  10  21
BRANCH  10  36
ATOM     36  O   UNL     1      -2.624   0.293   0.954  0.00  0.00    -0.380 OA
ATOM     37  H   UNL     1      -3.564   0.082   1.035  0.00  0.00    +0.211 HD
ENDBRANCH  10  36
BRANCH   4  38
ATOM     38  O   UNL     1       2.289  -1.478  -2.156  0.00  0.00    -0.391 OA
ATOM     39  H   UNL     1       1.999  -1.040  -2.967  0.00  0.00    +0.210 HD
ENDBRANCH   4  38
TORSDOF 8
