REMARK  Name = ZINC16431460
REMARK  4 active torsions:
REMARK  status: ('A' for Active; 'I' for Inactive)
REMARK    1  A    between atoms: C_6  and  C_7
REMARK    2  A    between atoms: C_10  and  C_12
REMARK    3  A    between atoms: N_13  and  N_14
REMARK    4  A    between atoms: C_15  and  C_17
REMARK                            x       y       z     vdW  Elec       q    Type
REMARK                         _______ _______ _______ _____ _____    ______ ____
ROOT
ATOM      1  C   UNL     1      -0.133   9.202  -0.096  0.00  0.00    +0.136 A 
ATOM      2  C   UNL     1       0.441  10.439  -0.179  0.00  0.00    +0.050 A 
ATOM      3  C   UNL     1       1.825  10.247  -0.242  0.00  0.00    +0.051 A 
ATOM      4  C   UNL     1       2.041   8.885  -0.203  0.00  0.00    +0.148 A 
ATOM      5  O   UNL     1       0.843   8.273  -0.112  0.00  0.00    -0.454 OA
ENDROOT
BRANCH   1  11
ATOM      6  C   UNL     1      -2.495   9.975  -0.143  0.00  0.00    +0.012 A 
ATOM      7  C   UNL     1      -3.850   9.728  -0.060  0.00  0.00    +0.014 A 
ATOM      8  C   UNL     1      -4.307   8.435   0.163  0.00  0.00    +0.049 A 
ATOM      9  C   UNL     1      -3.385   7.373   0.304  0.00  0.00    +0.050 A 
ATOM     10  C   UNL     1      -2.030   7.620   0.214  0.00  0.00    +0.025 A 
ATOM     11  C   UNL     1      -1.577   8.929  -0.005  0.00  0.00    +0.018 A 
ATOM     12  C   UNL     1      -4.200   6.159   0.525  0.00  0.00    +0.251 C 
ATOM     13  O   UNL     1      -3.768   5.036   0.692  0.00  0.00    -0.270 OA
ATOM     14  N   UNL     1      -5.499   6.508   0.511  0.00  0.00    -0.248 N 
ATOM     15  C   UNL     1      -5.644   7.829   0.303  0.00  0.00    +0.251 C 
ATOM     16  O   UNL     1      -6.702   8.424   0.241  0.00  0.00    -0.270 OA
ATOM     17  H   UNL     1      -6.235   5.888   0.635  0.00  0.00    +0.158 HD
ENDBRANCH   1  11
BRANCH   4  18
ATOM     18  C   UNL     1       3.344   8.220  -0.248  0.00  0.00    +0.176 C 
ATOM     19  N   UNL     1       3.410   6.926  -0.382  0.00  0.00    -0.184 NA
BRANCH  19  20
ATOM     20  N   UNL     1       2.243   6.184  -0.608  0.00  0.00    -0.203 N 
ATOM     21  C   UNL     1       2.295   4.838  -0.631  0.00  0.00    +0.265 C 
ATOM     22  O   UNL     1       3.326   4.263  -0.340  0.00  0.00    -0.268 OA
ATOM     23  H   UNL     1       1.398   6.640  -0.747  0.00  0.00    +0.178 HD
BRANCH  21  24
ATOM     24  C   UNL     1       1.097   4.059  -1.010  0.00  0.00    +0.057 A 
ATOM     25  C   UNL     1       1.126   2.659  -1.000  0.00  0.00    +0.031 A 
ATOM     26  C   UNL     1      -0.023   1.977  -1.365  0.00  0.00    +0.037 A 
ATOM     27  C   UNL     1      -1.150   2.694  -1.728  0.00  0.00    +0.126 A 
ATOM     28  N   UNL     1      -1.149   4.013  -1.722  0.00  0.00    -0.261 NA
ATOM     29  C   UNL     1      -0.081   4.707  -1.384  0.00  0.00    +0.123 A 
ATOM     30 BR   UNL     1      -0.049   0.086  -1.373  0.00  0.00    -0.049 Br
ENDBRANCH  21  24
ENDBRANCH  19  20
ENDBRANCH   4  18
TORSDOF 4
