REMARK  Name = ZINC41547915
REMARK  7 active torsions:
REMARK  status: ('A' for Active; 'I' for Inactive)
REMARK    1  A    between atoms: C_1  and  C_2
REMARK    2  A    between atoms: C_7  and  C_10
REMARK    3  A    between atoms: C_14  and  C_16
REMARK    4  A    between atoms: C_19  and  O_22
REMARK    5  A    between atoms: O_22  and  C_23
REMARK    6  A    between atoms: C_23  and  C_24
REMARK    7  A    between atoms: C_23  and  C_25
REMARK                            x       y       z     vdW  Elec       q    Type
REMARK                         _______ _______ _______ _____ _____    ______ ____
ROOT
ATOM      1  C   UNL     1      -0.283  -1.183   4.070  0.00  0.00    -0.020 A 
ATOM      2  C   UNL     1       0.308  -2.424   3.922  0.00  0.00    +0.006 A 
ATOM      3  C   UNL     1       1.190  -2.894   4.879  0.00  0.00    +0.001 A 
ATOM      4  C   UNL     1       1.484  -2.126   5.987  0.00  0.00    +0.008 A 
ATOM      5  C   UNL     1       0.890  -0.874   6.141  0.00  0.00    -0.018 A 
ATOM      6  C   UNL     1       0.008  -0.403   5.171  0.00  0.00    +0.014 A 
ENDROOT
BRANCH   1  12
ATOM      7  C   UNL     1      -1.748   0.786   0.584  0.00  0.00    +0.036 C 
ATOM      8  C   UNL     1      -1.705  -0.740   0.675  0.00  0.00    +0.099 C 
ATOM      9  C   UNL     1      -3.110  -1.275   0.963  0.00  0.00    -0.051 C 
ATOM     10  N   UNL     1      -3.568  -0.765   2.263  0.00  0.00    +0.383 N 
ATOM     11  C   UNL     1      -2.647  -1.212   3.316  0.00  0.00    -0.046 C 
ATOM     12  C   UNL     1      -1.243  -0.677   3.023  0.00  0.00    +0.132 C 
ATOM     13  O   UNL     1      -0.825  -1.131   1.732  0.00  0.00    -0.373 OA
ATOM     14  H   UNL     1      -3.589   0.244   2.240  0.00  0.00    -0.086 HD
ATOM     15  H   UNL     1      -4.495  -1.116   2.455  0.00  0.00    -0.086 HD
ENDBRANCH   1  12
BRANCH   5  16
ATOM     16  C   UNL     1       1.202  -0.044   7.330  0.00  0.00    -0.018 A 
ATOM     17  C   UNL     1       0.604   1.205   7.486  0.00  0.00    +0.012 A 
ATOM     18  C   UNL     1       0.895   1.975   8.592  0.00  0.00    +0.046 A 
ATOM     19  C   UNL     1       1.783   1.506   9.551  0.00  0.00    +0.121 A 
ATOM     20  C   UNL     1       2.381   0.262   9.399  0.00  0.00    +0.046 A 
ATOM     21  C   UNL     1       2.089  -0.514   8.297  0.00  0.00    +0.012 A 
BRANCH  19  22
ATOM     22  O   UNL     1       2.069   2.267  10.640  0.00  0.00    -0.489 OA
BRANCH  22  23
ATOM     23  C   UNL     1       1.513   3.583  10.676  0.00  0.00    +0.167 C 
ATOM     24  C   UNL     1       0.090   3.521  11.236  0.00  0.00    +0.051 C 
ATOM     25  C   UNL     1       2.374   4.476  11.571  0.00  0.00    +0.051 C 
ENDBRANCH  22  23
ENDBRANCH  19  22
ENDBRANCH   5  16
TORSDOF 4
