REMARK  Name = ZINC36470961
REMARK  6 active torsions:
REMARK  status: ('A' for Active; 'I' for Inactive)
REMARK    1  A    between atoms: C_1  and  C_2
REMARK    2  A    between atoms: C_2  and  C_4
REMARK    3  A    between atoms: C_2  and  N_28
REMARK    4  A    between atoms: C_4  and  N_5
REMARK    5  A    between atoms: C_6  and  C_22
REMARK    6  A    between atoms: C_9  and  C_16
REMARK                            x       y       z     vdW  Elec       q    Type
REMARK                         _______ _______ _______ _____ _____    ______ ____
ROOT
ATOM      1  N   UNL     1      -1.414  -1.994   0.125  0.00  0.00    -0.290 N 
ATOM      2  C   UNL     1      -1.372  -2.939  -1.015  0.00  0.00    +0.137 C 
ATOM      3  C   UNL     1      -1.964  -4.205  -0.453  0.00  0.00    +0.017 C 
ATOM      4  C   UNL     1      -2.666  -5.323  -0.400  0.00  0.00    +0.097 C 
ATOM      5  N   UNL     1      -2.916  -5.655   0.901  0.00  0.00    -0.153 NA
ATOM      6  N   UNL     1      -2.231  -5.021   1.719  0.00  0.00    -0.170 NA
ATOM      7  C   UNL     1      -1.339  -4.155   0.958  0.00  0.00    +0.244 C 
ATOM      8  C   UNL     1      -1.426  -2.691   1.291  0.00  0.00    +0.247 C 
ATOM      9  O   UNL     1      -1.497  -2.216   2.405  0.00  0.00    -0.273 OA
ENDROOT
BRANCH   4  10
ATOM     10  C   UNL     1      -3.117  -6.101  -1.579  0.00  0.00    +0.002 A 
ATOM     11  C   UNL     1      -2.800  -5.670  -2.866  0.00  0.00    +0.010 A 
ATOM     12  C   UNL     1      -3.221  -6.398  -3.959  0.00  0.00    +0.001 A 
ATOM     13  C   UNL     1      -3.958  -7.555  -3.780  0.00  0.00    +0.000 A 
ATOM     14  C   UNL     1      -4.276  -7.989  -2.506  0.00  0.00    +0.001 A 
ATOM     15  C   UNL     1      -3.855  -7.271  -1.405  0.00  0.00    +0.010 A 
ENDBRANCH   4  10
BRANCH   2  16
ATOM     16  C   UNL     1       0.049  -3.168  -1.460  0.00  0.00    -0.023 A 
ATOM     17  C   UNL     1       1.056  -3.296  -0.521  0.00  0.00    +0.006 A 
ATOM     18  C   UNL     1       2.360  -3.506  -0.930  0.00  0.00    +0.000 A 
ATOM     19  C   UNL     1       2.657  -3.588  -2.277  0.00  0.00    +0.000 A 
ATOM     20  C   UNL     1       1.650  -3.461  -3.216  0.00  0.00    +0.000 A 
ATOM     21  C   UNL     1       0.346  -3.256  -2.808  0.00  0.00    +0.006 A 
ENDBRANCH   2  16
BRANCH   1  22
ATOM     22  C   UNL     1      -1.433  -0.534   0.013  0.00  0.00    +0.092 C 
BRANCH  22  24
ATOM     23  C   UNL     1      -0.019   1.526   0.010  0.00  0.00    -0.013 C 
ATOM     24  C   UNL     1       0.002  -0.004   0.002  0.00  0.00    -0.061 C 
BRANCH  24  25
ATOM     25  N   UNL     1       0.713  -0.491   1.192  0.00  0.00    +0.381 N 
ATOM     26  H   UNL     1       0.240  -0.165   2.022  0.00  0.00    -0.090 HD
ATOM     27  H   UNL     1       0.726  -1.500   1.187  0.00  0.00    -0.090 HD
ATOM     28  H   UNL     1       1.659  -0.141   1.185  0.00  0.00    -0.090 HD
ENDBRANCH  24  25
ENDBRANCH  22  24
ENDBRANCH   1  22
TORSDOF 5
