REMARK  Name = ZINC39322128
REMARK  4 active torsions:
REMARK  status: ('A' for Active; 'I' for Inactive)
REMARK    1  A    between atoms: C_6  and  C_10
REMARK    2  A    between atoms: C_10  and  C_24
REMARK    3  A    between atoms: C_11  and  C_12
REMARK    4  A    between atoms: N_16  and  C_17
REMARK                            x       y       z     vdW  Elec       q    Type
REMARK                         _______ _______ _______ _____ _____    ______ ____
ROOT
ATOM      1  C   UNL     1       3.093  -3.334  -1.347  0.00  0.00    +0.073 C 
ATOM      2  C   UNL     1       4.342  -3.830  -1.173  0.00  0.00    +0.044 C 
ENDROOT
BRANCH   1   8
ATOM      3  C   UNL     1      -2.415  -2.675  -0.658  0.00  0.00    +0.002 A 
ATOM      4  C   UNL     1      -2.035  -1.365  -0.313  0.00  0.00    +0.002 A 
ATOM      5  C   UNL     1      -0.756  -1.021  -0.065  0.00  0.00    +0.027 A 
ATOM      6  C   UNL     1       0.299  -2.040  -0.153  0.00  0.00    +0.060 A 
ATOM      7  N   UNL     1       1.587  -1.998   0.029  0.00  0.00    -0.359 N 
ATOM      8  C   UNL     1       2.110  -3.350  -0.205  0.00  0.00    +0.216 C 
ATOM      9  N   UNL     1       0.953  -4.187  -0.548  0.00  0.00    -0.359 N 
ATOM     10  C   UNL     1      -0.103  -3.426  -0.517  0.00  0.00    +0.060 A 
ATOM     11  C   UNL     1      -1.528  -3.684  -0.766  0.00  0.00    +0.027 A 
ATOM     12  H   UNL     1       2.107  -1.216   0.273  0.00  0.00    +0.162 HD
ATOM     13  H   UNL     1       0.972  -5.134  -0.758  0.00  0.00    +0.162 HD
ENDBRANCH   1   8
BRANCH   2  14
ATOM     14  C   UNL     1       4.739  -4.320   0.097  0.00  0.00    +0.048 A 
ATOM     15  C   UNL     1       4.991  -5.640   0.421  0.00  0.00    +0.027 A 
ATOM     16  C   UNL     1       5.353  -5.671   1.772  0.00  0.00    +0.020 A 
ATOM     17  C   UNL     1       5.318  -4.401   2.242  0.00  0.00    +0.092 A 
ATOM     18  N   UNL     1       4.951  -3.567   1.231  0.00  0.00    -0.316 N 
BRANCH  18  19
ATOM     19  C   UNL     1       4.809  -2.177   1.329  0.00  0.00    +0.047 A 
ATOM     20  C   UNL     1       5.515  -1.344   0.471  0.00  0.00    +0.027 A 
ATOM     21  C   UNL     1       5.373   0.026   0.569  0.00  0.00    +0.022 A 
ATOM     22  C   UNL     1       4.528   0.570   1.520  0.00  0.00    +0.041 A 
ATOM     23  C   UNL     1       3.823  -0.258   2.376  0.00  0.00    +0.022 A 
ATOM     24  C   UNL     1       3.957  -1.629   2.279  0.00  0.00    +0.027 A 
ATOM     25 CL   UNL     1       4.351   2.292   1.640  0.00  0.00    -0.084 Cl
ENDBRANCH  18  19
ENDBRANCH   2  14
BRANCH   1  26
ATOM     26  C   UNL     1       2.707  -2.796  -2.617  0.00  0.00    +0.099 C 
ATOM     27  N   UNL     1       2.401  -2.368  -3.624  0.00  0.00    -0.191 NA
ENDBRANCH   1  26
TORSDOF 4
