REMARK  Name = ZINC62242960
REMARK  5 active torsions:
REMARK  status: ('A' for Active; 'I' for Inactive)
REMARK    1  A    between atoms: C_1  and  C_2
REMARK    2  A    between atoms: C_3  and  C_18
REMARK    3  A    between atoms: N_6  and  C_7
REMARK    4  A    between atoms: C_16  and  O_17
REMARK    5  A    between atoms: C_18  and  O_19
REMARK                            x       y       z     vdW  Elec       q    Type
REMARK                         _______ _______ _______ _____ _____    ______ ____
ROOT
ATOM      1  C   UNL     1       0.176  -0.280   2.372  0.00  0.00    +0.075 A 
ATOM      2  C   UNL     1       0.059   1.069   2.624  0.00  0.00    +0.028 A 
ATOM      3  C   UNL     1       0.144   1.560   3.924  0.00  0.00    +0.003 A 
ATOM      4  C   UNL     1       0.344   0.723   4.979  0.00  0.00    +0.012 A 
ATOM      5  C   UNL     1       0.469  -0.659   4.764  0.00  0.00    +0.026 A 
ATOM      6  C   UNL     1       0.379  -1.171   3.447  0.00  0.00    +0.011 A 
ATOM      7  C   UNL     1       0.498  -2.554   3.234  0.00  0.00    +0.011 A 
ATOM      8  C   UNL     1       0.694  -3.387   4.293  0.00  0.00    +0.004 A 
ATOM      9  C   UNL     1       0.778  -2.890   5.591  0.00  0.00    +0.046 A 
ATOM     10  C   UNL     1       0.677  -1.550   5.838  0.00  0.00    +0.125 A 
ENDROOT
BRANCH   1  16
ATOM     11  C   UNL     1      -2.043   0.485   0.361  0.00  0.00    +0.068 C 
ATOM     12  C   UNL     1      -0.875  -0.445   0.154  0.00  0.00    +0.067 A 
ATOM     13  C   UNL     1      -0.569  -1.129  -0.973  0.00  0.00    +0.111 A 
ATOM     14  N   UNL     1       0.542  -1.825  -0.707  0.00  0.00    -0.132 NA
ATOM     15  N   UNL     1       0.904  -1.590   0.504  0.00  0.00    -0.060 NA
ATOM     16  N   UNL     1       0.089  -0.764   1.061  0.00  0.00    -0.216 N 
BRANCH  13  17
ATOM     17  C   UNL     1      -1.331  -1.111  -2.273  0.00  0.00    +0.214 C 
BRANCH  17  18
ATOM     18  O   UNL     1      -0.822  -0.069  -3.109  0.00  0.00    -0.389 OA
ATOM     19  H   UNL     1      -1.267   0.002  -3.965  0.00  0.00    +0.210 HD
ENDBRANCH  17  18
ENDBRANCH  13  17
ENDBRANCH   1  16
BRANCH  10  20
ATOM     20  O   UNL     1       0.761  -1.080   7.109  0.00  0.00    -0.506 OA
ATOM     21  H   UNL     1      -0.088  -1.037   7.570  0.00  0.00    +0.292 HD
ENDBRANCH  10  20
TORSDOF 4
