REMARK  Name = ZINC21037394
REMARK  7 active torsions:
REMARK  status: ('A' for Active; 'I' for Inactive)
REMARK    1  A    between atoms: C_1  and  C_2
REMARK    2  A    between atoms: C_5  and  N_9
REMARK    3  A    between atoms: N_9  and  S_10
REMARK    4  A    between atoms: S_10  and  C_13
REMARK    5  A    between atoms: C_15  and  N_21
REMARK    6  A    between atoms: C_18  and  O_19
REMARK    7  A    between atoms: O_19  and  C_20
REMARK                            x       y       z     vdW  Elec       q    Type
REMARK                         _______ _______ _______ _____ _____    ______ ____
ROOT
ATOM      1  S   UNL     1      -0.156   1.423  -0.057  0.00  0.00    +0.076 S 
ATOM      2  O   UNL     1       0.030   0.015  -0.018  0.00  0.00    -0.150 OA
ATOM      3  O   UNL     1       0.934   2.336  -0.067  0.00  0.00    -0.150 OA
ENDROOT
BRANCH   1   4
ATOM      4  C   UNL     1      -1.112   1.765  -1.497  0.00  0.00    +0.152 A 
ATOM      5  C   UNL     1      -0.714   2.757  -2.371  0.00  0.00    +0.055 A 
ATOM      6  C   UNL     1      -1.468   3.026  -3.506  0.00  0.00    +0.027 A 
ATOM      7  C   UNL     1      -2.622   2.297  -3.761  0.00  0.00    +0.026 A 
ATOM      8  C   UNL     1      -3.018   1.305  -2.886  0.00  0.00    +0.049 A 
ATOM      9  C   UNL     1      -2.262   1.033  -1.755  0.00  0.00    +0.147 A 
BRANCH   6  10
ATOM     10  N   UNL     1      -1.064   4.031  -4.392  0.00  0.00    -0.358 N 
ATOM     11  H   UNL     1      -1.662   4.244  -5.291  0.00  0.00    +0.142 HD
ATOM     12  H   UNL     1      -0.150   4.609  -4.190  0.00  0.00    +0.142 HD
ENDBRANCH   6  10
BRANCH   9  13
ATOM     13  O   UNL     1      -2.650   0.053  -0.897  0.00  0.00    -0.493 OA
ATOM     14  C   UNL     1      -3.782  -0.732  -1.278  0.00  0.00    +0.277 C 
ENDBRANCH   9  13
ENDBRANCH   1   4
BRANCH   1  15
ATOM     15  N   UNL     1      -1.088   1.814   1.254  0.00  0.00    -0.216 N 
ATOM     16  H   UNL     1      -1.367   1.038   1.982  0.00  0.00    +0.174 HD
BRANCH  15  21
ATOM     17  C   UNL     1      -2.842   7.157   1.993  0.00  0.00    +0.045 C 
ATOM     18  C   UNL     1      -2.376   5.737   1.797  0.00  0.00    -0.032 A 
ATOM     19  C   UNL     1      -1.059   5.483   1.462  0.00  0.00    +0.006 A 
ATOM     20  C   UNL     1      -0.627   4.183   1.287  0.00  0.00    +0.025 A 
ATOM     21  C   UNL     1      -1.521   3.130   1.436  0.00  0.00    +0.049 A 
ATOM     22  C   UNL     1      -2.843   3.387   1.773  0.00  0.00    +0.044 A 
ATOM     23  C   UNL     1      -3.268   4.691   1.952  0.00  0.00    +0.046 A 
ATOM     24 CL   UNL     1      -4.921   5.014   2.373  0.00  0.00    -0.083 Cl
ENDBRANCH  15  21
ENDBRANCH   1  15
TORSDOF 5
