REMARK  Name = ZINC62856669
REMARK  6 active torsions:
REMARK  status: ('A' for Active; 'I' for Inactive)
REMARK    1  A    between atoms: C_1  and  C_2
REMARK    2  A    between atoms: C_2  and  C_3
REMARK    3  A    between atoms: C_3  and  C_9
REMARK    4  A    between atoms: N_11  and  C_12
REMARK    5  A    between atoms: N_11  and  C_14
REMARK    6  A    between atoms: C_12  and  C_13
REMARK                            x       y       z     vdW  Elec       q    Type
REMARK                         _______ _______ _______ _____ _____    ______ ____
ROOT
ATOM      1  C   UNL     1       0.131   0.003  -2.001  0.00  0.00    +0.220 C 
ATOM      2  O   UNL     1      -0.289  -0.997  -2.545  0.00  0.00    -0.275 OA
ATOM      3  N   UNL     1       0.156   1.173  -2.669  0.00  0.00    -0.297 N 
ENDROOT
BRANCH   1   4
ATOM      4  C   UNL     1       0.624  -0.064  -0.579  0.00  0.00    +0.032 C 
ATOM      5  C   UNL     1       0.640  -1.521  -0.110  0.00  0.00    +0.012 C 
ATOM      6  C   UNL     1      -0.791  -2.065  -0.117  0.00  0.00    -0.018 C 
ATOM      7  C   UNL     1      -1.672  -1.181   0.769  0.00  0.00    -0.083 C 
ATOM      8  N   UNL     1      -1.666   0.193   0.253  0.00  0.00    +0.380 N 
ATOM      9  C   UNL     1      -0.309   0.747   0.324  0.00  0.00    -0.066 C 
ATOM     10  H   UNL     1      -1.979   0.193  -0.706  0.00  0.00    -0.086 HD
ATOM     11  H   UNL     1      -2.289   0.762   0.807  0.00  0.00    -0.086 HD
BRANCH   4  13
ATOM     12  C   UNL     1       2.950  -0.237  -1.474  0.00  0.00    +0.005 C 
ATOM     13  C   UNL     1       2.039   0.514  -0.501  0.00  0.00    +0.011 C 
ENDBRANCH   4  13
ENDBRANCH   1   4
BRANCH   3  14
ATOM     14  C   UNL     1      -0.307   1.234  -4.058  0.00  0.00    +0.098 C 
ATOM     15  C   UNL     1       0.868   1.593  -4.982  0.00  0.00    +0.046 C 
ATOM     16  C   UNL     1       0.338   1.972  -6.386  0.00  0.00    +0.168 C 
ATOM     17  S   UNL     1      -1.341   2.627  -6.021  0.00  0.00    -0.029 S 
ATOM     18  O   UNL     1      -2.308   1.795  -6.647  0.00  0.00    -0.174 OA
ATOM     19  O   UNL     1      -1.356   4.026  -6.270  0.00  0.00    -0.174 OA
ATOM     20  C   UNL     1      -1.391   2.340  -4.202  0.00  0.00    +0.188 C 
ENDBRANCH   3  14
BRANCH   3  21
ATOM     21  C   UNL     1       0.647   2.384  -2.007  0.00  0.00    +0.105 C 
ATOM     22  C   UNL     1       2.103   2.630  -2.407  0.00  0.00    +0.024 C 
ENDBRANCH   3  21
TORSDOF 4
