REMARK  Name = ZINC39029696
REMARK  7 active torsions:
REMARK  status: ('A' for Active; 'I' for Inactive)
REMARK    1  A    between atoms: C_4  and  C_7
REMARK    2  A    between atoms: C_7  and  N_8
REMARK    3  A    between atoms: C_9  and  O_32
REMARK    4  A    between atoms: C_12  and  O_31
REMARK    5  A    between atoms: C_14  and  C_18
REMARK    6  A    between atoms: C_18  and  C_20
REMARK    7  A    between atoms: C_21  and  C_22
REMARK                            x       y       z     vdW  Elec       q    Type
REMARK                         _______ _______ _______ _____ _____    ______ ____
ROOT
ATOM      1  N   UNL     1       4.152  -0.952   1.338  0.00  0.00    -0.258 N 
ATOM      2  C   UNL     1       4.982   0.054   1.989  0.00  0.00    +0.283 C 
ATOM      3  N   UNL     1       4.956  -0.119   3.446  0.00  0.00    -0.250 NA
ATOM      4  C   UNL     1       5.290  -1.507   3.805  0.00  0.00    +0.205 C 
ATOM      5  C   UNL     1       4.140  -2.413   3.355  0.00  0.00    +0.189 C 
ATOM      6  C   UNL     1       3.768  -2.086   1.935  0.00  0.00    +0.233 C 
ATOM      7  O   UNL     1       3.101  -2.880   1.308  0.00  0.00    -0.275 OA
ATOM      8  H   UNL     1       5.580   0.531   3.899  0.00  0.00    +0.128 HD
ENDROOT
BRANCH   5   9
ATOM      9  C   UNL     1       4.571  -3.854   3.446  0.00  0.00    +0.172 C 
ATOM     10  O   UNL     1       5.750  -4.141   3.381  0.00  0.00    -0.292 OA
BRANCH   9  11
ATOM     11  C   UNL     1       3.605  -4.872   3.606  0.00  0.00    +0.047 C 
ATOM     12  C   UNL     1       3.995  -6.175   3.688  0.00  0.00    +0.009 C 
BRANCH  12  13
ATOM     13  C   UNL     1       3.034  -7.187   3.847  0.00  0.00    -0.019 C 
ATOM     14  C   UNL     1       3.262  -8.552   3.952  0.00  0.00    +0.003 A 
ATOM     15  C   UNL     1       4.440  -9.333   3.936  0.00  0.00    +0.010 A 
ATOM     16  C   UNL     1       4.368 -10.679   4.060  0.00  0.00    +0.001 A 
ATOM     17  C   UNL     1       3.149 -11.355   4.208  0.00  0.00    +0.002 A 
ATOM     18  C   UNL     1       1.967 -10.699   4.236  0.00  0.00    +0.026 A 
ATOM     19  C   UNL     1       1.958  -9.236   4.108  0.00  0.00    +0.043 A 
ATOM     20  N   UNL     1       0.982  -8.367   4.101  0.00  0.00    -0.380 N 
ATOM     21  C   UNL     1       1.534  -7.017   3.947  0.00  0.00    +0.149 C 
ATOM     22  H   UNL     1       0.040  -8.581   4.188  0.00  0.00    +0.160 HD
ENDBRANCH  12  13
ENDBRANCH   9  11
ENDBRANCH   5   9
BRANCH   4  23
ATOM     23  O   UNL     1       5.463  -1.610   5.220  0.00  0.00    -0.376 OA
ATOM     24  H   UNL     1       6.167  -1.048   5.571  0.00  0.00    +0.211 HD
ENDBRANCH   4  23
BRANCH   2  25
ATOM     25  O   UNL     1       6.327  -0.071   1.524  0.00  0.00    -0.361 OA
ATOM     26  H   UNL     1       6.940   0.567   1.915  0.00  0.00    +0.213 HD
ENDBRANCH   2  25
BRANCH   1  27
ATOM     27  C   UNL     1       3.711  -0.707  -0.038  0.00  0.00    +0.146 C 
BRANCH  27  31
ATOM     28  C   UNL     1      -0.017   1.378   0.010  0.00  0.00    +0.000 A 
ATOM     29  C   UNL     1       1.171   2.086   0.002  0.00  0.00    +0.000 A 
ATOM     30  C   UNL     1       2.377   1.411  -0.013  0.00  0.00    +0.005 A 
ATOM     31  C   UNL     1       2.396   0.029  -0.020  0.00  0.00    -0.030 A 
ATOM     32  C   UNL     1       1.208  -0.679  -0.012  0.00  0.00    +0.005 A 
ATOM     33  C   UNL     1       0.002  -0.004   0.002  0.00  0.00    +0.000 A 
ENDBRANCH  27  31
ENDBRANCH   1  27
TORSDOF 7
