REMARK  Name = ZINC40824760
REMARK  4 active torsions:
REMARK  status: ('A' for Active; 'I' for Inactive)
REMARK    1  A    between atoms: C_1  and  C_2
REMARK    2  A    between atoms: C_6  and  C_7
REMARK    3  A    between atoms: N_12  and  C_15
REMARK    4  A    between atoms: N_25  and  N_26
REMARK                            x       y       z     vdW  Elec       q    Type
REMARK                         _______ _______ _______ _____ _____    ______ ____
ROOT
ATOM      1  C   UNL     1       0.491   1.492   0.055  0.00  0.00    +0.048 C 
ATOM      2  C   UNL     1       0.078   0.043   0.057  0.00  0.00    +0.009 A 
ATOM      3  C   UNL     1      -0.173  -0.762  -1.061  0.00  0.00    +0.042 A 
ATOM      4  C   UNL     1      -0.522  -2.010  -0.602  0.00  0.00    +0.115 A 
ATOM      5  O   UNL     1      -0.486  -1.984   0.728  0.00  0.00    -0.454 OA
ATOM      6  C   UNL     1      -0.122  -0.752   1.152  0.00  0.00    +0.193 A 
ATOM      7  C   UNL     1      -0.872  -3.153  -1.521  0.00  0.00    +0.075 C 
ATOM      8  C   UNL     1      -1.274  -2.600  -2.891  0.00  0.00    +0.014 C 
ATOM      9  C   UNL     1      -0.194  -1.657  -3.431  0.00  0.00    +0.058 C 
ATOM     10  C   UNL     1      -0.109  -0.451  -2.507  0.00  0.00    +0.072 C 
ATOM     11  N   UNL     1       0.010   0.761  -2.954  0.00  0.00    -0.175 NA
ENDROOT
BRANCH  11  12
ATOM     12  N   UNL     1       0.066   0.997  -4.333  0.00  0.00    -0.248 N 
ATOM     13  C   UNL     1       0.191   2.276  -4.805  0.00  0.00    +0.187 C 
ATOM     14  N   UNL     1       0.244   2.500  -6.118  0.00  0.00    -0.370 N 
ATOM     15  N   UNL     1       0.261   3.297  -3.951  0.00  0.00    -0.370 N 
ATOM     16  H   UNL     1       0.015   0.253  -4.955  0.00  0.00    +0.192 HD
ATOM     17  H   UNL     1       0.333   3.406  -6.452  0.00  0.00    +0.159 HD
ATOM     18  H   UNL     1       0.222   3.134  -2.996  0.00  0.00    +0.159 HD
ATOM     19  H   UNL     1       0.350   4.203  -4.285  0.00  0.00    +0.159 HD
ATOM     20  H   UNL     1       0.194   1.757  -6.739  0.00  0.00    +0.159 HD
ENDBRANCH  11  12
BRANCH   6  21
ATOM     21  C   UNL     1       0.030  -0.337   2.551  0.00  0.00    +0.282 C 
ATOM     22  O   UNL     1       0.228   0.833   2.821  0.00  0.00    -0.267 OA
ATOM     23  N   UNL     1      -0.049  -1.252   3.538  0.00  0.00    -0.292 N 
ATOM     24  C   UNL     1      -0.117  -2.687   3.224  0.00  0.00    +0.127 C 
ATOM     25  C   UNL     1       1.018  -3.405   3.964  0.00  0.00    +0.124 C 
ATOM     26  N   UNL     1       0.998  -2.986   5.373  0.00  0.00    -0.327 N 
ATOM     27  C   UNL     1       1.066  -1.552   5.687  0.00  0.00    +0.124 C 
ATOM     28  C   UNL     1      -0.063  -0.834   4.946  0.00  0.00    +0.127 C 
BRANCH  26  29
ATOM     29  C   UNL     1       0.916  -3.934   6.395  0.00  0.00    +0.030 A 
ATOM     30  C   UNL     1       1.047  -5.286   6.103  0.00  0.00    +0.023 A 
ATOM     31  C   UNL     1       0.965  -6.221   7.116  0.00  0.00    +0.002 A 
ATOM     32  C   UNL     1       0.753  -5.813   8.420  0.00  0.00    +0.000 A 
ATOM     33  C   UNL     1       0.623  -4.468   8.715  0.00  0.00    +0.002 A 
ATOM     34  C   UNL     1       0.709  -3.527   7.707  0.00  0.00    +0.023 A 
ENDBRANCH  26  29
ENDBRANCH   6  21
TORSDOF 3
