REMARK  Name = ZINC19472280
REMARK  6 active torsions:
REMARK  status: ('A' for Active; 'I' for Inactive)
REMARK    1  A    between atoms: C_5  and  C_7
REMARK    2  A    between atoms: C_7  and  O_8
REMARK    3  A    between atoms: O_8  and  C_9
REMARK    4  A    between atoms: C_12  and  C_15
REMARK    5  A    between atoms: C_15  and  C_16
REMARK    6  A    between atoms: N_17  and  O_18
REMARK                            x       y       z     vdW  Elec       q    Type
REMARK                         _______ _______ _______ _____ _____    ______ ____
ROOT
ATOM      1  C   UNL     1       5.742   0.413  -0.051  0.00  0.00    +0.121 A 
ATOM      2  C   UNL     1       5.245   0.917  -1.244  0.00  0.00    +0.046 A 
ATOM      3  C   UNL     1       4.282   1.907  -1.227  0.00  0.00    +0.007 A 
ATOM      4  C   UNL     1       3.812   2.395  -0.021  0.00  0.00    -0.040 A 
ATOM      5  C   UNL     1       4.309   1.898   1.169  0.00  0.00    +0.007 A 
ATOM      6  C   UNL     1       5.269   0.905   1.157  0.00  0.00    +0.046 A 
ENDROOT
BRANCH   1   7
ATOM      7  O   UNL     1       6.690  -0.560  -0.065  0.00  0.00    -0.487 OA
BRANCH   7   8
ATOM      8  C   UNL     1       7.155  -1.032   1.202  0.00  0.00    +0.265 C 
BRANCH   8  13
ATOM      9  C   UNL     1       9.505  -3.454  -0.490  0.00  0.00    +0.000 A 
ATOM     10  C   UNL     1      10.104  -4.063   0.597  0.00  0.00    +0.001 A 
ATOM     11  C   UNL     1       9.749  -3.692   1.880  0.00  0.00    +0.015 A 
ATOM     12  C   UNL     1       8.794  -2.710   2.076  0.00  0.00    +0.024 A 
ATOM     13  C   UNL     1       8.195  -2.101   0.988  0.00  0.00    +0.004 A 
ATOM     14  C   UNL     1       8.548  -2.477  -0.294  0.00  0.00    +0.008 A 
ATOM     15 BR   UNL     1       8.306  -2.202   3.831  0.00  0.00    -0.050 Br
ENDBRANCH   8  13
ENDBRANCH   7   8
ENDBRANCH   1   7
BRANCH   4  16
ATOM     16  C   UNL     1       2.760   3.474  -0.006  0.00  0.00    +0.109 C 
BRANCH  16  17
ATOM     17  C   UNL     1       1.392   2.843   0.004  0.00  0.00    +0.136 C 
ATOM     18  N   UNL     1       1.275   1.556  -0.002  0.00  0.00    -0.076 NA
ATOM     19  N   UNL     1       0.267   3.637   0.019  0.00  0.00    -0.344 N 
ATOM     20  H   UNL     1      -0.732   3.176   0.026  0.00  0.00    +0.144 HD
ATOM     21  H   UNL     1       0.367   4.732   0.024  0.00  0.00    +0.144 HD
BRANCH  18  22
ATOM     22  O   UNL     1      -0.011   0.963   0.007  0.00  0.00    -0.408 OA
ATOM     23  H   UNL     1      -0.111  -0.133   0.002  0.00  0.00    +0.328 HD
ENDBRANCH  18  22
ENDBRANCH  16  17
ENDBRANCH   4  16
TORSDOF 6
