REMARK  Name = ZINC55307090
REMARK  4 active torsions:
REMARK  status: ('A' for Active; 'I' for Inactive)
REMARK    1  A    between atoms: C_1  and  C_2
REMARK    2  A    between atoms: C_4  and  C_8
REMARK    3  A    between atoms: C_8  and  N_9
REMARK    4  A    between atoms: C_17  and  C_19
REMARK                            x       y       z     vdW  Elec       q    Type
REMARK                         _______ _______ _______ _____ _____    ______ ____
ROOT
ATOM      1  N   UNL     1       1.421  -3.769  -1.813  0.00  0.00    -0.322 N 
ATOM      2  C   UNL     1       1.685  -4.876  -2.601  0.00  0.00    +0.152 A 
ATOM      3  C   UNL     1       3.002  -5.322  -2.797  0.00  0.00    +0.169 A 
ATOM      4  C   UNL     1       3.210  -6.450  -3.605  0.00  0.00    +0.252 A 
ATOM      5  N   UNL     1       2.160  -7.052  -4.152  0.00  0.00    -0.199 NA
ATOM      6  C   UNL     1       0.941  -6.601  -3.941  0.00  0.00    +0.227 A 
ATOM      7  N   UNL     1       0.696  -5.547  -3.184  0.00  0.00    -0.219 NA
ATOM      8  O   UNL     1       4.540  -6.657  -3.625  0.00  0.00    -0.422 OA
ATOM      9  C   UNL     1       5.124  -5.710  -2.871  0.00  0.00    +0.196 A 
ATOM     10  N   UNL     1       4.225  -4.913  -2.375  0.00  0.00    -0.208 NA
ATOM     11  C   UNL     1       6.608  -5.590  -2.635  0.00  0.00    +0.109 C 
ATOM     12  H   UNL     1       2.151  -3.288  -1.393  0.00  0.00    +0.148 HD
ENDROOT
BRANCH   1  13
ATOM     13  C   UNL     1       0.040  -3.323  -1.615  0.00  0.00    +0.158 C 
BRANCH  13  17
ATOM     14  C   UNL     1      -0.018   1.503   0.010  0.00  0.00    +0.067 C 
ATOM     15  C   UNL     1       0.002  -0.004   0.002  0.00  0.00    +0.060 A 
ATOM     16  C   UNL     1       0.008  -0.818  -1.135  0.00  0.00    +0.049 A 
ATOM     17  C   UNL     1       0.028  -2.107  -0.725  0.00  0.00    +0.053 A 
ATOM     18  N   UNL     1       0.034  -2.109   0.625  0.00  0.00    -0.280 N 
ATOM     19  H   UNL     1       0.048  -2.894   1.194  0.00  0.00    +0.189 HD
ATOM     20  N   UNL     1       0.023  -0.777   1.058  0.00  0.00    -0.179 NA
ENDBRANCH  13  17
ENDBRANCH   1  13
TORSDOF 2
