REMARK  Name = ZINC66595865
REMARK  9 active torsions:
REMARK  status: ('A' for Active; 'I' for Inactive)
REMARK    1  A    between atoms: C_1  and  C_2
REMARK    2  A    between atoms: C_2  and  C_3
REMARK    3  A    between atoms: C_3  and  C_4
REMARK    4  A    between atoms: C_4  and  N_5
REMARK    5  A    between atoms: C_10  and  C_12
REMARK    6  A    between atoms: C_12  and  N_13
REMARK    7  A    between atoms: N_16  and  N_17
REMARK    8  A    between atoms: C_18  and  C_20
REMARK    9  A    between atoms: N_22  and  C_29
REMARK                            x       y       z     vdW  Elec       q    Type
REMARK                         _______ _______ _______ _____ _____    ______ ____
ROOT
ATOM      1  N   UNL     1      -1.030  -3.913   1.301  0.00  0.00    -0.300 N 
ATOM      2  C   UNL     1      -2.350  -4.164   1.194  0.00  0.00    +0.316 C 
ATOM      3  O   UNL     1      -2.921  -4.795   2.063  0.00  0.00    -0.251 OA
ATOM      4  N   UNL     1      -3.036  -3.717   0.124  0.00  0.00    -0.218 N 
ATOM      5  H   UNL     1      -0.589  -3.349   0.647  0.00  0.00    +0.150 HD
ATOM      6  H   UNL     1      -3.998  -3.835   0.081  0.00  0.00    +0.174 HD
ENDROOT
BRANCH   4   7
ATOM      7  N   UNL     1      -2.361  -3.081  -0.926  0.00  0.00    -0.229 N 
ATOM      8  C   UNL     1      -3.057  -2.541  -1.946  0.00  0.00    +0.262 C 
ATOM      9  O   UNL     1      -4.273  -2.525  -1.911  0.00  0.00    -0.269 OA
ATOM     10  H   UNL     1      -1.392  -3.030  -0.919  0.00  0.00    +0.173 HD
BRANCH   8  11
ATOM     11  C   UNL     1      -2.347  -1.973  -3.100  0.00  0.00    +0.063 A 
ATOM     12  C   UNL     1      -1.003  -2.005  -3.329  0.00  0.00    +0.099 A 
ATOM     13  N   UNL     1      -0.721  -1.377  -4.495  0.00  0.00    -0.349 N 
ATOM     14  C   UNL     1      -1.879  -0.906  -5.080  0.00  0.00    +0.050 A 
ATOM     15  C   UNL     1      -2.948  -1.260  -4.242  0.00  0.00    +0.012 A 
ATOM     16  C   UNL     1      -4.251  -0.913  -4.589  0.00  0.00    +0.011 A 
ATOM     17  C   UNL     1      -4.486  -0.226  -5.760  0.00  0.00    +0.001 A 
ATOM     18  C   UNL     1      -3.431   0.121  -6.591  0.00  0.00    +0.002 A 
ATOM     19  C   UNL     1      -2.135  -0.208  -6.255  0.00  0.00    +0.026 A 
ATOM     20  C   UNL     1       0.623  -1.221  -5.057  0.00  0.00    +0.149 C 
ENDBRANCH   8  11
ENDBRANCH   4   7
BRANCH   1  21
ATOM     21  C   UNL     1      -0.261  -4.491   2.406  0.00  0.00    +0.090 C 
BRANCH  21  27
ATOM     22  N   UNL     1       1.749  -4.205   1.041  0.00  0.00    +0.383 N 
ATOM     23  C   UNL     1       3.149  -3.763   1.016  0.00  0.00    -0.078 C 
ATOM     24  C   UNL     1       3.215  -2.252   1.246  0.00  0.00    -0.019 C 
ATOM     25  C   UNL     1       2.596  -1.920   2.607  0.00  0.00    -0.003 C 
ATOM     26  C   UNL     1       1.161  -2.451   2.648  0.00  0.00    -0.014 C 
ATOM     27  C   UNL     1       1.171  -3.955   2.366  0.00  0.00    -0.051 C 
ATOM     28  H   UNL     1       1.226  -3.695   0.345  0.00  0.00    -0.081 HD
BRANCH  22  29
ATOM     29  C   UNL     1       1.686  -5.642   0.743  0.00  0.00    -0.078 C 
BRANCH  29  30
ATOM     30  C   UNL     1       2.184  -5.890  -0.682  0.00  0.00    -0.019 C 
BRANCH  30  32
ATOM     31  C   UNL     1       2.375  -7.589  -2.504  0.00  0.00    +0.004 C 
ATOM     32  C   UNL     1       1.993  -7.366  -1.040  0.00  0.00    -0.005 C 
ENDBRANCH  30  32
ENDBRANCH  29  30
ENDBRANCH  22  29
ENDBRANCH  21  27
ENDBRANCH   1  21
TORSDOF 7
