REMARK  Name = ZINC61594545
REMARK  9 active torsions:
REMARK  status: ('A' for Active; 'I' for Inactive)
REMARK    1  A    between atoms: C_1  and  C_2
REMARK    2  A    between atoms: C_2  and  C_3
REMARK    3  A    between atoms: C_3  and  C_5
REMARK    4  A    between atoms: C_3  and  N_24
REMARK    5  A    between atoms: C_5  and  C_7
REMARK    6  A    between atoms: C_5  and  S_13
REMARK    7  A    between atoms: N_10  and  C_12
REMARK    8  A    between atoms: S_13  and  C_14
REMARK    9  A    between atoms: N_20  and  C_21
REMARK                            x       y       z     vdW  Elec       q    Type
REMARK                         _______ _______ _______ _____ _____    ______ ____
ROOT
ATOM      1  C   UNL     1       0.523  -1.932  -1.110  0.00  0.00    +0.073 C 
ENDROOT
BRANCH   1   2
ATOM      2  C   UNL     1      -0.967  -2.155  -1.137  0.00  0.00    +0.002 A 
ATOM      3  C   UNL     1      -1.843  -1.733  -2.142  0.00  0.00    +0.139 A 
ATOM      4  N   UNL     1      -3.053  -2.111  -1.814  0.00  0.00    -0.180 NA
ATOM      5  N   UNL     1      -2.983  -2.786  -0.589  0.00  0.00    -0.274 N 
ATOM      6  C   UNL     1      -1.692  -2.805  -0.198  0.00  0.00    +0.112 A 
ATOM      7  C   UNL     1      -4.112  -3.374   0.136  0.00  0.00    +0.172 C 
ENDBRANCH   1   2
BRANCH   1   8
ATOM      8  C   UNL     1       0.812  -0.441  -0.928  0.00  0.00    -0.057 C 
BRANCH   8   9
ATOM      9  N   UNL     1       0.121   0.050   0.272  0.00  0.00    +0.381 N 
ATOM     10  H   UNL     1      -0.868  -0.132   0.188  0.00  0.00    -0.090 HD
ATOM     11  H   UNL     1       0.482  -0.425   1.086  0.00  0.00    -0.090 HD
ATOM     12  H   UNL     1       0.274   1.042   0.366  0.00  0.00    -0.090 HD
ENDBRANCH   8   9
BRANCH   8  14
ATOM     13  C   UNL     1       0.727   1.797  -2.036  0.00  0.00    +0.002 C 
ATOM     14  C   UNL     1       0.315   0.328  -2.154  0.00  0.00    -0.018 C 
ENDBRANCH   8  14
ENDBRANCH   1   8
BRANCH   1  15
ATOM     15  S   UNL     1       1.250  -2.503  -2.671  0.00  0.00    -0.079 S 
BRANCH  15  16
ATOM     16  C   UNL     1       2.987  -2.382  -2.403  0.00  0.00    +0.193 A 
ATOM     17  N   UNL     1       3.561  -2.060  -1.280  0.00  0.00    -0.145 NA
ATOM     18  N   UNL     1       4.948  -2.077  -1.481  0.00  0.00    -0.226 N 
ATOM     19  H   UNL     1       5.627  -1.878  -0.817  0.00  0.00    +0.194 HD
ATOM     20  C   UNL     1       5.165  -2.422  -2.767  0.00  0.00    +0.345 A 
ATOM     21  O   UNL     1       6.251  -2.539  -3.307  0.00  0.00    -0.245 OA
ATOM     22  N   UNL     1       3.963  -2.618  -3.344  0.00  0.00    -0.268 N 
BRANCH  22  23
ATOM     23  C   UNL     1       3.734  -3.012  -4.737  0.00  0.00    +0.094 C 
ATOM     24  C   UNL     1       4.954  -3.422  -5.564  0.00  0.00    +0.027 C 
ATOM     25  C   UNL     1       4.264  -2.082  -5.830  0.00  0.00    +0.027 C 
ENDBRANCH  22  23
ENDBRANCH  15  16
ENDBRANCH   1  15
TORSDOF 7
