REMARK  Name = ZINC00064439
REMARK  4 active torsions:
REMARK  status: ('A' for Active; 'I' for Inactive)
REMARK    1  A    between atoms: C_1  and  N_2
REMARK    2  A    between atoms: C_6  and  C_7
REMARK    3  A    between atoms: C_10  and  C_13
REMARK    4  A    between atoms: C_18  and  O_19
REMARK                            x       y       z     vdW  Elec       q    Type
REMARK                         _______ _______ _______ _____ _____    ______ ____
ROOT
ATOM      1  C   UNL     1       1.574   4.329   0.009  0.00  0.00    +0.161 C 
ATOM      2  C   UNL     1       2.211   4.533   1.398  0.00  0.00    +0.089 C 
ATOM      3  C   UNL     1       3.695   4.400   1.141  0.00  0.00    +0.072 C 
ATOM      4  N   UNL     1       3.896   4.170  -0.110  0.00  0.00    -0.190 NA
ATOM      5  N   UNL     1       2.731   4.107  -0.872  0.00  0.00    -0.258 N 
ATOM      6  H   UNL     1       2.690   3.943  -1.827  0.00  0.00    +0.169 HD
ENDROOT
BRANCH   1  12
ATOM      7  C   UNL     1      -1.526   4.349   0.038  0.00  0.00    +0.151 C 
ATOM      8  N   UNL     1      -0.681   3.152   0.024  0.00  0.00    -0.320 N 
ATOM      9  C   UNL     1      -1.114   1.853   0.017  0.00  0.00    +0.129 A 
ATOM     10  C   UNL     1      -0.013   1.076   0.008  0.00  0.00    +0.151 A 
ATOM     11  N   UNL     1       1.062   1.879   0.002  0.00  0.00    -0.237 NA
ATOM     12  C   UNL     1       0.670   3.123   0.012  0.00  0.00    +0.133 A 
ATOM     13 CL   UNL     1      -2.763   1.311   0.021  0.00  0.00    -0.062 Cl
ENDBRANCH   1  12
BRANCH   3  14
ATOM     14  C   UNL     1       4.749   4.515   2.165  0.00  0.00    +0.041 A 
ATOM     15  C   UNL     1       4.410   4.766   3.496  0.00  0.00    +0.033 A 
ATOM     16  C   UNL     1       5.402   4.873   4.450  0.00  0.00    +0.042 A 
ATOM     17  C   UNL     1       6.733   4.731   4.092  0.00  0.00    +0.023 A 
ATOM     18  C   UNL     1       7.080   4.482   2.777  0.00  0.00    +0.047 A 
ATOM     19  C   UNL     1       6.096   4.367   1.809  0.00  0.00    +0.126 A 
ATOM     20 CL   UNL     1       4.981   5.185   6.105  0.00  0.00    -0.084 Cl
BRANCH  19  21
ATOM     21  O   UNL     1       6.436   4.116   0.518  0.00  0.00    -0.506 OA
ATOM     22  H   UNL     1       6.590   4.911  -0.010  0.00  0.00    +0.292 HD
ENDBRANCH  19  21
ENDBRANCH   3  14
TORSDOF 3
