REMARK  Name = ZINC13272511
REMARK  6 active torsions:
REMARK  status: ('A' for Active; 'I' for Inactive)
REMARK    1  A    between atoms: C_3  and  N_18
REMARK    2  A    between atoms: C_4  and  C_16
REMARK    3  A    between atoms: C_6  and  S_7
REMARK    4  A    between atoms: S_7  and  N_10
REMARK    5  A    between atoms: C_24  and  N_28
REMARK    6  A    between atoms: C_25  and  C_26
REMARK                            x       y       z     vdW  Elec       q    Type
REMARK                         _______ _______ _______ _____ _____    ______ ____
ROOT
ATOM      1  C   UNL     1      -1.847   1.028   1.998  0.00  0.00    +0.030 A 
ATOM      2  C   UNL     1      -2.567   1.393   3.118  0.00  0.00    +0.026 A 
ATOM      3  C   UNL     1      -2.372   2.643   3.693  0.00  0.00    +0.044 A 
ATOM      4  C   UNL     1      -1.440   3.529   3.129  0.00  0.00    +0.086 A 
ATOM      5  C   UNL     1      -0.715   3.141   1.999  0.00  0.00    +0.045 A 
ATOM      6  C   UNL     1      -0.927   1.900   1.439  0.00  0.00    +0.106 A 
ENDROOT
BRANCH   3   7
ATOM      7  N   UNL     1      -3.095   3.013   4.819  0.00  0.00    -0.324 N 
ATOM      8  C   UNL     1      -2.843   2.089   5.933  0.00  0.00    +0.110 C 
ATOM      9  C   UNL     1      -3.331   2.705   7.248  0.00  0.00    +0.056 C 
ATOM     10  C   UNL     1      -4.772   3.163   7.052  0.00  0.00    -0.015 A 
ATOM     11  C   UNL     1      -5.270   3.321   5.804  0.00  0.00    +0.013 A 
ATOM     12  S   UNL     1      -6.940   3.847   6.048  0.00  0.00    -0.076 S 
ATOM     13  C   UNL     1      -6.979   3.861   7.781  0.00  0.00    +0.081 A 
ATOM     14  C   UNL     1      -5.697   3.457   8.130  0.00  0.00    +0.083 A 
ATOM     15  C   UNL     1      -4.537   3.090   4.519  0.00  0.00    +0.147 C 
BRANCH  13  16
ATOM     16  N   UNL     1      -8.033   4.195   8.614  0.00  0.00    -0.352 N 
ATOM     17  H   UNL     1      -7.919   4.160   9.577  0.00  0.00    +0.143 HD
ATOM     18  H   UNL     1      -8.884   4.463   8.236  0.00  0.00    +0.143 HD
ENDBRANCH  13  16
BRANCH  14  19
ATOM     19  C   UNL     1      -5.304   3.334   9.502  0.00  0.00    +0.102 C 
ATOM     20  N   UNL     1      -4.992   3.236  10.590  0.00  0.00    -0.191 NA
ENDBRANCH  14  19
ENDBRANCH   3   7
BRANCH   6  21
ATOM     21  S   UNL     1      -0.017   1.417   0.010  0.00  0.00    +0.061 S 
ATOM     22  O   UNL     1       0.002  -0.004   0.002  0.00  0.00    -0.153 OA
ATOM     23  O   UNL     1       1.172   2.195   0.003  0.00  0.00    -0.153 OA
BRANCH  21  24
ATOM     24  N   UNL     1      -0.897   1.885  -1.312  0.00  0.00    -0.172 NA
ATOM     25  C   UNL     1      -1.888   0.984  -1.921  0.00  0.00    +0.137 C 
ATOM     26  C   UNL     1      -3.209   1.756  -2.073  0.00  0.00    +0.177 C 
ATOM     27  O   UNL     1      -2.958   2.982  -2.764  0.00  0.00    -0.377 OA
ATOM     28  C   UNL     1      -2.082   3.875  -2.072  0.00  0.00    +0.177 C 
ATOM     29  C   UNL     1      -0.708   3.214  -1.917  0.00  0.00    +0.137 C 
ENDBRANCH  21  24
ENDBRANCH   6  21
BRANCH   4  30
ATOM     30  C   UNL     1      -1.223   4.857   3.728  0.00  0.00    +0.388 C 
ATOM     31  O   UNL     1      -1.853   5.189   4.714  0.00  0.00    -0.241 OA
ATOM     32  O   UNL     1      -0.328   5.704   3.184  0.00  0.00    -0.241 OA
ENDBRANCH   4  30
TORSDOF 6
