REMARK  Name = ZINC29932987
REMARK  8 active torsions:
REMARK  status: ('A' for Active; 'I' for Inactive)
REMARK    1  A    between atoms: C_1  and  C_2
REMARK    2  A    between atoms: C_4  and  O_24
REMARK    3  A    between atoms: N_9  and  C_10
REMARK    4  A    between atoms: C_10  and  C_11
REMARK    5  A    between atoms: N_16  and  C_17
REMARK    6  A    between atoms: C_17  and  C_18
REMARK    7  A    between atoms: C_18  and  C_19
REMARK    8  A    between atoms: C_18  and  C_20
REMARK                            x       y       z     vdW  Elec       q    Type
REMARK                         _______ _______ _______ _____ _____    ______ ____
ROOT
ATOM      1  C   UNL     1       7.299 -10.179  -2.923  0.00  0.00    +0.045 C 
ATOM      2  C   UNL     1       6.810  -9.708  -4.269  0.00  0.00    -0.033 A 
ATOM      3  C   UNL     1       7.489 -10.050  -5.428  0.00  0.00    +0.091 A 
ATOM      4  C   UNL     1       7.027  -9.609  -6.654  0.00  0.00    +0.285 A 
ATOM      5  O   UNL     1       5.927  -8.853  -6.753  0.00  0.00    -0.425 OA
ATOM      6  C   UNL     1       5.227  -8.492  -5.657  0.00  0.00    +0.141 A 
ATOM      7  C   UNL     1       4.093  -7.719  -5.774  0.00  0.00    +0.072 A 
ATOM      8  C   UNL     1       3.379  -7.349  -4.619  0.00  0.00    +0.039 A 
ATOM      9  N   UNL     1       2.285  -6.597  -4.726  0.00  0.00    -0.376 N 
ATOM     10  C   UNL     1       3.818  -7.779  -3.343  0.00  0.00    +0.026 A 
ATOM     11  C   UNL     1       4.929  -8.543  -3.225  0.00  0.00    +0.014 A 
ATOM     12  C   UNL     1       5.656  -8.915  -4.375  0.00  0.00    +0.021 A 
ATOM     13  H   UNL     1       1.998  -6.181  -5.703  0.00  0.00    +0.160 HD
ENDROOT
BRANCH   4  14
ATOM     14  O   UNL     1       7.699  -9.948  -7.772  0.00  0.00    -0.480 OA
ATOM     15  H   UNL     1       7.342  -9.604  -8.754  0.00  0.00    +0.295 HD
ENDBRANCH   4  14
BRANCH   9  16
ATOM     16  C   UNL     1       1.463  -6.326  -3.544  0.00  0.00    +0.209 C 
BRANCH  16  17
ATOM     17  C   UNL     1       1.502  -4.851  -3.234  0.00  0.00    +0.240 C 
ATOM     18  O   UNL     1       2.151  -4.102  -3.931  0.00  0.00    -0.273 OA
ATOM     19  N   UNL     1       0.814  -4.366  -2.181  0.00  0.00    -0.239 N 
ATOM     20  C   UNL     1       0.848  -3.048  -1.903  0.00  0.00    +0.306 C 
ATOM     21  O   UNL     1       1.499  -2.296  -2.603  0.00  0.00    -0.252 OA
ATOM     22  N   UNL     1       0.161  -2.563  -0.851  0.00  0.00    -0.299 N 
ATOM     23  H   UNL     1       0.225  -5.046  -1.548  0.00  0.00    +0.159 HD
ATOM     24  H   UNL     1      -0.428  -3.243  -0.218  0.00  0.00    +0.150 HD
BRANCH  22  25
ATOM     25  C   UNL     1       0.198  -1.130  -0.549  0.00  0.00    +0.108 C 
BRANCH  25  26
ATOM     26  C   UNL     1      -0.660  -0.846   0.686  0.00  0.00    -0.000 C 
ATOM     27  C   UNL     1      -0.722   0.663   0.927  0.00  0.00    +0.009 C 
ATOM     28  C   UNL     1      -0.041  -1.532   1.905  0.00  0.00    +0.009 C 
ENDBRANCH  25  26
ENDBRANCH  22  25
ENDBRANCH  16  17
ENDBRANCH   9  16
TORSDOF 5
