REMARK  Name = ZINC63486028
REMARK  8 active torsions:
REMARK  status: ('A' for Active; 'I' for Inactive)
REMARK    1  A    between atoms: C_1  and  O_2
REMARK    2  A    between atoms: O_2  and  C_3
REMARK    3  A    between atoms: C_6  and  S_9
REMARK    4  A    between atoms: S_9  and  N_12
REMARK    5  A    between atoms: C_15  and  C_18
REMARK    6  A    between atoms: N_20  and  C_21
REMARK    7  A    between atoms: C_21  and  C_22
REMARK    8  A    between atoms: C_22  and  C_23
REMARK                            x       y       z     vdW  Elec       q    Type
REMARK                         _______ _______ _______ _____ _____    ______ ____
ROOT
ATOM      1  N   UNL     1       4.211  -2.826  -4.180  0.00  0.00    -0.177 NA
ATOM      2  C   UNL     1       5.203  -1.785  -4.484  0.00  0.00    +0.110 C 
ATOM      3  C   UNL     1       6.350  -2.415  -5.280  0.00  0.00    +0.030 C 
ATOM      4  C   UNL     1       6.910  -3.608  -4.502  0.00  0.00    +0.077 C 
ATOM      5  C   UNL     1       5.814  -4.661  -4.320  0.00  0.00    +0.030 C 
ATOM      6  C   UNL     1       4.659  -4.054  -3.509  0.00  0.00    +0.110 C 
ENDROOT
BRANCH   4   7
ATOM      7  C   UNL     1       8.062  -4.210  -5.265  0.00  0.00    +0.216 C 
ATOM      8  O   UNL     1       8.402  -3.731  -6.327  0.00  0.00    -0.276 OA
ATOM      9  N   UNL     1       8.715  -5.279  -4.768  0.00  0.00    -0.315 N 
ATOM     10  H   UNL     1       8.443  -5.662  -3.919  0.00  0.00    +0.149 HD
BRANCH   9  11
ATOM     11  C   UNL     1       9.834  -5.864  -5.511  0.00  0.00    +0.108 C 
BRANCH  11  12
ATOM     12  C   UNL     1      10.394  -7.057  -4.733  0.00  0.00    +0.052 C 
BRANCH  12  13
ATOM     13  C   UNL     1      11.546  -7.658  -5.497  0.00  0.00    -0.040 C 
ATOM     14  C   UNL     1      12.861  -7.396  -5.324  0.00  0.00    -0.001 A 
ATOM     15  C   UNL     1      13.586  -6.506  -4.409  0.00  0.00    +0.010 A 
ATOM     16  C   UNL     1      14.936  -6.456  -4.473  0.00  0.00    +0.001 A 
ATOM     17  C   UNL     1      15.659  -7.232  -5.391  0.00  0.00    +0.002 A 
ATOM     18  C   UNL     1      15.064  -8.073  -6.263  0.00  0.00    +0.026 A 
ATOM     19  C   UNL     1      13.648  -8.205  -6.282  0.00  0.00    +0.043 A 
ATOM     20  N   UNL     1      12.850  -8.938  -7.019  0.00  0.00    -0.380 N 
ATOM     21  C   UNL     1      11.465  -8.682  -6.607  0.00  0.00    +0.144 C 
ATOM     22  H   UNL     1      13.128  -9.551  -7.718  0.00  0.00    +0.160 HD
ENDBRANCH  12  13
ENDBRANCH  11  12
ENDBRANCH   9  11
ENDBRANCH   4   7
BRANCH   1  23
ATOM     23  S   UNL     1       2.618  -2.616  -4.580  0.00  0.00    +0.061 S 
ATOM     24  O   UNL     1       2.051  -3.915  -4.685  0.00  0.00    -0.153 OA
ATOM     25  O   UNL     1       2.587  -1.683  -5.651  0.00  0.00    -0.153 OA
BRANCH  23  29
ATOM     26  C   UNL     1       0.606  -0.607  -1.056  0.00  0.00    +0.120 A 
ATOM     27  C   UNL     1       1.173   0.161  -2.062  0.00  0.00    +0.047 A 
ATOM     28  C   UNL     1       1.786  -0.455  -3.136  0.00  0.00    +0.032 A 
ATOM     29  C   UNL     1       1.835  -1.835  -3.209  0.00  0.00    +0.106 A 
ATOM     30  C   UNL     1       1.270  -2.602  -2.207  0.00  0.00    +0.032 A 
ATOM     31  C   UNL     1       0.661  -1.992  -1.128  0.00  0.00    +0.047 A 
BRANCH  26  33
ATOM     32  C   UNL     1      -0.017   1.425   0.010  0.00  0.00    +0.277 C 
ATOM     33  O   UNL     1       0.002  -0.004   0.002  0.00  0.00    -0.495 OA
ENDBRANCH  26  33
ENDBRANCH  23  29
ENDBRANCH   1  23
TORSDOF 7
