REMARK  Name = ZINC44713982
REMARK  10 active torsions:
REMARK  status: ('A' for Active; 'I' for Inactive)
REMARK    1  A    between atoms: C_1  and  C_2
REMARK    2  A    between atoms: C_2  and  C_3
REMARK    3  A    between atoms: C_3  and  C_5
REMARK    4  A    between atoms: C_3  and  C_11
REMARK    5  A    between atoms: C_15  and  C_24
REMARK    6  A    between atoms: N_26  and  C_27
REMARK    7  A    between atoms: C_27  and  C_29
REMARK    8  A    between atoms: C_27  and  C_30
REMARK    9  A    between atoms: C_31  and  C_37
REMARK   10  A    between atoms: C_35  and  C_36
REMARK                            x       y       z     vdW  Elec       q    Type
REMARK                         _______ _______ _______ _____ _____    ______ ____
ROOT
ATOM      1  C   UNL     1       0.505  -1.715  -1.196  0.00  0.00    +0.223 C 
ATOM      2  O   UNL     1       1.572  -2.292  -1.163  0.00  0.00    -0.275 OA
ATOM      3  N   UNL     1      -0.639  -2.420  -1.295  0.00  0.00    -0.300 N 
ATOM      4  C   UNL     1      -2.025  -1.898  -1.355  0.00  0.00    +0.121 C 
ATOM      5  C   UNL     1      -2.737  -2.801  -2.386  0.00  0.00    +0.100 C 
ATOM      6  C   UNL     1      -1.928  -4.109  -2.388  0.00  0.00    -0.004 C 
ATOM      7  C   UNL     1      -0.796  -3.892  -1.374  0.00  0.00    +0.115 C 
ATOM      8  C   UNL     1      -2.809  -5.277  -1.956  0.00  0.00    -0.010 C 
ATOM      9  C   UNL     1      -1.998  -6.574  -2.022  0.00  0.00    -0.082 C 
ATOM     10  N   UNL     1      -1.514  -6.781  -3.392  0.00  0.00    +0.379 N 
ATOM     11  C   UNL     1      -0.593  -5.701  -3.766  0.00  0.00    -0.082 C 
ATOM     12  C   UNL     1      -1.345  -4.367  -3.774  0.00  0.00    -0.010 C 
ATOM     13  H   UNL     1      -1.032  -7.666  -3.446  0.00  0.00    -0.086 HD
ATOM     14  H   UNL     1      -2.297  -6.788  -4.027  0.00  0.00    -0.086 HD
ENDROOT
BRANCH   5  15
ATOM     15  C   UNL     1      -2.711  -2.162  -3.751  0.00  0.00    +0.219 C 
ATOM     16  O   UNL     1      -1.787  -1.442  -4.065  0.00  0.00    -0.275 OA
ATOM     17  N   UNL     1      -3.713  -2.392  -4.622  0.00  0.00    -0.308 N 
ATOM     18  H   UNL     1      -4.451  -2.968  -4.371  0.00  0.00    +0.149 HD
BRANCH  17  19
ATOM     19  C   UNL     1      -3.686  -1.771  -5.949  0.00  0.00    +0.104 C 
ATOM     20  C   UNL     1      -2.857  -2.636  -6.900  0.00  0.00    +0.033 C 
BRANCH  19  21
ATOM     21  C   UNL     1      -5.093  -1.651  -6.476  0.00  0.00    +0.015 A 
ATOM     22  C   UNL     1      -5.627  -0.565  -7.080  0.00  0.00    +0.038 A 
ATOM     23  N   UNL     1      -6.904  -0.860  -7.402  0.00  0.00    -0.281 N 
ATOM     24  H   UNL     1      -7.532  -0.269  -7.846  0.00  0.00    +0.189 HD
ATOM     25  N   UNL     1      -7.164  -2.171  -6.981  0.00  0.00    -0.179 NA
ATOM     26  C   UNL     1      -6.076  -2.646  -6.431  0.00  0.00    +0.065 A 
ATOM     27  C   UNL     1      -5.911  -4.026  -5.847  0.00  0.00    +0.068 C 
ATOM     28  C   UNL     1      -4.922   0.740  -7.347  0.00  0.00    +0.065 C 
ENDBRANCH  19  21
ENDBRANCH  17  19
ENDBRANCH   5  15
BRANCH   1  29
ATOM     29  C   UNL     1       0.460  -0.210  -1.127  0.00  0.00    +0.105 C 
BRANCH  29  30
ATOM     30  C   UNL     1       1.863   0.330  -1.022  0.00  0.00    -0.036 A 
ATOM     31  C   UNL     1       2.666  -0.033   0.043  0.00  0.00    +0.004 A 
ATOM     32  C   UNL     1       3.953   0.462   0.139  0.00  0.00    +0.000 A 
ATOM     33  C   UNL     1       4.437   1.322  -0.829  0.00  0.00    +0.000 A 
ATOM     34  C   UNL     1       3.634   1.685  -1.895  0.00  0.00    +0.000 A 
ATOM     35  C   UNL     1       2.349   1.185  -1.994  0.00  0.00    +0.004 A 
ENDBRANCH  29  30
BRANCH  29  37
ATOM     36  C   UNL     1      -0.497   1.743   0.102  0.00  0.00    +0.005 C 
ATOM     37  C   UNL     1      -0.345   0.220   0.100  0.00  0.00    +0.014 C 
ENDBRANCH  29  37
ENDBRANCH   1  29
TORSDOF 6
