REMARK  Name = ZINC54961655
REMARK  3 active torsions:
REMARK  status: ('A' for Active; 'I' for Inactive)
REMARK    1  A    between atoms: C_4  and  C_7
REMARK    2  A    between atoms: N_10  and  C_12
REMARK    3  A    between atoms: C_19  and  O_21
REMARK                            x       y       z     vdW  Elec       q    Type
REMARK                         _______ _______ _______ _____ _____    ______ ____
ROOT
ATOM      1  C   UNL     1       3.699  -0.690  -0.037  0.00  0.00    +0.020 A 
ATOM      2  C   UNL     1       4.979  -0.102  -0.041  0.00  0.00    +0.142 A 
ATOM      3  N   UNL     1       5.866  -1.061  -0.056  0.00  0.00    -0.179 NA
ATOM      4  N   UNL     1       5.194  -2.289  -0.063  0.00  0.00    -0.264 N 
ATOM      5  C   UNL     1       3.868  -2.043  -0.046  0.00  0.00    +0.117 A 
ENDROOT
BRANCH   4   6
ATOM      6  C   UNL     1       5.822  -3.612  -0.081  0.00  0.00    +0.158 C 
ATOM      7  C   UNL     1       4.975  -4.572   0.784  0.00  0.00    +0.195 C 
ATOM      8  S   UNL     1       3.987  -5.445  -0.508  0.00  0.00    -0.026 S 
ATOM      9  O   UNL     1       2.874  -4.640  -0.873  0.00  0.00    -0.174 OA
ATOM     10  O   UNL     1       3.783  -6.794  -0.112  0.00  0.00    -0.174 OA
ATOM     11  C   UNL     1       5.252  -5.385  -1.852  0.00  0.00    +0.199 C 
ATOM     12  C   UNL     1       5.970  -4.060  -1.527  0.00  0.00    +0.161 C 
BRANCH  12  13
ATOM     13  O   UNL     1       7.361  -4.217  -1.816  0.00  0.00    -0.388 OA
ATOM     14  H   UNL     1       7.545  -4.502  -2.721  0.00  0.00    +0.210 HD
ENDBRANCH  12  13
ENDBRANCH   4   6
BRANCH   1  18
ATOM     15  C   UNL     1      -0.017   1.379   0.010  0.00  0.00    +0.000 A 
ATOM     16  C   UNL     1       1.169   2.092   0.002  0.00  0.00    +0.001 A 
ATOM     17  C   UNL     1       2.377   1.425  -0.013  0.00  0.00    +0.008 A 
ATOM     18  C   UNL     1       2.402   0.033  -0.021  0.00  0.00    -0.015 A 
ATOM     19  C   UNL     1       1.205  -0.680  -0.013  0.00  0.00    +0.008 A 
ATOM     20  C   UNL     1       0.002  -0.004   0.002  0.00  0.00    +0.001 A 
ENDBRANCH   1  18
TORSDOF 3
