REMARK  Name = ZINC35583436
REMARK  8 active torsions:
REMARK  status: ('A' for Active; 'I' for Inactive)
REMARK    1  A    between atoms: C_1  and  C_2
REMARK    2  A    between atoms: C_2  and  C_3
REMARK    3  A    between atoms: C_3  and  N_4
REMARK    4  A    between atoms: N_4  and  C_5
REMARK    5  A    between atoms: C_5  and  C_7
REMARK    6  A    between atoms: C_5  and  C_16
REMARK    7  A    between atoms: C_18  and  C_22
REMARK    8  A    between atoms: C_20  and  C_21
REMARK                            x       y       z     vdW  Elec       q    Type
REMARK                         _______ _______ _______ _____ _____    ______ ____
ROOT
ATOM      1  C   UNL     1       1.426  -2.440  -2.474  0.00  0.00    -0.009 C 
ENDROOT
BRANCH   1   2
ATOM      2  C   UNL     1       1.555  -3.941  -2.422  0.00  0.00    -0.053 A 
ATOM      3  C   UNL     1       0.506  -4.708  -1.951  0.00  0.00    +0.006 A 
ATOM      4  C   UNL     1       0.619  -6.084  -1.902  0.00  0.00    +0.050 A 
ATOM      5  C   UNL     1       1.786  -6.699  -2.327  0.00  0.00    +0.166 A 
ATOM      6  C   UNL     1       2.843  -5.927  -2.802  0.00  0.00    +0.166 A 
ATOM      7  C   UNL     1       2.720  -4.548  -2.853  0.00  0.00    +0.052 A 
ATOM      8  O   UNL     1       3.867  -6.758  -3.154  0.00  0.00    -0.453 OA
ATOM      9  C   UNL     1       3.582  -8.014  -2.510  0.00  0.00    +0.466 C 
ATOM     10  O   UNL     1       2.148  -8.014  -2.381  0.00  0.00    -0.453 OA
ENDBRANCH   1   2
BRANCH   1  11
ATOM     11  C   UNL     1       0.630  -2.045  -3.691  0.00  0.00    -0.047 A 
ATOM     12  C   UNL     1      -0.709  -1.721  -3.580  0.00  0.00    +0.013 A 
ATOM     13  C   UNL     1      -1.395  -1.370  -4.694  0.00  0.00    -0.013 A 
ATOM     14  S   UNL     1      -0.138  -1.493  -5.956  0.00  0.00    -0.098 S 
ATOM     15  C   UNL     1       1.219  -1.998  -4.911  0.00  0.00    -0.011 A 
ATOM     16  C   UNL     1       2.647  -2.296  -5.288  0.00  0.00    +0.052 C 
ATOM     17  C   UNL     1      -2.844  -0.979  -4.833  0.00  0.00    +0.051 C 
ENDBRANCH   1  11
BRANCH   1  18
ATOM     18  N   UNL     1       0.738  -1.966  -1.265  0.00  0.00    +0.386 N 
ATOM     19  H   UNL     1       1.226  -2.301  -0.447  0.00  0.00    -0.085 HD
ATOM     20  H   UNL     1      -0.208  -2.316  -1.258  0.00  0.00    -0.085 HD
BRANCH  18  21
ATOM     21  C   UNL     1       0.718  -0.497  -1.257  0.00  0.00    -0.082 C 
BRANCH  21  23
ATOM     22  C   UNL     1      -0.019   1.526   0.010  0.00  0.00    +0.002 C 
ATOM     23  C   UNL     1       0.002  -0.004   0.002  0.00  0.00    -0.022 C 
ENDBRANCH  21  23
ENDBRANCH  18  21
ENDBRANCH   1  18
TORSDOF 5
