REMARK  Name = ZINC43298650
REMARK  3 active torsions:
REMARK  status: ('A' for Active; 'I' for Inactive)
REMARK    1  A    between atoms: C_4  and  N_10
REMARK    2  A    between atoms: C_6  and  C_7
REMARK    3  A    between atoms: C_13  and  C_15
REMARK                            x       y       z     vdW  Elec       q    Type
REMARK                         _______ _______ _______ _____ _____    ______ ____
ROOT
ATOM      1  C   UNL     1      -0.017   1.394   0.010  0.00  0.00    +0.031 A 
ATOM      2  C   UNL     1       1.180   2.083   0.002  0.00  0.00    +0.114 A 
ATOM      3  N   UNL     1       2.332   1.442  -0.013  0.00  0.00    -0.236 NA
ATOM      4  C   UNL     1       2.397   0.121  -0.020  0.00  0.00    +0.155 A 
ATOM      5  C   UNL     1       1.241  -0.647  -0.014  0.00  0.00    +0.059 A 
ATOM      6  C   UNL     1       0.002  -0.004   0.002  0.00  0.00    +0.017 A 
ENDROOT
BRANCH   6   7
ATOM      7  C   UNL     1      -1.260  -0.782   0.010  0.00  0.00    +0.094 C 
ATOM      8  N   UNL     1      -2.344  -0.285   0.600  0.00  0.00    -0.387 N 
ATOM      9  N   UNL     1      -1.308  -1.978  -0.572  0.00  0.00    -0.345 N 
ATOM     10  H   UNL     1      -2.309   0.586   1.024  0.00  0.00    +0.157 HD
ATOM     11  H   UNL     1      -0.517  -2.340  -1.002  0.00  0.00    +0.144 HD
ATOM     12  H   UNL     1      -2.133  -2.487  -0.566  0.00  0.00    +0.144 HD
ATOM     13  H   UNL     1      -3.169  -0.795   0.605  0.00  0.00    +0.157 HD
ENDBRANCH   6   7
BRANCH   4  14
ATOM     14  N   UNL     1       3.646  -0.509  -0.035  0.00  0.00    -0.221 N 
ATOM     15  C   UNL     1       4.855   0.110  -0.038  0.00  0.00    +0.117 A 
ATOM     16  C   UNL     1       5.807  -0.851  -0.054  0.00  0.00    +0.054 A 
ATOM     17  C   UNL     1       5.165  -2.094  -0.061  0.00  0.00    +0.166 A 
ATOM     18  N   UNL     1       3.873  -1.891  -0.045  0.00  0.00    -0.161 NA
BRANCH  17  19
ATOM     19  C   UNL     1       5.847  -3.438  -0.079  0.00  0.00    +0.436 C 
ATOM     20  F   UNL     1       6.067  -3.866   1.235  0.00  0.00    -0.164 F 
ATOM     21  F   UNL     1       5.034  -4.364  -0.741  0.00  0.00    -0.164 F 
ATOM     22  F   UNL     1       7.072  -3.331  -0.746  0.00  0.00    -0.164 F 
ENDBRANCH  17  19
ENDBRANCH   4  14
TORSDOF 3
