REMARK  Name = ZINC08964149
REMARK  7 active torsions:
REMARK  status: ('A' for Active; 'I' for Inactive)
REMARK    1  A    between atoms: C_1  and  N_2
REMARK    2  A    between atoms: C_3  and  C_5
REMARK    3  A    between atoms: N_7  and  C_8
REMARK    4  A    between atoms: C_8  and  C_9
REMARK    5  A    between atoms: C_9  and  C_11
REMARK    6  A    between atoms: C_9  and  N_50
REMARK    7  A    between atoms: N_19  and  C_20
REMARK                            x       y       z     vdW  Elec       q    Type
REMARK                         _______ _______ _______ _____ _____    ______ ____
ROOT
ATOM      1  C   UNL     1      -3.381   6.138  -1.056  0.00  0.00    -0.020 C 
ENDROOT
BRANCH   1   2
ATOM      2  C   UNL     1      -2.198   5.422  -0.455  0.00  0.00    -0.059 A 
ATOM      3  C   UNL     1      -1.587   5.925   0.679  0.00  0.00    +0.004 A 
ATOM      4  C   UNL     1      -0.506   5.271   1.234  0.00  0.00    +0.023 A 
ATOM      5  C   UNL     1      -0.023   4.099   0.654  0.00  0.00    +0.033 A 
ATOM      6  C   UNL     1      -0.640   3.606  -0.489  0.00  0.00    -0.025 A 
ATOM      7  C   UNL     1      -1.722   4.262  -1.038  0.00  0.00    +0.007 A 
ATOM      8  C   UNL     1       0.088   2.343  -0.905  0.00  0.00    +0.056 C 
ATOM      9  C   UNL     1       1.411   2.432  -0.110  0.00  0.00    +0.109 C 
ATOM     10  N   UNL     1       1.042   3.275   1.048  0.00  0.00    -0.332 N 
ATOM     11  C   UNL     1       2.188   4.070   1.507  0.00  0.00    +0.129 C 
ENDBRANCH   1   2
BRANCH   1  16
ATOM     12  C   UNL     1      -5.601   7.016  -0.580  0.00  0.00    -0.078 C 
ATOM     13  C   UNL     1      -6.670   6.745   0.508  0.00  0.00    -0.020 C 
ATOM     14  C   UNL     1      -6.291   5.338   1.022  0.00  0.00    -0.020 C 
ATOM     15  C   UNL     1      -4.807   5.160   0.651  0.00  0.00    -0.078 C 
ATOM     16  N   UNL     1      -4.396   6.408   0.006  0.00  0.00    +0.385 N 
ATOM     17  H   UNL     1      -3.992   7.043   0.705  0.00  0.00    -0.081 HD
ENDBRANCH   1  16
BRANCH   1  18
ATOM     18  C   UNL     1      -2.917   7.458  -1.676  0.00  0.00    +0.094 C 
BRANCH  18  21
ATOM     19  C   UNL     1      -3.883   9.281  -2.972  0.00  0.00    +0.299 C 
ATOM     20  O   UNL     1      -2.858   9.907  -2.801  0.00  0.00    -0.265 OA
ATOM     21  N   UNL     1      -4.013   8.045  -2.450  0.00  0.00    -0.309 N 
ATOM     22  H   UNL     1      -4.833   7.545  -2.587  0.00  0.00    +0.149 HD
BRANCH  19  25
ATOM     23  C   UNL     1      -5.968  11.704  -5.057  0.00  0.00    +0.128 C 
ATOM     24  N   UNL     1      -4.872  11.116  -4.283  0.00  0.00    -0.311 N 
ATOM     25  C   UNL     1      -5.002   9.880  -3.761  0.00  0.00    +0.299 C 
ATOM     26  O   UNL     1      -6.027   9.254  -3.932  0.00  0.00    -0.265 OA
ATOM     27  H   UNL     1      -4.052  11.616  -4.146  0.00  0.00    +0.149 HD
ENDBRANCH  19  25
ENDBRANCH  18  21
ENDBRANCH   1  18
TORSDOF 5
