REMARK  Name = ZINC43569888
REMARK  5 active torsions:
REMARK  status: ('A' for Active; 'I' for Inactive)
REMARK    1  A    between atoms: C_1  and  C_2
REMARK    2  A    between atoms: C_2  and  C_4
REMARK    3  A    between atoms: C_2  and  N_13
REMARK    4  A    between atoms: N_9  and  C_10
REMARK    5  A    between atoms: C_10  and  C_11
REMARK                            x       y       z     vdW  Elec       q    Type
REMARK                         _______ _______ _______ _____ _____    ______ ____
ROOT
ATOM      1  C   UNL     1       1.187  -0.207  -0.999  0.00  0.00    +0.034 C 
ATOM      2  C   UNL     1      -0.035  -0.033  -0.096  0.00  0.00    +0.140 C 
ENDROOT
BRANCH   2   3
ATOM      3  N   UNL     1       0.252  -0.593   1.231  0.00  0.00    -0.289 NA
ATOM      4  C   UNL     1       0.191  -2.061   1.207  0.00  0.00    +0.104 C 
ATOM      5  C   UNL     1       0.316  -2.597   2.637  0.00  0.00    +0.122 C 
ATOM      6  N   UNL     1       1.532  -2.035   3.242  0.00  0.00    -0.314 N 
ATOM      7  C   UNL     1       1.730  -0.579   3.183  0.00  0.00    +0.122 C 
ATOM      8  C   UNL     1       1.550  -0.121   1.732  0.00  0.00    +0.104 C 
ATOM      9  C   UNL     1       2.471  -2.858   3.854  0.00  0.00    +0.099 A 
ATOM     10  C   UNL     1       3.544  -2.292   4.536  0.00  0.00    +0.042 A 
ATOM     11  C   UNL     1       4.470  -3.123   5.140  0.00  0.00    +0.005 A 
ATOM     12  C   UNL     1       4.292  -4.497   5.042  0.00  0.00    +0.018 A 
ATOM     13  C   UNL     1       3.204  -4.989   4.349  0.00  0.00    +0.084 A 
ATOM     14  N   UNL     1       2.333  -4.173   3.787  0.00  0.00    -0.350 N 
ATOM     15  H   UNL     1       1.575  -4.545   3.310  0.00  0.00    +0.166 HD
ENDBRANCH   2   3
BRANCH   2  16
ATOM     16  C   UNL     1      -0.356   1.434   0.037  0.00  0.00    +0.237 C 
ATOM     17  O   UNL     1      -0.121   2.014   1.075  0.00  0.00    -0.274 OA
ATOM     18  N   UNL     1      -0.904   2.100  -0.999  0.00  0.00    -0.239 N 
ATOM     19  C   UNL     1      -1.191   3.412  -0.880  0.00  0.00    +0.306 C 
ATOM     20  O   UNL     1      -0.955   3.994   0.161  0.00  0.00    -0.252 OA
ATOM     21  N   UNL     1      -1.738   4.079  -1.915  0.00  0.00    -0.296 N 
ATOM     22  H   UNL     1      -1.091   1.636  -1.830  0.00  0.00    +0.159 HD
ATOM     23  H   UNL     1      -1.926   3.614  -2.746  0.00  0.00    +0.151 HD
BRANCH  21  24
ATOM     24  C   UNL     1      -2.050   5.504  -1.786  0.00  0.00    +0.132 C 
BRANCH  24  25
ATOM     25  C   UNL     1      -2.649   6.006  -3.075  0.00  0.00    -0.016 C 
ATOM     26  C   UNL     1      -3.814   6.606  -3.066  0.00  0.00    +0.005 C 
ENDBRANCH  24  25
ENDBRANCH  21  24
ENDBRANCH   2  16
TORSDOF 4
