REMARK  Name = ZINC61122203
REMARK  4 active torsions:
REMARK  status: ('A' for Active; 'I' for Inactive)
REMARK    1  A    between atoms: C_1  and  C_2
REMARK    2  A    between atoms: C_4  and  N_9
REMARK    3  A    between atoms: C_10  and  C_14
REMARK    4  A    between atoms: C_18  and  N_20
REMARK                            x       y       z     vdW  Elec       q    Type
REMARK                         _______ _______ _______ _____ _____    ______ ____
ROOT
ATOM      1  N   UNL     1       0.191  -2.666  -2.504  0.00  0.00    -0.193 N 
ATOM      2  C   UNL     1       0.734  -3.897  -2.733  0.00  0.00    +0.187 A 
ATOM      3  N   UNL     1       0.279  -4.305  -3.899  0.00  0.00    -0.108 NA
ATOM      4  N   UNL     1      -0.503  -3.425  -4.411  0.00  0.00    -0.022 NA
ATOM      5  N   UNL     1      -0.614  -2.407  -3.628  0.00  0.00    -0.039 NA
ENDROOT
BRANCH   1   9
ATOM      6  C   UNL     1      -1.667   0.325   0.929  0.00  0.00    +0.047 C 
ATOM      7  C   UNL     1      -0.496  -0.380   0.295  0.00  0.00    -0.013 A 
ATOM      8  C   UNL     1      -0.692  -1.192  -0.805  0.00  0.00    +0.034 A 
ATOM      9  C   UNL     1       0.388  -1.841  -1.388  0.00  0.00    +0.070 A 
ATOM     10  C   UNL     1       1.663  -1.673  -0.864  0.00  0.00    +0.031 A 
ATOM     11  C   UNL     1       1.855  -0.861   0.236  0.00  0.00    +0.041 A 
ATOM     12  C   UNL     1       0.777  -0.209   0.813  0.00  0.00    +0.126 A 
ATOM     13  F   UNL     1       0.967   0.589   1.886  0.00  0.00    -0.205 F 
ENDBRANCH   1   9
BRANCH   2  14
ATOM     14  C   UNL     1       1.658  -4.631  -1.841  0.00  0.00    +0.023 A 
ATOM     15  C   UNL     1       1.572  -4.469  -0.458  0.00  0.00    +0.014 A 
ATOM     16  C   UNL     1       2.434  -5.155   0.373  0.00  0.00    +0.041 A 
ATOM     17  C   UNL     1       3.386  -6.006  -0.162  0.00  0.00    +0.144 A 
ATOM     18  C   UNL     1       3.480  -6.173  -1.540  0.00  0.00    +0.061 A 
ATOM     19  C   UNL     1       2.614  -5.492  -2.381  0.00  0.00    +0.037 A 
ATOM     20  F   UNL     1       4.228  -6.675   0.656  0.00  0.00    -0.204 F 
BRANCH  18  21
ATOM     21  N   UNL     1       4.443  -7.033  -2.077  0.00  0.00    -0.356 N 
ATOM     22  H   UNL     1       5.047  -7.513  -1.489  0.00  0.00    +0.142 HD
ATOM     23  H   UNL     1       4.508  -7.150  -3.038  0.00  0.00    +0.142 HD
ENDBRANCH  18  21
ENDBRANCH   2  14
TORSDOF 3
