REMARK  Name = ZINC40659945
REMARK  9 active torsions:
REMARK  status: ('A' for Active; 'I' for Inactive)
REMARK    1  A    between atoms: C_1  and  C_2
REMARK    2  A    between atoms: C_11  and  N_12
REMARK    3  A    between atoms: C_14  and  N_25
REMARK    4  A    between atoms: C_15  and  N_19
REMARK    5  A    between atoms: N_19  and  N_20
REMARK    6  A    between atoms: N_20  and  C_21
REMARK    7  A    between atoms: C_21  and  C_22
REMARK    8  A    between atoms: C_21  and  C_23
REMARK    9  A    between atoms: C_21  and  C_24
REMARK                            x       y       z     vdW  Elec       q    Type
REMARK                         _______ _______ _______ _____ _____    ______ ____
ROOT
ATOM      1  N   UNL     1       0.064  -4.885  -1.143  0.00  0.00    -0.297 N 
ATOM      2  C   UNL     1       0.189  -6.266  -1.088  0.00  0.00    +0.159 A 
ATOM      3  C   UNL     1       0.304  -7.012  -2.257  0.00  0.00    +0.207 A 
ATOM      4  C   UNL     1       0.428  -8.394  -2.147  0.00  0.00    +0.168 A 
ATOM      5  N   UNL     1       0.431  -8.948  -0.937  0.00  0.00    -0.217 NA
ATOM      6  C   UNL     1       0.319  -8.207   0.147  0.00  0.00    +0.225 A 
ATOM      7  N   UNL     1       0.206  -6.896   0.085  0.00  0.00    -0.218 NA
ATOM      8  H   UNL     1      -0.030  -4.441  -2.000  0.00  0.00    +0.154 HD
ENDROOT
BRANCH   1  19
ATOM      9  C   UNL     1      -2.362   0.939   0.385  0.00  0.00    +0.063 C 
ATOM     10  C   UNL     1      -1.716  -0.418   0.277  0.00  0.00    +0.013 A 
ATOM     11  C   UNL     1      -1.771  -1.101  -0.935  0.00  0.00    +0.021 A 
ATOM     12  C   UNL     1      -1.189  -2.333  -1.051  0.00  0.00    +0.013 A 
ATOM     13  C   UNL     1      -0.548  -2.872   0.076  0.00  0.00    +0.020 A 
ATOM     14  C   UNL     1      -0.528  -2.125   1.280  0.00  0.00    +0.048 A 
ATOM     15  N   UNL     1      -1.112  -0.923   1.326  0.00  0.00    -0.358 N 
ATOM     16  C   UNL     1       0.113  -2.661   2.410  0.00  0.00    +0.026 A 
ATOM     17  C   UNL     1       0.706  -3.885   2.341  0.00  0.00    +0.004 A 
ATOM     18  C   UNL     1       0.693  -4.627   1.164  0.00  0.00    +0.024 A 
ATOM     19  C   UNL     1       0.075  -4.137   0.032  0.00  0.00    +0.042 A 
ATOM     20  H   UNL     1      -1.091  -0.415   2.152  0.00  0.00    +0.166 HD
ENDBRANCH   1  19
BRANCH   3  21
ATOM     21  N   UNL     1       0.296  -6.353  -3.582  0.00  0.00    +0.063 N 
ATOM     22  O   UNL     1       1.334  -5.987  -4.082  0.00  0.00    -0.126 OA
ATOM     23  O   UNL     1      -0.749  -6.180  -4.165  0.00  0.00    -0.126 OA
ENDBRANCH   3  21
BRANCH   4  24
ATOM     24  N   UNL     1       0.545  -9.181  -3.282  0.00  0.00    -0.262 N 
ATOM     25  H   UNL     1       0.542  -8.770  -4.161  0.00  0.00    +0.168 HD
BRANCH  24  26
ATOM     26  N   UNL     1       0.665 -10.537  -3.163  0.00  0.00    -0.236 NA
ATOM     27  H   UNL     1      -0.105 -10.924  -2.639  0.00  0.00    +0.145 HD
BRANCH  26  28
ATOM     28  C   UNL     1       0.776 -11.173  -4.483  0.00  0.00    +0.028 C 
ATOM     29  C   UNL     1       2.010 -10.633  -5.207  0.00  0.00    +0.029 C 
ATOM     30  C   UNL     1       0.909 -12.688  -4.309  0.00  0.00    +0.029 C 
ATOM     31  C   UNL     1      -0.476 -10.862  -5.306  0.00  0.00    +0.029 C 
ENDBRANCH  26  28
ENDBRANCH  24  26
ENDBRANCH   4  24
TORSDOF 5
