REMARK  Name = ZINC14981404
REMARK  8 active torsions:
REMARK  status: ('A' for Active; 'I' for Inactive)
REMARK    1  A    between atoms: C_1  and  C_2
REMARK    2  A    between atoms: C_2  and  C_3
REMARK    3  A    between atoms: C_2  and  C_4
REMARK    4  A    between atoms: C_2  and  C_5
REMARK    5  A    between atoms: C_5  and  N_6
REMARK    6  A    between atoms: C_10  and  C_13
REMARK    7  A    between atoms: C_10  and  O_20
REMARK    8  A    between atoms: C_13  and  N_51
REMARK                            x       y       z     vdW  Elec       q    Type
REMARK                         _______ _______ _______ _____ _____    ______ ____
ROOT
ATOM      1  N   UNL     1      -3.204   6.332  -1.950  0.00  0.00    -0.299 N 
ATOM      2  C   UNL     1      -2.880   7.743  -2.121  0.00  0.00    +0.108 C 
ATOM      3  C   UNL     1      -2.658   8.409  -0.762  0.00  0.00    +0.022 C 
ATOM      4  C   UNL     1      -1.660   7.565   0.041  0.00  0.00    +0.044 C 
ATOM      5  C   UNL     1      -2.324   6.230   0.387  0.00  0.00    +0.127 C 
ATOM      6  C   UNL     1      -2.943   5.633  -0.845  0.00  0.00    +0.245 C 
ATOM      7  O   UNL     1      -3.222   4.453  -0.833  0.00  0.00    -0.273 OA
ENDROOT
BRANCH   5   8
ATOM      8  O   UNL     1      -3.339   6.445   1.370  0.00  0.00    -0.381 OA
ATOM      9  H   UNL     1      -4.041   7.046   1.085  0.00  0.00    +0.211 HD
ENDBRANCH   5   8
BRANCH   1  10
ATOM     10  C   UNL     1      -3.856   5.638  -3.064  0.00  0.00    +0.114 C 
BRANCH  10  12
ATOM     11  C   UNL     1      -5.790   7.189  -2.759  0.00  0.00    +0.012 C 
ATOM     12  C   UNL     1      -5.374   5.724  -2.899  0.00  0.00    -0.022 C 
ATOM     13  C   UNL     1      -6.056   5.115  -4.126  0.00  0.00    +0.012 C 
ATOM     14  C   UNL     1      -5.796   4.952  -1.647  0.00  0.00    +0.012 C 
ENDBRANCH  10  12
ENDBRANCH   1  10
BRANCH   5  15
ATOM     15  C   UNL     1      -1.272   5.269   0.944  0.00  0.00    -0.034 C 
BRANCH  15  22
ATOM     16  C   UNL     1      -2.833   4.029   2.336  0.00  0.00    -0.076 C 
ATOM     17  C   UNL     1      -3.268   2.669   2.827  0.00  0.00    +0.009 C 
ATOM     18  C   UNL     1      -2.319   2.214   3.961  0.00  0.00    +0.158 C 
ATOM     19  O   UNL     1      -1.103   1.849   3.457  0.00  0.00    -0.382 OA
ATOM     20  C   UNL     1      -0.341   2.845   2.760  0.00  0.00    +0.141 C 
ATOM     21  C   UNL     1      -0.865   2.912   1.345  0.00  0.00    -0.050 C 
ATOM     22  N   UNL     1      -1.914   3.959   1.156  0.00  0.00    +0.383 N 
ATOM     23  H   UNL     1      -2.468   3.722   0.325  0.00  0.00    -0.082 HD
ENDBRANCH  15  22
ENDBRANCH   5  15
TORSDOF 5
