REMARK  Name = ZINC18252048
REMARK  4 active torsions:
REMARK  status: ('A' for Active; 'I' for Inactive)
REMARK    1  A    between atoms: C_4  and  N_7
REMARK    2  A    between atoms: N_9  and  C_16
REMARK    3  A    between atoms: N_11  and  O_12
REMARK    4  A    between atoms: N_14  and  O_15
REMARK                            x       y       z     vdW  Elec       q    Type
REMARK                         _______ _______ _______ _____ _____    ______ ____
ROOT
ATOM      1  N   UNL     1       3.809  -0.533   0.409  0.00  0.00    -0.263 N 
ATOM      2  C   UNL     1       3.880  -1.994   0.510  0.00  0.00    +0.227 C 
ATOM      3  N   UNL     1       5.076  -2.425  -0.220  0.00  0.00    -0.263 N 
ATOM      4  C   UNL     1       5.690  -1.292  -0.731  0.00  0.00    +0.210 C 
ATOM      5  N   UNL     1       6.782  -1.273  -1.438  0.00  0.00    -0.068 NA
ATOM      6  C   UNL     1       4.895  -0.109  -0.342  0.00  0.00    +0.210 C 
ATOM      7  N   UNL     1       5.168   1.125  -0.650  0.00  0.00    -0.068 NA
ENDROOT
BRANCH   1  11
ATOM      8  C   UNL     1       0.866   1.903   2.065  0.00  0.00    +0.000 A 
ATOM      9  C   UNL     1       1.897   2.466   1.336  0.00  0.00    +0.002 A 
ATOM     10  C   UNL     1       2.875   1.661   0.785  0.00  0.00    +0.023 A 
ATOM     11  C   UNL     1       2.822   0.284   0.965  0.00  0.00    +0.037 A 
ATOM     12  C   UNL     1       1.784  -0.278   1.698  0.00  0.00    +0.023 A 
ATOM     13  C   UNL     1       0.810   0.533   2.246  0.00  0.00    +0.002 A 
ENDBRANCH   1  11
BRANCH   3  14
ATOM     14  C   UNL     1       5.519  -3.741  -0.373  0.00  0.00    +0.037 A 
ATOM     15  C   UNL     1       5.100  -4.494  -1.463  0.00  0.00    +0.023 A 
ATOM     16  C   UNL     1       5.539  -5.795  -1.611  0.00  0.00    +0.002 A 
ATOM     17  C   UNL     1       6.395  -6.348  -0.676  0.00  0.00    +0.000 A 
ATOM     18  C   UNL     1       6.813  -5.602   0.410  0.00  0.00    +0.002 A 
ATOM     19  C   UNL     1       6.383  -4.298   0.561  0.00  0.00    +0.023 A 
ENDBRANCH   3  14
BRANCH   5  20
ATOM     20  O   UNL     1       7.506  -2.471  -1.654  0.00  0.00    -0.408 OA
ATOM     21  H   UNL     1       8.332  -2.348  -2.142  0.00  0.00    +0.328 HD
ENDBRANCH   5  20
BRANCH   7  22
ATOM     22  O   UNL     1       6.314   1.423  -1.427  0.00  0.00    -0.408 OA
ATOM     23  H   UNL     1       6.434   2.366  -1.605  0.00  0.00    +0.328 HD
ENDBRANCH   7  22
TORSDOF 4
