REMARK  Name = ZINC44535205
REMARK  8 active torsions:
REMARK  status: ('A' for Active; 'I' for Inactive)
REMARK    1  A    between atoms: C_1  and  C_2
REMARK    2  A    between atoms: C_2  and  C_3
REMARK    3  A    between atoms: C_2  and  C_4
REMARK    4  A    between atoms: C_2  and  C_5
REMARK    5  A    between atoms: C_11  and  N_13
REMARK    6  A    between atoms: N_13  and  C_14
REMARK    7  A    between atoms: C_14  and  C_15
REMARK    8  A    between atoms: N_20  and  C_22
REMARK                            x       y       z     vdW  Elec       q    Type
REMARK                         _______ _______ _______ _____ _____    ______ ____
ROOT
ATOM      1  N   UNL     1       2.893  -0.542  -0.361  0.00  0.00    +0.381 N 
ATOM      2  H   UNL     1       2.494  -0.282   0.528  0.00  0.00    -0.086 HD
ATOM      3  H   UNL     1       2.867  -1.546  -0.461  0.00  0.00    -0.086 HD
ENDROOT
BRANCH   1   9
ATOM      4  C   UNL     1       0.670  -0.411  -1.381  0.00  0.00    -0.020 C 
ATOM      5  C   UNL     1       0.638  -1.933  -1.537  0.00  0.00    +0.002 C 
ATOM      6  C   UNL     1       1.248  -2.320  -2.886  0.00  0.00    +0.000 C 
ATOM      7  C   UNL     1       2.696  -1.831  -2.950  0.00  0.00    -0.002 C 
ATOM      8  C   UNL     1       2.728  -0.309  -2.794  0.00  0.00    -0.015 C 
ATOM      9  C   UNL     1       2.119   0.078  -1.445  0.00  0.00    -0.068 C 
BRANCH   4  11
ATOM     10  C   UNL     1       0.629   1.324   0.417  0.00  0.00    +0.011 C 
ATOM     11  C   UNL     1       0.060  -0.024  -0.032  0.00  0.00    -0.036 C 
ATOM     12  C   UNL     1       0.402  -1.093   1.008  0.00  0.00    +0.011 C 
ATOM     13  C   UNL     1      -1.459   0.084  -0.171  0.00  0.00    +0.011 C 
ENDBRANCH   4  11
ENDBRANCH   1   9
BRANCH   1  14
ATOM     14  C   UNL     1       4.285  -0.079  -0.428  0.00  0.00    -0.081 C 
BRANCH  14  15
ATOM     15  C   UNL     1       5.092  -0.725   0.701  0.00  0.00    -0.045 C 
ATOM     16  C   UNL     1       4.567  -0.231   2.052  0.00  0.00    -0.002 C 
ATOM     17  C   UNL     1       5.431  -0.821   3.170  0.00  0.00    -0.018 C 
ATOM     18  C   UNL     1       6.892  -0.432   2.939  0.00  0.00    -0.079 C 
ATOM     19  N   UNL     1       7.342  -0.955   1.643  0.00  0.00    +0.378 N 
ATOM     20  C   UNL     1       6.566  -0.340   0.560  0.00  0.00    -0.078 C 
ATOM     21  C   UNL     1       8.767  -0.646   1.460  0.00  0.00    -0.096 C 
ATOM     22  H   UNL     1       7.212  -1.956   1.622  0.00  0.00    -0.082 HD
ENDBRANCH  14  15
ENDBRANCH   1  14
TORSDOF 4
