REMARK  Name = ZINC35572016
REMARK  6 active torsions:
REMARK  status: ('A' for Active; 'I' for Inactive)
REMARK    1  A    between atoms: C_1  and  C_2
REMARK    2  A    between atoms: C_2  and  N_3
REMARK    3  A    between atoms: N_3  and  C_4
REMARK    4  A    between atoms: C_4  and  C_6
REMARK    5  A    between atoms: C_4  and  C_17
REMARK    6  A    between atoms: C_20  and  C_22
REMARK                            x       y       z     vdW  Elec       q    Type
REMARK                         _______ _______ _______ _____ _____    ______ ____
ROOT
ATOM      1  C   UNL     1      -2.021  -1.198  -0.090  0.00  0.00    -0.042 A 
ATOM      2  C   UNL     1      -3.035  -0.421  -0.623  0.00  0.00    +0.009 A 
ATOM      3  C   UNL     1      -4.327  -0.575  -0.173  0.00  0.00    -0.017 A 
ATOM      4  C   UNL     1      -4.631  -1.505   0.814  0.00  0.00    +0.038 A 
ATOM      5  C   UNL     1      -3.605  -2.284   1.346  0.00  0.00    +0.043 A 
ATOM      6  C   UNL     1      -2.311  -2.132   0.889  0.00  0.00    +0.044 A 
ATOM      7 CL   UNL     1      -1.040  -3.111   1.552  0.00  0.00    -0.083 Cl
ATOM      8  N   UNL     1      -5.996  -1.477   1.099  0.00  0.00    -0.285 N 
ATOM      9  C   UNL     1      -6.652  -0.570   0.356  0.00  0.00    +0.222 C 
ATOM     10  O   UNL     1      -7.841  -0.331   0.394  0.00  0.00    -0.275 OA
ATOM     11  C   UNL     1      -5.629   0.099  -0.538  0.00  0.00    +0.133 C 
ATOM     12  H   UNL     1      -6.423  -2.047   1.758  0.00  0.00    +0.155 HD
ENDROOT
BRANCH   1  13
ATOM     13  C   UNL     1      -0.605  -1.032  -0.580  0.00  0.00    -0.036 C 
BRANCH  13  14
ATOM     14  C   UNL     1      -0.186  -2.279  -1.360  0.00  0.00    -0.018 C 
ATOM     15  C   UNL     1       0.239  -2.091  -2.818  0.00  0.00    +0.006 C 
ATOM     16  C   UNL     1      -1.104  -2.747  -2.490  0.00  0.00    -0.012 C 
ATOM     17  C   UNL     1      -2.372  -1.933  -2.753  0.00  0.00    +0.008 C 
ENDBRANCH  13  14
BRANCH  13  18
ATOM     18  N   UNL     1      -0.525   0.144  -1.456  0.00  0.00    +0.384 N 
ATOM     19  H   UNL     1      -1.279   0.778  -1.238  0.00  0.00    -0.085 HD
ATOM     20  H   UNL     1      -0.599  -0.148  -2.419  0.00  0.00    -0.085 HD
BRANCH  18  22
ATOM     21  C   UNL     1       0.919   1.943  -2.279  0.00  0.00    -0.017 C 
ATOM     22  C   UNL     1       0.761   0.824  -1.249  0.00  0.00    -0.085 C 
ENDBRANCH  18  22
ENDBRANCH  13  18
ENDBRANCH   1  13
TORSDOF 4
