REMARK  Name = ZINC37675270
REMARK  3 active torsions:
REMARK  status: ('A' for Active; 'I' for Inactive)
REMARK    1  A    between atoms: C_6  and  C_7
REMARK    2  A    between atoms: C_7  and  C_9
REMARK    3  A    between atoms: C_7  and  N_12
REMARK                            x       y       z     vdW  Elec       q    Type
REMARK                         _______ _______ _______ _____ _____    ______ ____
ROOT
ATOM      1  C   UNL     1      -0.017   1.378   0.010  0.00  0.00    +0.006 A 
ATOM      2  C   UNL     1       1.170   2.091   0.002  0.00  0.00    +0.049 A 
ATOM      3  C   UNL     1       2.377   1.413  -0.013  0.00  0.00    +0.162 A 
ATOM      4  C   UNL     1       2.396   0.025  -0.020  0.00  0.00    +0.162 A 
ATOM      5  C   UNL     1       1.207  -0.684  -0.013  0.00  0.00    +0.052 A 
ATOM      6  C   UNL     1       0.002  -0.004   0.002  0.00  0.00    -0.047 A 
ATOM      7  O   UNL     1       3.591  -0.632  -0.034  0.00  0.00    -0.488 OA
ATOM      8  C   UNL     1       4.358  -0.510  -1.234  0.00  0.00    +0.232 C 
ATOM      9  C   UNL     1       5.186   0.764  -1.217  0.00  0.00    +0.082 C 
ATOM     10  C   UNL     1       4.323   2.016  -1.220  0.00  0.00    +0.232 C 
ATOM     11  O   UNL     1       3.554   2.104  -0.019  0.00  0.00    -0.488 OA
ENDROOT
BRANCH   6  12
ATOM     12  C   UNL     1      -1.294  -0.773   0.010  0.00  0.00    +0.078 C 
BRANCH  12  13
ATOM     13  N   UNL     1      -2.248  -0.115   0.913  0.00  0.00    +0.391 N 
ATOM     14  C   UNL     1      -3.501  -0.908   1.000  0.00  0.00    -0.077 C 
ATOM     15  C   UNL     1      -4.124  -0.439   2.339  0.00  0.00    -0.020 C 
ATOM     16  C   UNL     1      -2.889  -0.257   3.251  0.00  0.00    -0.020 C 
ATOM     17  C   UNL     1      -1.702  -0.070   2.287  0.00  0.00    -0.077 C 
ATOM     18  H   UNL     1      -2.448   0.819   0.588  0.00  0.00    -0.080 HD
ENDBRANCH  12  13
BRANCH  12  19
ATOM     19  C   UNL     1      -1.865  -0.809  -1.384  0.00  0.00    +0.347 C 
ATOM     20  O   UNL     1      -1.568  -1.718  -2.141  0.00  0.00    -0.248 OA
ATOM     21  O   UNL     1      -2.625   0.069  -1.755  0.00  0.00    -0.248 OA
ENDBRANCH  12  19
ENDBRANCH   6  12
TORSDOF 3
