REMARK  Name = ZINC05945446
REMARK  6 active torsions:
REMARK  status: ('A' for Active; 'I' for Inactive)
REMARK    1  A    between atoms: C_1  and  C_2
REMARK    2  A    between atoms: C_2  and  C_34
REMARK    3  A    between atoms: N_16  and  C_19
REMARK    4  A    between atoms: C_20  and  C_32
REMARK    5  A    between atoms: C_21  and  N_31
REMARK    6  A    between atoms: N_22  and  C_23
REMARK                            x       y       z     vdW  Elec       q    Type
REMARK                         _______ _______ _______ _____ _____    ______ ____
ROOT
ATOM      1  C   UNL     1       1.325  -0.075  -2.233  0.00  0.00    +0.011 C 
ATOM      2  C   UNL     1       0.812  -1.379  -1.619  0.00  0.00    -0.023 C 
ATOM      3  C   UNL     1      -0.618  -1.183  -1.113  0.00  0.00    +0.058 C 
ATOM      4  C   UNL     1      -1.105  -2.454  -0.462  0.00  0.00    +0.026 C 
ATOM      5  C   UNL     1      -0.246  -3.292   0.156  0.00  0.00    +0.037 C 
ATOM      6  C   UNL     1       1.130  -3.008   0.212  0.00  0.00    +0.163 C 
ATOM      7  O   UNL     1       1.875  -3.775   0.790  0.00  0.00    -0.292 OA
ATOM      8  C   UNL     1       1.697  -1.773  -0.432  0.00  0.00    +0.086 C 
ATOM      9  C   UNL     1      -0.738  -4.561   0.804  0.00  0.00    +0.141 C 
ATOM     10  C   UNL     1      -0.353  -5.753  -0.018  0.00  0.00    -0.001 A 
ATOM     11  C   UNL     1      -0.695  -6.124  -1.300  0.00  0.00    +0.007 A 
ATOM     12  C   UNL     1      -0.156  -7.315  -1.776  0.00  0.00    +0.000 A 
ATOM     13  C   UNL     1       0.681  -8.087  -0.997  0.00  0.00    +0.002 A 
ATOM     14  C   UNL     1       1.028  -7.720   0.294  0.00  0.00    +0.024 A 
ATOM     15  C   UNL     1       0.495  -6.526   0.783  0.00  0.00    +0.041 A 
ATOM     16  N   UNL     1       0.670  -5.927   2.018  0.00  0.00    -0.273 N 
ATOM     17  C   UNL     1      -0.016  -4.770   2.120  0.00  0.00    +0.240 C 
ATOM     18  O   UNL     1      -0.049  -4.035   3.084  0.00  0.00    -0.274 OA
ATOM     19  C   UNL     1       1.502  -6.483   3.087  0.00  0.00    +0.138 C 
ATOM     20  C   UNL     1      -2.219  -4.524   1.032  0.00  0.00    +0.089 C 
ATOM     21  C   UNL     1      -3.005  -3.632   0.376  0.00  0.00    +0.108 C 
ATOM     22  N   UNL     1      -2.445  -2.738  -0.509  0.00  0.00    -0.260 N 
ATOM     23  C   UNL     1       0.842  -2.489  -2.672  0.00  0.00    +0.011 C 
ENDROOT
BRANCH  22  24
ATOM     24  C   UNL     1      -3.252  -2.112  -1.466  0.00  0.00    +0.042 A 
ATOM     25  C   UNL     1      -3.873  -0.906  -1.171  0.00  0.00    +0.044 A 
ATOM     26  C   UNL     1      -4.670  -0.290  -2.118  0.00  0.00    +0.044 A 
ATOM     27  C   UNL     1      -4.849  -0.875  -3.359  0.00  0.00    +0.040 A 
ATOM     28  C   UNL     1      -4.231  -2.077  -3.656  0.00  0.00    +0.044 A 
ATOM     29  C   UNL     1      -3.429  -2.694  -2.714  0.00  0.00    +0.044 A 
ATOM     30 CL   UNL     1      -4.458  -2.808  -5.214  0.00  0.00    -0.083 Cl
ATOM     31 CL   UNL     1      -5.447   1.218  -1.750  0.00  0.00    -0.083 Cl
ENDBRANCH  22  24
BRANCH  21  32
ATOM     32  N   UNL     1      -4.362  -3.621   0.595  0.00  0.00    -0.345 N 
ATOM     33  H   UNL     1      -4.769  -4.306   1.149  0.00  0.00    +0.144 HD
ATOM     34  H   UNL     1      -4.912  -2.930   0.195  0.00  0.00    +0.144 HD
ENDBRANCH  21  32
BRANCH  20  35
ATOM     35  C   UNL     1      -2.813  -5.444   1.956  0.00  0.00    +0.100 C 
ATOM     36  N   UNL     1      -3.285  -6.173   2.688  0.00  0.00    -0.191 NA
ENDBRANCH  20  35
TORSDOF 3
