REMARK  Name = ZINC14927183
REMARK  10 active torsions:
REMARK  status: ('A' for Active; 'I' for Inactive)
REMARK    1  A    between atoms: C_1  and  C_2
REMARK    2  A    between atoms: C_9  and  N_13
REMARK    3  A    between atoms: C_10  and  C_11
REMARK    4  A    between atoms: C_14  and  C_16
REMARK    5  A    between atoms: C_16  and  N_17
REMARK    6  A    between atoms: N_17  and  C_18
REMARK    7  A    between atoms: N_17  and  C_22
REMARK    8  A    between atoms: C_18  and  C_19
REMARK    9  A    between atoms: C_22  and  C_23
REMARK   10  A    between atoms: C_22  and  C_24
REMARK                            x       y       z     vdW  Elec       q    Type
REMARK                         _______ _______ _______ _____ _____    ______ ____
ROOT
ATOM      1  N   UNL     1       1.056  -5.027   2.381  0.00  0.00    -0.281 N 
ATOM      2  C   UNL     1       1.926  -5.563   3.260  0.00  0.00    +0.201 C 
ATOM      3  O   UNL     1       2.824  -4.886   3.713  0.00  0.00    -0.278 OA
ATOM      4  H   UNL     1       0.337  -5.569   2.018  0.00  0.00    +0.155 HD
ENDROOT
BRANCH   1  12
ATOM      5  C   UNL     1       2.238   2.422   0.413  0.00  0.00    +0.008 C 
ATOM      6  C   UNL     1       1.881   0.938   0.311  0.00  0.00    -0.009 C 
ATOM      7  C   UNL     1       0.358   0.778   0.284  0.00  0.00    +0.008 C 
ATOM      8  C   UNL     1      -0.008  -0.667  -0.064  0.00  0.00    +0.037 C 
ATOM      9  C   UNL     1       0.746  -1.600   0.872  0.00  0.00    -0.018 A 
ATOM     10  C   UNL     1       1.828  -1.178   1.562  0.00  0.00    -0.004 A 
ATOM     11  S   UNL     1       2.346  -2.591   2.491  0.00  0.00    -0.077 S 
ATOM     12  C   UNL     1       1.188  -3.700   1.994  0.00  0.00    +0.090 A 
ATOM     13  C   UNL     1       0.394  -2.988   1.110  0.00  0.00    +0.084 A 
ATOM     14  C   UNL     1       2.441   0.189   1.529  0.00  0.00    +0.046 C 
BRANCH  13  15
ATOM     15  C   UNL     1      -0.726  -3.596   0.458  0.00  0.00    +0.102 C 
ATOM     16  N   UNL     1      -1.615  -4.078  -0.059  0.00  0.00    -0.191 NA
ENDBRANCH  13  15
ENDBRANCH   1  12
BRANCH   2  17
ATOM     17  C   UNL     1       1.782  -7.003   3.679  0.00  0.00    +0.020 C 
BRANCH  17  18
ATOM     18  N   UNL     1       2.904  -7.372   4.553  0.00  0.00    +0.393 N 
ATOM     19  H   UNL     1       2.968  -6.713   5.314  0.00  0.00    -0.080 HD
BRANCH  18  20
ATOM     20  C   UNL     1       4.153  -7.353   3.781  0.00  0.00    -0.074 C 
ATOM     21  C   UNL     1       5.337  -7.596   4.720  0.00  0.00    -0.013 C 
ATOM     22  C   UNL     1       4.113  -8.451   2.716  0.00  0.00    -0.013 C 
ENDBRANCH  18  20
BRANCH  18  23
ATOM     23  C   UNL     1       2.682  -8.721   5.091  0.00  0.00    +0.019 C 
BRANCH  23  24
ATOM     24  C   UNL     1       3.509  -8.908   6.337  0.00  0.00    +0.194 C 
ATOM     25  O   UNL     1       4.108  -7.967   6.814  0.00  0.00    -0.278 OA
ATOM     26  N   UNL     1       3.585 -10.121   6.920  0.00  0.00    -0.331 N 
ATOM     27  H   UNL     1       3.106 -10.873   6.538  0.00  0.00    +0.145 HD
ATOM     28  H   UNL     1       4.117 -10.241   7.722  0.00  0.00    +0.145 HD
ENDBRANCH  23  24
ENDBRANCH  18  23
ENDBRANCH  17  18
ENDBRANCH   2  17
TORSDOF 7
