REMARK  Name = ZINC39667113
REMARK  9 active torsions:
REMARK  status: ('A' for Active; 'I' for Inactive)
REMARK    1  A    between atoms: C_1  and  C_2
REMARK    2  A    between atoms: C_5  and  C_9
REMARK    3  A    between atoms: C_6  and  C_8
REMARK    4  A    between atoms: C_9  and  C_10
REMARK    5  A    between atoms: C_10  and  N_11
REMARK    6  A    between atoms: C_12  and  C_14
REMARK    7  A    between atoms: C_25  and  C_27
REMARK    8  A    between atoms: C_30  and  C_34
REMARK    9  A    between atoms: C_31  and  C_33
REMARK                            x       y       z     vdW  Elec       q    Type
REMARK                         _______ _______ _______ _____ _____    ______ ____
ROOT
ATOM      1  C   UNL     1      -2.219  -9.105   0.153  0.00  0.00    +0.100 C 
ATOM      2  C   UNL     1      -1.385  -9.306   1.438  0.00  0.00    +0.121 C 
ATOM      3  N   UNL     1      -2.391  -9.509   2.508  0.00  0.00    -0.296 N 
ATOM      4  C   UNL     1      -3.438 -10.346   1.875  0.00  0.00    +0.115 C 
ATOM      5  C   UNL     1      -3.564  -9.792   0.442  0.00  0.00    -0.004 C 
ATOM      6  C   UNL     1      -3.799 -10.930  -0.546  0.00  0.00    -0.010 C 
ATOM      7  C   UNL     1      -5.168 -11.560  -0.276  0.00  0.00    -0.082 C 
ATOM      8  N   UNL     1      -6.214 -10.540  -0.416  0.00  0.00    +0.379 N 
ATOM      9  C   UNL     1      -6.034  -9.495   0.600  0.00  0.00    -0.082 C 
ATOM     10  C   UNL     1      -4.702  -8.778   0.366  0.00  0.00    -0.010 C 
ATOM     11  C   UNL     1      -2.360  -9.040   3.771  0.00  0.00    +0.247 C 
ATOM     12  O   UNL     1      -1.491  -8.259   4.108  0.00  0.00    -0.270 OA
ATOM     13  H   UNL     1      -6.159 -10.127  -1.335  0.00  0.00    -0.086 HD
ATOM     14  H   UNL     1      -7.120 -10.970  -0.297  0.00  0.00    -0.086 HD
ENDROOT
BRANCH  11  15
ATOM     15  C   UNL     1      -3.382  -9.475   4.747  0.00  0.00    +0.037 A 
ATOM     16  C   UNL     1      -4.096 -10.655   4.534  0.00  0.00    +0.013 A 
ATOM     17  C   UNL     1      -5.048 -11.055   5.449  0.00  0.00    +0.004 A 
ATOM     18  C   UNL     1      -5.296 -10.289   6.575  0.00  0.00    -0.047 A 
ATOM     19  C   UNL     1      -4.591  -9.118   6.791  0.00  0.00    -0.047 A 
ATOM     20  C   UNL     1      -3.632  -8.710   5.887  0.00  0.00    +0.016 A 
ATOM     21  C   UNL     1      -4.868  -8.290   8.019  0.00  0.00    +0.044 C 
ATOM     22  C   UNL     1      -6.338 -10.732   7.569  0.00  0.00    +0.044 C 
ENDBRANCH  11  15
BRANCH   1  24
ATOM     23  N   UNL     1      -2.686  -7.208  -1.365  0.00  0.00    -0.315 N 
ATOM     24  C   UNL     1      -2.426  -7.636  -0.113  0.00  0.00    +0.218 C 
ATOM     25  O   UNL     1      -2.359  -6.839   0.798  0.00  0.00    -0.275 OA
ATOM     26  H   UNL     1      -2.739  -7.845  -2.094  0.00  0.00    +0.149 HD
BRANCH  23  27
ATOM     27  C   UNL     1      -2.887  -5.780  -1.623  0.00  0.00    +0.109 C 
BRANCH  27  28
ATOM     28  C   UNL     1      -3.164  -5.566  -3.113  0.00  0.00    +0.054 C 
BRANCH  28  33
ATOM     29  C   UNL     1      -3.959   0.067  -4.130  0.00  0.00    +0.044 C 
ATOM     30  C   UNL     1      -3.752  -1.402  -3.865  0.00  0.00    -0.050 A 
ATOM     31  C   UNL     1      -4.841  -2.226  -3.647  0.00  0.00    +0.003 A 
ATOM     32  C   UNL     1      -4.651  -3.573  -3.404  0.00  0.00    +0.004 A 
ATOM     33  C   UNL     1      -3.371  -4.097  -3.379  0.00  0.00    -0.043 A 
ATOM     34  C   UNL     1      -2.283  -3.274  -3.598  0.00  0.00    -0.047 A 
ATOM     35  C   UNL     1      -2.473  -1.927  -3.845  0.00  0.00    +0.007 A 
ATOM     36  C   UNL     1      -0.889  -3.845  -3.570  0.00  0.00    +0.044 C 
ENDBRANCH  28  33
ENDBRANCH  27  28
ENDBRANCH  23  27
ENDBRANCH   1  24
TORSDOF 5
