REMARK  Name = ZINC64040332
REMARK  10 active torsions:
REMARK  status: ('A' for Active; 'I' for Inactive)
REMARK    1  A    between atoms: C_1  and  O_2
REMARK    2  A    between atoms: O_2  and  C_3
REMARK    3  A    between atoms: C_6  and  C_9
REMARK    4  A    between atoms: C_9  and  C_10
REMARK    5  A    between atoms: C_10  and  C_11
REMARK    6  A    between atoms: C_14  and  C_16
REMARK    7  A    between atoms: C_16  and  C_17
REMARK    8  A    between atoms: C_17  and  C_18
REMARK    9  A    between atoms: N_20  and  C_21
REMARK   10  A    between atoms: C_21  and  C_22
REMARK                            x       y       z     vdW  Elec       q    Type
REMARK                         _______ _______ _______ _____ _____    ______ ____
ROOT
ATOM      1  C   UNL     1      -9.272  -6.859  -2.817  0.00  0.00    +0.105 C 
ENDROOT
BRANCH   1   2
ATOM      2  C   UNL     1      -9.989  -8.184  -2.809  0.00  0.00    +0.214 C 
ATOM      3  O   UNL     1     -10.273  -8.714  -1.756  0.00  0.00    -0.276 OA
ATOM      4  N   UNL     1     -10.314  -8.781  -3.973  0.00  0.00    -0.313 N 
ATOM      5  H   UNL     1     -10.087  -8.357  -4.815  0.00  0.00    +0.149 HD
BRANCH   4   6
ATOM      6  C   UNL     1     -11.011 -10.069  -3.966  0.00  0.00    +0.132 C 
BRANCH   6   7
ATOM      7  C   UNL     1     -11.260 -10.523  -5.406  0.00  0.00    +0.120 C 
ATOM      8  C   UNL     1     -12.136 -11.756  -5.420  0.00  0.00    +0.009 C 
ATOM      9  C   UNL     1     -13.252 -11.415  -6.103  0.00  0.00    -0.003 A 
ATOM     10  C   UNL     1     -14.467 -12.159  -6.458  0.00  0.00    +0.029 A 
ATOM     11  C   UNL     1     -15.436 -11.533  -7.165  0.00  0.00    +0.042 A 
ATOM     12  C   UNL     1     -15.310 -10.194  -7.565  0.00  0.00    +0.022 A 
ATOM     13  C   UNL     1     -14.224  -9.447  -7.276  0.00  0.00    +0.027 A 
ATOM     14  C   UNL     1     -13.143 -10.004  -6.537  0.00  0.00    +0.043 A 
ATOM     15  N   UNL     1     -12.002  -9.492  -6.140  0.00  0.00    -0.376 N 
ATOM     16 CL   UNL     1     -16.874 -12.410  -7.588  0.00  0.00    -0.084 Cl
ATOM     17  H   UNL     1     -11.700  -8.585  -6.303  0.00  0.00    +0.160 HD
ENDBRANCH   6   7
ENDBRANCH   4   6
ENDBRANCH   1   2
BRANCH   1  18
ATOM     18  C   UNL     1      -9.023  -6.406  -1.377  0.00  0.00    +0.107 C 
BRANCH  18  22
ATOM     19  C   UNL     1      -6.776  -3.568  -1.395  0.00  0.00    +0.218 A 
ATOM     20  N   UNL     1      -7.948  -2.998  -1.392  0.00  0.00    -0.112 NA
ATOM     21  N   UNL     1      -8.863  -3.902  -1.385  0.00  0.00    -0.112 NA
ATOM     22  C   UNL     1      -8.306  -5.080  -1.384  0.00  0.00    +0.218 A 
ATOM     23  O   UNL     1      -6.975  -4.896  -1.396  0.00  0.00    -0.425 OA
BRANCH  19  24
ATOM     24  C   UNL     1      -5.443  -2.865  -1.405  0.00  0.00    +0.102 C 
BRANCH  24  25
ATOM     25  C   UNL     1      -4.981  -2.629   0.035  0.00  0.00    +0.044 C 
BRANCH  25  29
ATOM     26  C   UNL     1      -1.200  -0.637   0.010  0.00  0.00    +0.120 A 
ATOM     27  C   UNL     1      -2.375   0.101   0.019  0.00  0.00    +0.046 A 
ATOM     28  C   UNL     1      -3.596  -0.545   0.027  0.00  0.00    +0.007 A 
ATOM     29  C   UNL     1      -3.648  -1.927   0.026  0.00  0.00    -0.047 A 
ATOM     30  C   UNL     1      -2.479  -2.665   0.017  0.00  0.00    +0.007 A 
ATOM     31  C   UNL     1      -1.255  -2.024   0.003  0.00  0.00    +0.046 A 
BRANCH  26  33
ATOM     32  C   UNL     1      -0.017   1.425   0.010  0.00  0.00    +0.277 C 
ATOM     33  O   UNL     1       0.002  -0.004   0.002  0.00  0.00    -0.495 OA
ENDBRANCH  26  33
ENDBRANCH  25  29
ENDBRANCH  24  25
ENDBRANCH  19  24
ENDBRANCH  18  22
ENDBRANCH   1  18
TORSDOF 9
