REMARK  Name = ZINC28294979
REMARK  4 active torsions:
REMARK  status: ('A' for Active; 'I' for Inactive)
REMARK    1  A    between atoms: C_1  and  O_2
REMARK    2  A    between atoms: O_2  and  C_3
REMARK    3  A    between atoms: C_5  and  C_10
REMARK    4  A    between atoms: C_8  and  O_9
REMARK                            x       y       z     vdW  Elec       q    Type
REMARK                         _______ _______ _______ _____ _____    ______ ____
ROOT
ATOM      1  C   UNL     1       2.462   0.334   4.204  0.00  0.00    +0.093 C 
ATOM      2  C   UNL     1       3.917   0.068   4.218  0.00  0.00    +0.037 A 
ATOM      3  C   UNL     1       4.607  -0.794   5.009  0.00  0.00    +0.092 A 
ATOM      4  N   UNL     1       5.966  -0.871   4.815  0.00  0.00    -0.311 N 
ATOM      5  H   UNL     1       6.494  -1.481   5.352  0.00  0.00    +0.170 HD
ATOM      6  C   UNL     1       6.570  -0.103   3.883  0.00  0.00    +0.289 A 
ATOM      7  O   UNL     1       7.749  -0.040   3.583  0.00  0.00    -0.260 OA
ATOM      8  S   UNL     1       5.183   0.796   3.205  0.00  0.00    -0.030 S 
ATOM      9  S   UNL     1       3.733  -1.741   6.232  0.00  0.00    -0.067 S 
ATOM     10  C   UNL     1       2.217  -0.859   6.424  0.00  0.00    +0.069 C 
ATOM     11  C   UNL     1       1.762   0.017   5.497  0.00  0.00    +0.030 C 
ATOM     12  C   UNL     1       0.541   0.710   5.713  0.00  0.00    +0.192 C 
ATOM     13  O   UNL     1       0.156   1.505   4.874  0.00  0.00    -0.287 OA
ATOM     14  C   UNL     1      -0.272   0.497   6.922  0.00  0.00    +0.033 A 
ATOM     15  C   UNL     1      -1.469   1.178   7.115  0.00  0.00    +0.012 A 
ATOM     16  C   UNL     1      -2.212   0.953   8.262  0.00  0.00    +0.001 A 
ATOM     17  C   UNL     1      -1.773   0.057   9.219  0.00  0.00    +0.001 A 
ATOM     18  C   UNL     1      -0.583  -0.629   9.044  0.00  0.00    +0.012 A 
ATOM     19  C   UNL     1       0.173  -0.415   7.897  0.00  0.00    +0.034 A 
ATOM     20  C   UNL     1       1.437  -1.116   7.667  0.00  0.00    +0.201 C 
ATOM     21  O   UNL     1       1.848  -1.908   8.492  0.00  0.00    -0.286 OA
ENDROOT
BRANCH   1  24
ATOM     22  C   UNL     1       0.626  -0.619   1.042  0.00  0.00    +0.162 A 
ATOM     23  C   UNL     1       1.202   0.137   2.051  0.00  0.00    +0.054 A 
ATOM     24  C   UNL     1       1.836  -0.490   3.108  0.00  0.00    -0.031 A 
ATOM     25  C   UNL     1       1.897  -1.870   3.161  0.00  0.00    +0.008 A 
ATOM     26  C   UNL     1       1.325  -2.630   2.158  0.00  0.00    +0.049 A 
ATOM     27  C   UNL     1       0.683  -2.008   1.099  0.00  0.00    +0.158 A 
BRANCH  22  29
ATOM     28  C   UNL     1      -0.017   1.425   0.010  0.00  0.00    +0.277 C 
ATOM     29  O   UNL     1       0.002  -0.004   0.002  0.00  0.00    -0.491 OA
ENDBRANCH  22  29
BRANCH  27  30
ATOM     30  O   UNL     1       0.115  -2.754   0.114  0.00  0.00    -0.503 OA
ATOM     31  H   UNL     1       0.711  -2.957  -0.620  0.00  0.00    +0.292 HD
ENDBRANCH  27  30
ENDBRANCH   1  24
TORSDOF 3
