REMARK  Name = ZINC40039892
REMARK  6 active torsions:
REMARK  status: ('A' for Active; 'I' for Inactive)
REMARK    1  A    between atoms: C_1  and  C_2
REMARK    2  A    between atoms: N_5  and  S_11
REMARK    3  A    between atoms: C_7  and  C_10
REMARK    4  A    between atoms: S_11  and  N_14
REMARK    5  A    between atoms: N_14  and  C_15
REMARK    6  A    between atoms: C_15  and  C_16
REMARK                            x       y       z     vdW  Elec       q    Type
REMARK                         _______ _______ _______ _____ _____    ______ ____
ROOT
ATOM      1  N   UNL     1      -1.434  -4.234  -1.794  0.00  0.00    -0.175 NA
ATOM      2  H   UNL     1      -1.688  -4.096  -2.720  0.00  0.00    +0.149 HD
ENDROOT
BRANCH   1   3
ATOM      3  S   UNL     1      -2.329  -3.552  -0.579  0.00  0.00    +0.097 S 
ATOM      4  O   UNL     1      -2.627  -4.593   0.340  0.00  0.00    -0.141 OA
ATOM      5  O   UNL     1      -3.341  -2.777  -1.207  0.00  0.00    -0.141 OA
BRANCH   3   9
ATOM      6  C   UNL     1       0.007  -2.120   3.732  0.00  0.00    +0.039 C 
ATOM      7  C   UNL     1      -0.881  -1.835   2.519  0.00  0.00    +0.131 C 
ATOM      8  C   UNL     1      -0.620  -2.887   1.434  0.00  0.00    +0.142 C 
ATOM      9  N   UNL     1      -1.342  -2.486   0.216  0.00  0.00    -0.162 NA
ATOM     10  C   UNL     1      -1.161  -1.111  -0.274  0.00  0.00    +0.142 C 
ATOM     11  C   UNL     1      -1.396  -0.146   0.894  0.00  0.00    +0.131 C 
ATOM     12  O   UNL     1      -0.580  -0.538   2.001  0.00  0.00    -0.371 OA
ATOM     13  C   UNL     1      -2.869  -0.189   1.304  0.00  0.00    +0.039 C 
ENDBRANCH   3   9
ENDBRANCH   1   3
BRANCH   1  14
ATOM     14  C   UNL     1      -0.258  -5.047  -1.470  0.00  0.00    +0.142 C 
BRANCH  14  15
ATOM     15  C   UNL     1       0.152  -5.843  -2.682  0.00  0.00    -0.028 A 
ATOM     16  C   UNL     1      -0.380  -7.101  -2.893  0.00  0.00    +0.009 A 
ATOM     17  C   UNL     1      -0.005  -7.835  -4.003  0.00  0.00    +0.050 A 
ATOM     18  C   UNL     1       0.905  -7.310  -4.908  0.00  0.00    +0.162 A 
ATOM     19  C   UNL     1       1.437  -6.044  -4.697  0.00  0.00    +0.162 A 
ATOM     20  C   UNL     1       1.054  -5.311  -3.584  0.00  0.00    +0.054 A 
ATOM     21  O   UNL     1       2.326  -5.507  -5.577  0.00  0.00    -0.485 OA
ATOM     22  C   UNL     1       2.964  -6.414  -6.483  0.00  0.00    +0.270 C 
ATOM     23  C   UNL     1       1.890  -7.339  -7.072  0.00  0.00    +0.270 C 
ATOM     24  O   UNL     1       1.267  -8.046  -5.994  0.00  0.00    -0.485 OA
ENDBRANCH  14  15
ENDBRANCH   1  14
TORSDOF 4
