REMARK  Name = ZINC38549906
REMARK  7 active torsions:
REMARK  status: ('A' for Active; 'I' for Inactive)
REMARK    1  A    between atoms: C_1  and  N_2
REMARK    2  A    between atoms: N_5  and  C_8
REMARK    3  A    between atoms: N_18  and  C1*_19
REMARK    4  A    between atoms: C2*_21  and  O2*_31
REMARK    5  A    between atoms: C3*_23  and  O3*_30
REMARK    6  A    between atoms: C4*_25  and  C5*_28
REMARK    7  A    between atoms: C5*_28  and  O5*_29
REMARK                            x       y       z     vdW  Elec       q    Type
REMARK                         _______ _______ _______ _____ _____    ______ ____
ROOT
ATOM      1  C   UNL     1       1.453  -3.974  -0.034  0.00  0.00    +0.271 C 
ATOM      2  N   UNL     1       0.103  -4.547  -0.018  0.00  0.00    -0.238 NA
ATOM      3  C   UNL     1      -0.030  -5.263   1.046  0.00  0.00    +0.165 C 
ATOM      4  C   UNL     1       1.226  -5.234   1.838  0.00  0.00    +0.158 C 
ATOM      5  N   UNL     1       1.263  -5.920   2.966  0.00  0.00    -0.221 NA
ATOM      6  C   UNL     1       0.222  -6.618   3.392  0.00  0.00    +0.213 C 
ATOM      7  N   UNL     1      -0.927  -6.708   2.768  0.00  0.00    -0.163 NA
ATOM      8  C   UNL     1      -1.151  -6.076   1.603  0.00  0.00    +0.290 C 
ATOM      9  O   UNL     1      -2.220  -6.163   1.028  0.00  0.00    -0.266 OA
ATOM     10  N   UNL     1       2.127  -4.451   1.182  0.00  0.00    -0.250 N 
ENDROOT
BRANCH   1  15
ATOM     11  C   UNL     1      -0.018   1.465   0.010  0.00  0.00    -0.096 C 
ATOM     12  N   UNL     1       0.002  -0.004   0.002  0.00  0.00    +0.379 N 
ATOM     13  C   UNL     1       0.688  -0.477  -1.207  0.00  0.00    -0.063 C 
ATOM     14  C   UNL     1       0.693  -2.008  -1.226  0.00  0.00    +0.069 C 
ATOM     15  N   UNL     1       1.378  -2.507  -0.025  0.00  0.00    -0.269 NA
ATOM     16  C   UNL     1       0.717  -2.021   1.194  0.00  0.00    +0.069 C 
ATOM     17  C   UNL     1       0.713  -0.490   1.192  0.00  0.00    -0.063 C 
ATOM     18  H   UNL     1      -0.945  -0.353   0.010  0.00  0.00    -0.082 HD
ENDBRANCH   1  15
BRANCH  10  19
ATOM     19  C1* UNL     1       3.497  -4.145   1.604  0.00  0.00    +0.242 C 
ATOM     20  C2* UNL     1       3.487  -3.359   2.934  0.00  0.00    +0.193 C 
ATOM     21  C3* UNL     1       4.710  -3.906   3.703  0.00  0.00    +0.178 C 
ATOM     22  C4* UNL     1       5.314  -4.959   2.747  0.00  0.00    +0.177 C 
ATOM     23  O4* UNL     1       4.216  -5.362   1.897  0.00  0.00    -0.348 OA
BRANCH  21  24
ATOM     24  O3* UNL     1       5.649  -2.861   3.959  0.00  0.00    -0.386 OA
ATOM     25  H3* UNL     1       6.437  -3.149   4.440  0.00  0.00    +0.210 HD
ENDBRANCH  21  24
BRANCH  20  26
ATOM     26  O2* UNL     1       3.632  -1.958   2.688  0.00  0.00    -0.385 OA
ATOM     27  H2* UNL     1       3.632  -1.417   3.490  0.00  0.00    +0.210 HD
ENDBRANCH  20  26
BRANCH  22  28
ATOM     28  C5* UNL     1       5.846  -6.155   3.539  0.00  0.00    +0.190 C 
BRANCH  28  29
ATOM     29  O5* UNL     1       6.503  -7.061   2.650  0.00  0.00    -0.392 OA
ATOM     30  H5* UNL     1       6.866  -7.844   3.085  0.00  0.00    +0.210 HD
ENDBRANCH  28  29
ENDBRANCH  22  28
ENDBRANCH  10  19
TORSDOF 6
