REMARK  Name = ZINC65357141
REMARK  3 active torsions:
REMARK  status: ('A' for Active; 'I' for Inactive)
REMARK    1  A    between atoms: C_4  and  N_7
REMARK    2  A    between atoms: C_11  and  N_15
REMARK    3  A    between atoms: N_15  and  C_16
REMARK                            x       y       z     vdW  Elec       q    Type
REMARK                         _______ _______ _______ _____ _____    ______ ____
ROOT
ATOM      1  N   UNL     1       3.530  -0.713  -0.005  0.00  0.00    -0.209 N 
ATOM      2  C   UNL     1       4.655   0.011   0.041  0.00  0.00    +0.228 C 
ATOM      3  O   UNL     1       4.711   1.222   0.059  0.00  0.00    -0.275 OA
ATOM      4  C   UNL     1       5.846  -0.922   0.068  0.00  0.00    +0.125 C 
ATOM      5  C   UNL     1       5.207  -2.325   0.029  0.00  0.00    +0.151 C 
ATOM      6  C   UNL     1       3.722  -2.038  -0.011  0.00  0.00    +0.244 C 
ATOM      7  O   UNL     1       2.845  -2.874  -0.044  0.00  0.00    -0.273 OA
ENDROOT
BRANCH   1  11
ATOM      8  C   UNL     1      -0.261   1.018  -0.107  0.00  0.00    +0.000 A 
ATOM      9  C   UNL     1       0.140   0.300   1.004  0.00  0.00    +0.002 A 
ATOM     10  C   UNL     1       1.395  -0.275   1.041  0.00  0.00    +0.024 A 
ATOM     11  C   UNL     1       2.255  -0.131  -0.040  0.00  0.00    +0.044 A 
ATOM     12  C   UNL     1       1.849   0.590  -1.155  0.00  0.00    +0.024 A 
ATOM     13  C   UNL     1       0.593   1.163  -1.185  0.00  0.00    +0.002 A 
ENDBRANCH   1  11
BRANCH   5  14
ATOM     14  N   UNL     1       5.553  -3.085   1.238  0.00  0.00    -0.290 NA
ATOM     15  H   UNL     1       5.563  -2.487   2.050  0.00  0.00    +0.124 HD
BRANCH  14  16
ATOM     16  C   UNL     1       6.841  -3.773   1.076  0.00  0.00    +0.181 C 
ATOM     17  C   UNL     1       6.601  -5.041   0.278  0.00  0.00    +0.103 C 
ATOM     18  N   UNL     1       6.933  -6.171   0.818  0.00  0.00    -0.173 NA
ATOM     19  C   UNL     1       7.473  -6.262   2.038  0.00  0.00    +0.329 C 
ATOM     20  O   UNL     1       7.748  -7.372   2.451  0.00  0.00    -0.250 OA
ATOM     21  N   UNL     1       7.733  -5.220   2.837  0.00  0.00    -0.237 N 
ATOM     22  C   UNL     1       7.454  -3.958   2.452  0.00  0.00    +0.243 C 
ATOM     23  O   UNL     1       7.686  -3.013   3.175  0.00  0.00    -0.273 OA
ATOM     24  H   UNL     1       8.127  -5.376   3.710  0.00  0.00    +0.159 HD
ENDBRANCH  14  16
ENDBRANCH   5  14
TORSDOF 3
