REMARK  Name = ZINC47551329
REMARK  10 active torsions:
REMARK  status: ('A' for Active; 'I' for Inactive)
REMARK    1  A    between atoms: C_1  and  C_2
REMARK    2  A    between atoms: C_2  and  N_3
REMARK    3  A    between atoms: C_7  and  C_9
REMARK    4  A    between atoms: C_9  and  N_10
REMARK    5  A    between atoms: N_10  and  C_11
REMARK    6  A    between atoms: N_10  and  C_20
REMARK    7  A    between atoms: C_11  and  C_12
REMARK    8  A    between atoms: N_17  and  C_18
REMARK    9  A    between atoms: C_18  and  C_19
REMARK   10  A    between atoms: C_23  and  C_26
REMARK                            x       y       z     vdW  Elec       q    Type
REMARK                         _______ _______ _______ _____ _____    ______ ____
ROOT
ATOM      1  N   UNL     1       2.242  -5.543   3.996  0.00  0.00    +0.393 N 
ATOM      2  H   UNL     1       2.495  -6.052   3.163  0.00  0.00    -0.080 HD
ENDROOT
BRANCH   1   3
ATOM      3  C   UNL     1       0.796  -5.664   4.225  0.00  0.00    -0.067 C 
ATOM      4  C   UNL     1       0.423  -4.946   5.523  0.00  0.00    -0.015 C 
ATOM      5  C   UNL     1      -1.083  -5.072   5.762  0.00  0.00    +0.002 C 
ATOM      6  C   UNL     1      -1.460  -6.551   5.871  0.00  0.00    -0.014 C 
ATOM      7  C   UNL     1      -1.087  -7.270   4.573  0.00  0.00    +0.002 C 
ATOM      8  C   UNL     1       0.420  -7.143   4.335  0.00  0.00    -0.015 C 
ATOM      9  C   UNL     1      -0.703  -7.185   7.040  0.00  0.00    +0.007 C 
ENDBRANCH   1   3
BRANCH   1  10
ATOM     10  C   UNL     1       2.594  -4.126   3.831  0.00  0.00    +0.020 C 
BRANCH  10  15
ATOM     11  N   UNL     1       1.601  -0.507   0.827  0.00  0.00    -0.299 N 
ATOM     12  C   UNL     1       1.513  -1.819   1.126  0.00  0.00    +0.306 C 
ATOM     13  O   UNL     1       0.937  -2.577   0.371  0.00  0.00    -0.252 OA
ATOM     14  N   UNL     1       2.065  -2.289   2.262  0.00  0.00    -0.242 N 
ATOM     15  C   UNL     1       1.977  -3.600   2.561  0.00  0.00    +0.204 C 
ATOM     16  O   UNL     1       1.402  -4.357   1.808  0.00  0.00    -0.277 OA
ATOM     17  H   UNL     1       2.061   0.098   1.429  0.00  0.00    +0.150 HD
ATOM     18  H   UNL     1       2.525  -1.684   2.864  0.00  0.00    +0.159 HD
BRANCH  11  20
ATOM     19  C   UNL     1       1.242   1.512  -0.506  0.00  0.00    +0.024 C 
ATOM     20  C   UNL     1       1.001   0.004  -0.408  0.00  0.00    +0.102 C 
ENDBRANCH  11  20
ENDBRANCH  10  15
ENDBRANCH   1  10
BRANCH   1  21
ATOM     21  C   UNL     1       2.968  -6.097   5.147  0.00  0.00    +0.020 C 
BRANCH  21  22
ATOM     22  C   UNL     1       3.039  -7.597   5.021  0.00  0.00    +0.204 C 
ATOM     23  O   UNL     1       2.656  -8.139   4.007  0.00  0.00    -0.277 OA
ATOM     24  N   UNL     1       3.527  -8.336   6.037  0.00  0.00    -0.242 N 
ATOM     25  C   UNL     1       3.590  -9.678   5.925  0.00  0.00    +0.306 C 
ATOM     26  O   UNL     1       3.207 -10.221   4.908  0.00  0.00    -0.252 OA
ATOM     27  N   UNL     1       4.079 -10.417   6.941  0.00  0.00    -0.299 N 
ATOM     28  H   UNL     1       3.833  -7.902   6.849  0.00  0.00    +0.159 HD
ATOM     29  H   UNL     1       4.385  -9.983   7.753  0.00  0.00    +0.150 HD
BRANCH  27  30
ATOM     30  C   UNL     1       4.147 -11.875   6.819  0.00  0.00    +0.102 C 
ATOM     31  C   UNL     1       4.736 -12.467   8.101  0.00  0.00    +0.024 C 
ENDBRANCH  27  30
ENDBRANCH  21  22
ENDBRANCH   1  21
TORSDOF 7
