REMARK  Name = ZINC37212271
REMARK  5 active torsions:
REMARK  status: ('A' for Active; 'I' for Inactive)
REMARK    1  A    between atoms: C_1  and  N_2
REMARK    2  A    between atoms: C_6  and  C_7
REMARK    3  A    between atoms: C_7  and  C_9
REMARK    4  A    between atoms: C_7  and  N_14
REMARK    5  A    between atoms: N_14  and  C_15
REMARK                            x       y       z     vdW  Elec       q    Type
REMARK                         _______ _______ _______ _____ _____    ______ ____
ROOT
ATOM      1  C   UNL     1       0.030  -0.354   2.521  0.00  0.00    +0.202 C 
ENDROOT
BRANCH   1   7
ATOM      2  C   UNL     1      -0.018   1.461   0.010  0.00  0.00    +0.150 C 
ATOM      3  N   UNL     1       0.002  -0.004   0.002  0.00  0.00    -0.337 N 
ATOM      4  C   UNL     1       0.009  -0.810  -1.104  0.00  0.00    +0.104 A 
ATOM      5  C   UNL     1       0.029  -2.081  -0.660  0.00  0.00    +0.102 A 
ATOM      6  N   UNL     1       0.034  -2.052   0.681  0.00  0.00    -0.348 N 
ATOM      7  C   UNL     1       0.023  -0.811   1.085  0.00  0.00    +0.115 A 
ATOM      8  H   UNL     1       0.048  -2.831   1.260  0.00  0.00    +0.167 HD
ENDBRANCH   1   7
BRANCH   1   9
ATOM      9  C   UNL     1       1.449  -0.300   3.024  0.00  0.00    +0.132 A 
ATOM     10  C   UNL     1       2.203   0.809   3.136  0.00  0.00    +0.047 A 
ATOM     11  C   UNL     1       3.457   0.402   3.646  0.00  0.00    +0.041 A 
ATOM     12  C   UNL     1       3.395  -0.931   3.815  0.00  0.00    +0.195 A 
ATOM     13  O   UNL     1       2.175  -1.350   3.443  0.00  0.00    -0.465 OA
ENDBRANCH   1   9
BRANCH   1  14
ATOM     14  N   UNL     1      -0.742  -1.296   3.336  0.00  0.00    -0.326 N 
ATOM     15  H   UNL     1      -0.290  -2.015   3.805  0.00  0.00    +0.147 HD
BRANCH  14  16
ATOM     16  C   UNL     1      -2.131  -1.157   3.439  0.00  0.00    +0.064 A 
ATOM     17  C   UNL     1      -2.779  -0.132   2.764  0.00  0.00    +0.028 A 
ATOM     18  C   UNL     1      -4.150   0.003   2.866  0.00  0.00    +0.040 A 
ATOM     19  C   UNL     1      -4.879  -0.883   3.642  0.00  0.00    +0.126 A 
ATOM     20  C   UNL     1      -4.236  -1.907   4.317  0.00  0.00    +0.078 A 
ATOM     21  C   UNL     1      -2.865  -2.050   4.212  0.00  0.00    +0.147 A 
ATOM     22  F   UNL     1      -2.237  -3.053   4.865  0.00  0.00    -0.203 F 
ATOM     23  F   UNL     1      -6.220  -0.748   3.740  0.00  0.00    -0.205 F 
ENDBRANCH  14  16
ENDBRANCH   1  14
TORSDOF 4
