REMARK  Name = ZINC42445277
REMARK  11 active torsions:
REMARK  status: ('A' for Active; 'I' for Inactive)
REMARK    1  A    between atoms: C_1  and  C_2
REMARK    2  A    between atoms: C_2  and  N_3
REMARK    3  A    between atoms: N_3  and  C_4
REMARK    4  A    between atoms: N_3  and  C_14
REMARK    5  A    between atoms: C_4  and  C_5
REMARK    6  A    between atoms: C_10  and  O_11
REMARK    7  A    between atoms: O_11  and  C_12
REMARK    8  A    between atoms: C_14  and  C_15
REMARK    9  A    between atoms: C_15  and  C_17
REMARK   10  A    between atoms: C_15  and  C_18
REMARK   11  A    between atoms: N_19  and  O_20
REMARK                            x       y       z     vdW  Elec       q    Type
REMARK                         _______ _______ _______ _____ _____    ______ ____
ROOT
ATOM      1  N   UNL     1       0.815  -0.485   1.126  0.00  0.00    +0.383 N 
ATOM      2  H   UNL     1       1.669   0.052   1.099  0.00  0.00    -0.081 HD
ENDROOT
BRANCH   1   4
ATOM      3  C   UNL     1      -0.255   1.418   0.016  0.00  0.00    -0.017 C 
ATOM      4  C   UNL     1      -0.042  -0.097  -0.002  0.00  0.00    -0.082 C 
ENDBRANCH   1   4
BRANCH   1   5
ATOM      5  C   UNL     1       0.111  -0.222   2.389  0.00  0.00    -0.039 C 
BRANCH   5   6
ATOM      6  C   UNL     1       1.038  -0.490   3.546  0.00  0.00    -0.021 A 
ATOM      7  C   UNL     1       0.884  -1.635   4.304  0.00  0.00    +0.020 A 
ATOM      8  C   UNL     1       1.735  -1.882   5.366  0.00  0.00    +0.018 A 
ATOM      9  C   UNL     1       2.742  -0.984   5.672  0.00  0.00    +0.019 A 
ATOM     10  C   UNL     1       2.900   0.162   4.917  0.00  0.00    +0.047 A 
ATOM     11  C   UNL     1       2.051   0.409   3.847  0.00  0.00    +0.121 A 
ATOM     12 BR   UNL     1       1.521  -3.449   6.402  0.00  0.00    -0.050 Br
BRANCH  11  13
ATOM     13  O   UNL     1       2.207   1.533   3.099  0.00  0.00    -0.495 OA
ATOM     14  C   UNL     1       3.271   2.414   3.467  0.00  0.00    +0.277 C 
ENDBRANCH  11  13
ENDBRANCH   5   6
ENDBRANCH   1   5
BRANCH   1  15
ATOM     15  C   UNL     1       1.133  -1.916   1.031  0.00  0.00    -0.068 C 
BRANCH  15  16
ATOM     16  C   UNL     1       1.973  -2.170  -0.222  0.00  0.00    +0.036 C 
ATOM     17  C   UNL     1       3.324  -1.464  -0.081  0.00  0.00    +0.013 C 
BRANCH  16  18
ATOM     18  C   UNL     1       2.195  -3.651  -0.386  0.00  0.00    +0.133 C 
ATOM     19  N   UNL     1       3.272  -4.198   0.072  0.00  0.00    -0.077 NA
ATOM     20  N   UNL     1       1.250  -4.422  -1.025  0.00  0.00    -0.344 N 
ATOM     21  H   UNL     1       0.441  -4.012  -1.369  0.00  0.00    +0.144 HD
ATOM     22  H   UNL     1       1.393  -5.376  -1.131  0.00  0.00    +0.144 HD
BRANCH  19  23
ATOM     23  O   UNL     1       3.481  -5.590  -0.082  0.00  0.00    -0.408 OA
ATOM     24  H   UNL     1       4.314  -5.907   0.292  0.00  0.00    +0.328 HD
ENDBRANCH  19  23
ENDBRANCH  16  18
ENDBRANCH  15  16
ENDBRANCH   1  15
TORSDOF 8
