REMARK  Name = ZINC59849836
REMARK  10 active torsions:
REMARK  status: ('A' for Active; 'I' for Inactive)
REMARK    1  A    between atoms: C_1  and  C_2
REMARK    2  A    between atoms: C_2  and  N_3
REMARK    3  A    between atoms: C_4  and  C_6
REMARK    4  A    between atoms: C_6  and  N_7
REMARK    5  A    between atoms: C_14  and  C_16
REMARK    6  A    between atoms: C_17  and  C_18
REMARK    7  A    between atoms: C_21  and  O_24
REMARK    8  A    between atoms: O_24  and  C_25
REMARK    9  A    between atoms: C_25  and  C_26
REMARK   10  A    between atoms: C_29  and  C_31
REMARK                            x       y       z     vdW  Elec       q    Type
REMARK                         _______ _______ _______ _____ _____    ______ ____
ROOT
ATOM      1  N   UNL     1       1.544  -3.761  -2.657  0.00  0.00    +0.386 N 
ATOM      2  C   UNL     1       2.439  -4.195  -3.727  0.00  0.00    -0.077 C 
ATOM      3  C   UNL     1       3.050  -5.529  -3.358  0.00  0.00    +0.000 C 
ATOM      4  C   UNL     1       2.199  -6.665  -3.953  0.00  0.00    +0.106 C 
ATOM      5  N   UNL     1       0.757  -6.363  -3.841  0.00  0.00    -0.300 N 
ATOM      6  C   UNL     1       0.179  -5.770  -2.653  0.00  0.00    +0.089 C 
ATOM      7  C   UNL     1       0.215  -4.228  -2.765  0.00  0.00    -0.059 C 
ATOM      8  C   UNL     1      -0.049  -6.650  -4.882  0.00  0.00    +0.239 C 
ATOM      9  O   UNL     1       0.425  -7.067  -5.923  0.00  0.00    -0.271 OA
ATOM     10  H   UNL     1       1.923  -4.082  -1.778  0.00  0.00    -0.081 HD
ENDROOT
BRANCH   8  11
ATOM     11  C   UNL     1      -1.494  -6.458  -4.763  0.00  0.00    +0.068 C 
ATOM     12  C   UNL     1      -2.311  -6.843  -5.766  0.00  0.00    +0.013 C 
BRANCH  12  13
ATOM     13  C   UNL     1      -3.764  -6.651  -5.646  0.00  0.00    -0.025 A 
ATOM     14  C   UNL     1      -4.301  -6.064  -4.494  0.00  0.00    +0.011 A 
ATOM     15  C   UNL     1      -5.662  -5.886  -4.386  0.00  0.00    +0.046 A 
ATOM     16  C   UNL     1      -6.502  -6.288  -5.418  0.00  0.00    +0.121 A 
ATOM     17  C   UNL     1      -5.973  -6.872  -6.564  0.00  0.00    +0.046 A 
ATOM     18  C   UNL     1      -4.613  -7.048  -6.684  0.00  0.00    +0.011 A 
BRANCH  16  19
ATOM     19  O   UNL     1      -7.843  -6.111  -5.307  0.00  0.00    -0.486 OA
BRANCH  19  20
ATOM     20  C   UNL     1      -8.648  -6.546  -6.404  0.00  0.00    +0.285 C 
BRANCH  20  21
ATOM     21  C   UNL     1     -10.099  -6.270  -6.104  0.00  0.00    +0.086 A 
ATOM     22  C   UNL     1     -10.484  -5.687  -4.940  0.00  0.00    +0.073 A 
ATOM     23  S   UNL     1     -12.254  -5.630  -5.170  0.00  0.00    -0.080 S 
ATOM     24  C   UNL     1     -12.312  -6.343  -6.694  0.00  0.00    +0.076 A 
ATOM     25  N   UNL     1     -11.052  -6.580  -6.961  0.00  0.00    -0.246 NA
ATOM     26  C   UNL     1     -13.520  -6.632  -7.547  0.00  0.00    +0.073 C 
ENDBRANCH  20  21
ENDBRANCH  19  20
ENDBRANCH  16  19
ENDBRANCH  12  13
ENDBRANCH   8  11
BRANCH   1  27
ATOM     27  C   UNL     1       1.519  -2.293  -2.640  0.00  0.00    +0.019 C 
BRANCH  27  29
ATOM     28  N   UNL     1       0.670  -0.496  -1.167  0.00  0.00    -0.317 N 
ATOM     29  C   UNL     1       0.813  -1.817  -1.397  0.00  0.00    +0.196 C 
ATOM     30  O   UNL     1       0.373  -2.621  -0.603  0.00  0.00    -0.278 OA
ATOM     31  H   UNL     1       1.021   0.147  -1.802  0.00  0.00    +0.149 HD
BRANCH  28  33
ATOM     32  C   UNL     1      -0.042   1.496   0.059  0.00  0.00    +0.024 C 
ATOM     33  C   UNL     1      -0.017  -0.033   0.042  0.00  0.00    +0.101 C 
ENDBRANCH  28  33
ENDBRANCH  27  29
ENDBRANCH   1  27
TORSDOF 8
