REMARK  Name = ZINC41333182
REMARK  8 active torsions:
REMARK  status: ('A' for Active; 'I' for Inactive)
REMARK    1  A    between atoms: C_1  and  C_2
REMARK    2  A    between atoms: N_12  and  C_24
REMARK    3  A    between atoms: N_17  and  C_18
REMARK    4  A    between atoms: C_18  and  C_19
REMARK    5  A    between atoms: C_19  and  N_20
REMARK    6  A    between atoms: N_20  and  C_21
REMARK    7  A    between atoms: C_21  and  C_22
REMARK    8  A    between atoms: C_22  and  O_23
REMARK                            x       y       z     vdW  Elec       q    Type
REMARK                         _______ _______ _______ _____ _____    ______ ____
ROOT
ATOM      1  C   UNL     1      -0.018   1.503   0.010  0.00  0.00    +0.089 C 
ATOM      2  C   UNL     1       0.002  -0.004   0.002  0.00  0.00    +0.136 A 
ATOM      3  C   UNL     1      -1.076  -0.807   0.003  0.00  0.00    +0.091 A 
ATOM      4  C   UNL     1      -0.625  -2.147  -0.007  0.00  0.00    +0.167 A 
ATOM      5  N   UNL     1       0.683  -2.130  -0.013  0.00  0.00    -0.063 NA
ATOM      6  O   UNL     1       1.100  -0.776  -0.013  0.00  0.00    -0.358 OA
ATOM      7  N   UNL     1      -1.431  -3.283  -0.009  0.00  0.00    -0.281 N 
ATOM      8  C   UNL     1      -2.808  -3.155  -0.001  0.00  0.00    +0.140 A 
ATOM      9  C   UNL     1      -3.638  -4.293   0.003  0.00  0.00    +0.079 A 
ATOM     10  C   UNL     1      -3.408  -5.687   0.001  0.00  0.00    +0.148 A 
ATOM     11  N   UNL     1      -4.560  -6.296   0.007  0.00  0.00    -0.172 NA
ATOM     12  N   UNL     1      -5.594  -5.351   0.013  0.00  0.00    -0.214 N 
ATOM     13  C   UNL     1      -5.033  -4.105   0.011  0.00  0.00    +0.170 A 
ATOM     14  N   UNL     1      -5.516  -2.864   0.014  0.00  0.00    -0.195 NA
ATOM     15  C   UNL     1      -4.699  -1.824   0.010  0.00  0.00    +0.219 A 
ATOM     16  N   UNL     1      -3.377  -1.956   0.008  0.00  0.00    -0.199 NA
ATOM     17  N   UNL     1      -5.241  -0.551   0.014  0.00  0.00    -0.315 N 
ATOM     18  H   UNL     1      -1.026  -4.165  -0.015  0.00  0.00    +0.155 HD
ATOM     19  H   UNL     1      -6.204  -0.434   0.020  0.00  0.00    +0.149 HD
ENDROOT
BRANCH  12  20
ATOM     20  C   UNL     1      -6.965  -5.634   0.020  0.00  0.00    +0.068 A 
ATOM     21  C   UNL     1      -7.843  -4.808   0.710  0.00  0.00    +0.028 A 
ATOM     22  C   UNL     1      -9.195  -5.090   0.715  0.00  0.00    +0.002 A 
ATOM     23  C   UNL     1      -9.675  -6.194   0.035  0.00  0.00    +0.000 A 
ATOM     24  C   UNL     1      -8.804  -7.019  -0.653  0.00  0.00    +0.002 A 
ATOM     25  C   UNL     1      -7.451  -6.739  -0.667  0.00  0.00    +0.028 A 
ENDBRANCH  12  20
BRANCH  17  26
ATOM     26  C   UNL     1      -4.361   0.620   0.010  0.00  0.00    +0.085 C 
BRANCH  26  27
ATOM     27  C   UNL     1      -5.208   1.895   0.016  0.00  0.00    -0.064 C 
BRANCH  27  28
ATOM     28  N   UNL     1      -4.325   3.069   0.012  0.00  0.00    +0.382 N 
ATOM     29  H   UNL     1      -3.739   3.051   0.832  0.00  0.00    -0.086 HD
ATOM     30  H   UNL     1      -3.748   3.053  -0.816  0.00  0.00    -0.086 HD
BRANCH  28  31
ATOM     31  C   UNL     1      -5.138   4.292   0.017  0.00  0.00    -0.054 C 
BRANCH  31  32
ATOM     32  C   UNL     1      -4.219   5.516   0.013  0.00  0.00    +0.137 C 
BRANCH  32  33
ATOM     33  O   UNL     1      -3.485   5.555  -1.213  0.00  0.00    -0.397 OA
ATOM     34  H   UNL     1      -2.881   6.306  -1.285  0.00  0.00    +0.209 HD
ENDBRANCH  32  33
ENDBRANCH  31  32
ENDBRANCH  28  31
ENDBRANCH  27  28
ENDBRANCH  26  27
ENDBRANCH  17  26
TORSDOF 7
