REMARK  Name = ZINC48126959
REMARK  8 active torsions:
REMARK  status: ('A' for Active; 'I' for Inactive)
REMARK    1  A    between atoms: C_1  and  C_2
REMARK    2  A    between atoms: C_2  and  C_22
REMARK    3  A    between atoms: C_4  and  N_10
REMARK    4  A    between atoms: C_6  and  C_8
REMARK    5  A    between atoms: C_6  and  C_9
REMARK    6  A    between atoms: C_11  and  C_13
REMARK    7  A    between atoms: C_13  and  N_14
REMARK    8  A    between atoms: C_15  and  C_17
REMARK                            x       y       z     vdW  Elec       q    Type
REMARK                         _______ _______ _______ _____ _____    ______ ____
ROOT
ATOM      1  N   UNL     1       2.615  -0.819  -2.626  0.00  0.00    -0.311 N 
ATOM      2  C   UNL     1       3.770  -0.334  -3.123  0.00  0.00    +0.230 C 
ATOM      3  O   UNL     1       4.374   0.530  -2.523  0.00  0.00    -0.274 OA
ATOM      4  H   UNL     1       2.133  -1.510  -3.106  0.00  0.00    +0.149 HD
ENDROOT
BRANCH   1   8
ATOM      5  C   UNL     1      -0.019   1.528   0.010  0.00  0.00    -0.010 C 
ATOM      6  C   UNL     1       0.002  -0.004   0.002  0.00  0.00    -0.072 C 
ATOM      7  C   UNL     1       0.573  -0.505  -1.321  0.00  0.00    +0.009 C 
ATOM      8  C   UNL     1       2.088  -0.301  -1.357  0.00  0.00    +0.070 C 
ATOM      9  C   UNL     1       2.703  -1.086  -0.198  0.00  0.00    +0.009 C 
ATOM     10  C   UNL     1       2.147  -0.590   1.133  0.00  0.00    -0.072 C 
ATOM     11  N   UNL     1       0.697  -0.529   1.164  0.00  0.00    +0.386 N 
ATOM     12  C   UNL     1       2.769   0.766   1.481  0.00  0.00    -0.010 C 
ATOM     13  C   UNL     1       2.600  -1.589   2.223  0.00  0.00    -0.010 C 
ATOM     14  C   UNL     1      -1.468  -0.478   0.079  0.00  0.00    -0.010 C 
ATOM     15  H   UNL     1       0.416   0.021   1.982  0.00  0.00    -0.084 HD
ATOM     16  H   UNL     1       0.341  -1.472   1.351  0.00  0.00    -0.084 HD
ENDBRANCH   1   8
BRANCH   2  17
ATOM     17  C   UNL     1       4.312  -0.866  -4.426  0.00  0.00    +0.200 C 
BRANCH  17  18
ATOM     18  N   UNL     1       5.567  -0.183  -4.747  0.00  0.00    -0.306 N 
ATOM     19  C   UNL     1       6.236  -0.498  -5.875  0.00  0.00    +0.217 C 
ATOM     20  O   UNL     1       5.798  -1.346  -6.622  0.00  0.00    -0.276 OA
ATOM     21  H   UNL     1       5.918   0.496  -4.149  0.00  0.00    +0.149 HD
BRANCH  19  22
ATOM     22  C   UNL     1       7.528   0.204  -6.206  0.00  0.00    +0.075 C 
ATOM     23  C   UNL     1       8.616  -0.140  -5.158  0.00  0.00    +0.013 C 
ATOM     24  C   UNL     1       9.931   0.119  -5.934  0.00  0.00    +0.001 C 
ATOM     25  C   UNL     1       9.631  -0.377  -7.364  0.00  0.00    +0.001 C 
ATOM     26  C   UNL     1       8.103  -0.323  -7.536  0.00  0.00    +0.013 C 
ENDBRANCH  19  22
ENDBRANCH  17  18
ENDBRANCH   2  17
TORSDOF 4
