REMARK  Name = ZINC65796294
REMARK  6 active torsions:
REMARK  status: ('A' for Active; 'I' for Inactive)
REMARK    1  A    between atoms: C_1  and  C_2
REMARK    2  A    between atoms: C_2  and  C_3
REMARK    3  A    between atoms: C_4  and  C_17
REMARK    4  A    between atoms: C_9  and  C_11
REMARK    5  A    between atoms: C_11  and  C_12
REMARK    6  A    between atoms: C_11  and  N_13
REMARK                            x       y       z     vdW  Elec       q    Type
REMARK                         _______ _______ _______ _____ _____    ______ ____
ROOT
ATOM      1  C   UNL     1       0.707  -0.490  -1.238  0.00  0.00    +0.053 A 
ATOM      2  C   UNL     1       0.033  -0.724  -2.390  0.00  0.00    +0.011 A 
ATOM      3  S   UNL     1       1.365  -1.259  -3.453  0.00  0.00    -0.057 S 
ATOM      4  C   UNL     1       2.618  -1.130  -2.337  0.00  0.00    +0.165 A 
ATOM      5  N   UNL     1       2.010  -0.702  -1.252  0.00  0.00    -0.229 NA
ATOM      6  N   UNL     1       3.968  -1.406  -2.519  0.00  0.00    -0.263 N 
ATOM      7  C   UNL     1       4.413  -1.836  -3.716  0.00  0.00    +0.239 C 
ATOM      8  O   UNL     1       3.635  -1.983  -4.635  0.00  0.00    -0.273 OA
ATOM      9  C   UNL     1      -1.436  -0.574  -2.692  0.00  0.00    +0.053 C 
ATOM     10  H   UNL     1       4.591  -1.288  -1.784  0.00  0.00    +0.157 HD
ENDROOT
BRANCH   1  12
ATOM     11  C   UNL     1      -0.019   1.526   0.010  0.00  0.00    +0.010 C 
ATOM     12  C   UNL     1       0.002  -0.004   0.002  0.00  0.00    +0.053 C 
ENDBRANCH   1  12
BRANCH   7  13
ATOM     13  C   UNL     1       5.877  -2.135  -3.914  0.00  0.00    +0.158 C 
ATOM     14  C   UNL     1       6.308  -3.235  -2.942  0.00  0.00    +0.038 C 
BRANCH  13  15
ATOM     15  N   UNL     1       6.103  -2.582  -5.290  0.00  0.00    -0.289 N 
ATOM     16  C   UNL     1       7.315  -2.429  -5.858  0.00  0.00    +0.298 C 
ATOM     17  O   UNL     1       8.222  -1.920  -5.228  0.00  0.00    -0.253 OA
ATOM     18  N   UNL     1       7.523  -2.841  -7.125  0.00  0.00    -0.313 N 
ATOM     19  H   UNL     1       5.379  -2.989  -5.793  0.00  0.00    +0.151 HD
ATOM     20  H   UNL     1       6.800  -3.248  -7.627  0.00  0.00    +0.146 HD
ATOM     21  H   UNL     1       8.395  -2.731  -7.534  0.00  0.00    +0.146 HD
ENDBRANCH  13  15
ENDBRANCH   7  13
TORSDOF 3
