REMARK  Name = ZINC64422683
REMARK  6 active torsions:
REMARK  status: ('A' for Active; 'I' for Inactive)
REMARK    1  A    between atoms: C_1  and  N_2
REMARK    2  A    between atoms: C_3  and  C_13
REMARK    3  A    between atoms: C_6  and  C_8
REMARK    4  A    between atoms: N_15  and  C_16
REMARK    5  A    between atoms: C_16  and  C_17
REMARK    6  A    between atoms: C_17  and  C_18
REMARK                            x       y       z     vdW  Elec       q    Type
REMARK                         _______ _______ _______ _____ _____    ______ ____
ROOT
ATOM      1  C   UNL     1      -0.184  -1.376  -2.019  0.00  0.00    +0.236 C 
ATOM      2  O   UNL     1      -1.334  -1.555  -1.680  0.00  0.00    -0.274 OA
ATOM      3  N   UNL     1       0.282  -1.945  -3.149  0.00  0.00    -0.313 N 
ATOM      4  H   UNL     1       1.203  -1.801  -3.420  0.00  0.00    +0.149 HD
ENDROOT
BRANCH   1   7
ATOM      5  C   UNL     1      -0.018   1.465   0.010  0.00  0.00    +0.129 C 
ATOM      6  N   UNL     1       0.002  -0.004   0.002  0.00  0.00    -0.216 NA
ATOM      7  C   UNL     1       0.725  -0.517  -1.178  0.00  0.00    +0.186 C 
ATOM      8  C   UNL     1       1.853  -1.344  -0.601  0.00  0.00    +0.028 C 
ATOM      9  C   UNL     1       1.738  -1.275   0.728  0.00  0.00    +0.053 C 
ATOM     10  N   UNL     1       0.654  -0.490   1.098  0.00  0.00    -0.276 N 
ATOM     11  H   UNL     1       0.394  -0.312   2.015  0.00  0.00    +0.167 HD
BRANCH   9  12
ATOM     12  C   UNL     1       2.644  -1.945   1.678  0.00  0.00    +0.034 A 
ATOM     13  C   UNL     1       2.612  -1.945   3.049  0.00  0.00    +0.017 A 
ATOM     14  C   UNL     1       3.575  -2.653   3.733  0.00  0.00    +0.008 A 
ATOM     15  C   UNL     1       4.523  -3.328   3.033  0.00  0.00    +0.046 A 
ATOM     16  S   UNL     1       4.063  -2.976   1.344  0.00  0.00    -0.095 S 
ENDBRANCH   9  12
ENDBRANCH   1   7
BRANCH   3  17
ATOM     17  C   UNL     1      -0.601  -2.780  -3.967  0.00  0.00    +0.108 C 
BRANCH  17  18
ATOM     18  C   UNL     1       0.170  -3.299  -5.182  0.00  0.00    +0.052 C 
BRANCH  18  19
ATOM     19  C   UNL     1      -0.739  -4.158  -6.024  0.00  0.00    -0.040 C 
ATOM     20  C   UNL     1      -1.455  -3.769  -7.103  0.00  0.00    -0.001 A 
ATOM     21  C   UNL     1      -1.599  -2.480  -7.790  0.00  0.00    +0.010 A 
ATOM     22  C   UNL     1      -2.409  -2.399  -8.870  0.00  0.00    +0.001 A 
ATOM     23  C   UNL     1      -3.114  -3.512  -9.348  0.00  0.00    +0.002 A 
ATOM     24  C   UNL     1      -3.033  -4.729  -8.770  0.00  0.00    +0.026 A 
ATOM     25  C   UNL     1      -2.210  -4.930  -7.628  0.00  0.00    +0.043 A 
ATOM     26  N   UNL     1      -1.969  -5.994  -6.902  0.00  0.00    -0.380 N 
ATOM     27  C   UNL     1      -1.029  -5.630  -5.836  0.00  0.00    +0.144 C 
ATOM     28  H   UNL     1      -2.347  -6.876  -7.047  0.00  0.00    +0.160 HD
ENDBRANCH  18  19
ENDBRANCH  17  18
ENDBRANCH   3  17
TORSDOF 5
