REMARK  Name = ZINC50673001
REMARK  10 active torsions:
REMARK  status: ('A' for Active; 'I' for Inactive)
REMARK    1  A    between atoms: C_1  and  C_2
REMARK    2  A    between atoms: C_2  and  C_4
REMARK    3  A    between atoms: C_2  and  N_19
REMARK    4  A    between atoms: C_4  and  N_5
REMARK    5  A    between atoms: N_5  and  S_6
REMARK    6  A    between atoms: S_6  and  C_9
REMARK    7  A    between atoms: C_12  and  N_16
REMARK    8  A    between atoms: C_14  and  N_15
REMARK    9  A    between atoms: N_19  and  C_20
REMARK   10  A    between atoms: N_19  and  C_21
REMARK                            x       y       z     vdW  Elec       q    Type
REMARK                         _______ _______ _______ _____ _____    ______ ____
ROOT
ATOM      1  S   UNL     1       1.411  -3.256  -2.171  0.00  0.00    +0.060 S 
ATOM      2  O   UNL     1       1.369  -4.627  -1.799  0.00  0.00    -0.153 OA
ATOM      3  O   UNL     1       0.706  -2.750  -3.296  0.00  0.00    -0.153 OA
ENDROOT
BRANCH   1   4
ATOM      4  C   UNL     1       3.109  -2.854  -2.418  0.00  0.00    +0.126 A 
ATOM      5  C   UNL     1       3.505  -2.206  -3.572  0.00  0.00    +0.032 A 
ATOM      6  C   UNL     1       4.837  -1.890  -3.767  0.00  0.00    +0.035 A 
ATOM      7  C   UNL     1       5.777  -2.221  -2.808  0.00  0.00    +0.128 A 
ATOM      8  C   UNL     1       5.388  -2.869  -1.653  0.00  0.00    +0.057 A 
ATOM      9  C   UNL     1       4.049  -3.183  -1.451  0.00  0.00    +0.053 A 
BRANCH   9  10
ATOM     10  N   UNL     1       3.652  -3.834  -0.281  0.00  0.00    -0.356 N 
ATOM     11  H   UNL     1       2.729  -4.112  -0.170  0.00  0.00    +0.142 HD
ATOM     12  H   UNL     1       4.298  -4.007   0.422  0.00  0.00    +0.142 HD
ENDBRANCH   9  10
BRANCH   7  13
ATOM     13  N   UNL     1       7.201  -1.882  -3.021  0.00  0.00    +0.056 N 
ATOM     14  O   UNL     1       7.543  -1.315  -4.033  0.00  0.00    -0.126 OA
ATOM     15  O   UNL     1       8.024  -2.171  -2.184  0.00  0.00    -0.126 OA
ENDBRANCH   7  13
ENDBRANCH   1   4
BRANCH   1  16
ATOM     16  N   UNL     1       0.890  -2.393  -0.858  0.00  0.00    -0.191 NA
ATOM     17  H   UNL     1       0.603  -2.856  -0.055  0.00  0.00    +0.148 HD
BRANCH  16  18
ATOM     18  C   UNL     1       0.861  -0.929  -0.908  0.00  0.00    +0.090 C 
BRANCH  18  20
ATOM     19  C   UNL     1      -0.176   1.120   0.076  0.00  0.00    -0.012 C 
ATOM     20  C   UNL     1      -0.038  -0.398   0.210  0.00  0.00    -0.057 C 
BRANCH  20  21
ATOM     21  N   UNL     1      -1.364  -1.021   0.110  0.00  0.00    +0.379 N 
ATOM     22  C   UNL     1      -2.201  -0.575   1.232  0.00  0.00    -0.096 C 
ATOM     23  C   UNL     1      -1.995  -0.627  -1.157  0.00  0.00    -0.096 C 
ATOM     24  H   UNL     1      -1.267  -2.025   0.140  0.00  0.00    -0.082 HD
ENDBRANCH  20  21
ENDBRANCH  18  20
ENDBRANCH  16  18
ENDBRANCH   1  16
TORSDOF 7
