REMARK  Name = ZINC50182861
REMARK  6 active torsions:
REMARK  status: ('A' for Active; 'I' for Inactive)
REMARK    1  A    between atoms: C_1  and  C_2
REMARK    2  A    between atoms: C_3  and  C_8
REMARK    3  A    between atoms: C_8  and  C_9
REMARK    4  A    between atoms: C_9  and  C_10
REMARK    5  A    between atoms: C_10  and  N_11
REMARK    6  A    between atoms: N_11  and  C_12
REMARK                            x       y       z     vdW  Elec       q    Type
REMARK                         _______ _______ _______ _____ _____    ______ ____
ROOT
ATOM      1  N   UNL     1       3.341  -1.243  -3.982  0.00  0.00    +0.389 N 
ATOM      2  H   UNL     1       3.118  -1.865  -3.219  0.00  0.00    -0.084 HD
ATOM      3  H   UNL     1       2.778  -1.479  -4.785  0.00  0.00    -0.084 HD
ENDROOT
BRANCH   1   4
ATOM      4  C   UNL     1       4.763  -1.379  -4.324  0.00  0.00    +0.049 C 
ATOM      5  C   UNL     1       5.090  -2.814  -4.668  0.00  0.00    -0.030 A 
ATOM      6  C   UNL     1       5.021  -3.987  -3.951  0.00  0.00    +0.004 A 
ATOM      7  C   UNL     1       5.397  -5.181  -4.542  0.00  0.00    +0.001 A 
ATOM      8  C   UNL     1       5.840  -5.190  -5.853  0.00  0.00    +0.017 A 
ATOM      9  C   UNL     1       5.910  -4.015  -6.574  0.00  0.00    +0.039 A 
ATOM     10  C   UNL     1       5.533  -2.809  -5.984  0.00  0.00    +0.049 A 
ATOM     11  N   UNL     1       5.515  -1.510  -6.495  0.00  0.00    -0.285 N 
ATOM     12  C   UNL     1       5.079  -0.612  -5.591  0.00  0.00    +0.208 C 
ATOM     13  O   UNL     1       4.962   0.583  -5.758  0.00  0.00    -0.277 OA
ATOM     14 BR   UNL     1       6.519  -4.042  -8.364  0.00  0.00    -0.048 Br
ATOM     15  H   UNL     1       5.786  -1.281  -7.398  0.00  0.00    +0.155 HD
ENDBRANCH   1   4
BRANCH   1  16
ATOM     16  C   UNL     1       3.064   0.143  -3.581  0.00  0.00    -0.081 C 
BRANCH  16  17
ATOM     17  C   UNL     1       1.583   0.285  -3.224  0.00  0.00    -0.014 C 
BRANCH  17  18
ATOM     18  C   UNL     1       1.295   1.728  -2.806  0.00  0.00    +0.036 C 
BRANCH  18  21
ATOM     19  C   UNL     1      -0.013   1.086   0.008  0.00  0.00    +0.068 C 
ATOM     20  C   UNL     1      -0.742   1.585  -1.213  0.00  0.00    +0.063 A 
ATOM     21  C   UNL     1      -0.163   1.868  -2.455  0.00  0.00    -0.007 A 
ATOM     22  C   UNL     1      -1.145   2.290  -3.285  0.00  0.00    +0.108 A 
ATOM     23  N   UNL     1      -2.304   2.274  -2.593  0.00  0.00    -0.284 N 
ATOM     24  N   UNL     1      -2.025   1.823  -1.296  0.00  0.00    -0.179 NA
ATOM     25  H   UNL     1      -3.176   2.527  -2.934  0.00  0.00    +0.188 HD
ENDBRANCH  18  21
ENDBRANCH  17  18
ENDBRANCH  16  17
ENDBRANCH   1  16
TORSDOF 5
