REMARK  Name = ZINC53631966
REMARK  8 active torsions:
REMARK  status: ('A' for Active; 'I' for Inactive)
REMARK    1  A    between atoms: C_1  and  C_2
REMARK    2  A    between atoms: C_2  and  C_3
REMARK    3  A    between atoms: C_3  and  C_5
REMARK    4  A    between atoms: C_3  and  C_6
REMARK    5  A    between atoms: C_6  and  C_8
REMARK    6  A    between atoms: C_6  and  N_25
REMARK    7  A    between atoms: N_10  and  C_11
REMARK    8  A    between atoms: C_11  and  C_12
REMARK                            x       y       z     vdW  Elec       q    Type
REMARK                         _______ _______ _______ _____ _____    ______ ____
ROOT
ATOM      1  C   UNL     1       1.934  -2.207  -2.215  0.00  0.00    +0.234 C 
ATOM      2  O   UNL     1       1.615  -2.900  -3.158  0.00  0.00    -0.274 OA
ATOM      3  N   UNL     1       3.221  -2.163  -1.816  0.00  0.00    -0.310 N 
ATOM      4  H   UNL     1       3.476  -1.609  -1.062  0.00  0.00    +0.149 HD
ENDROOT
BRANCH   1   5
ATOM      5  C   UNL     1       0.892  -1.394  -1.490  0.00  0.00    +0.163 C 
BRANCH   5   6
ATOM      6  N   UNL     1      -0.436  -1.946  -1.767  0.00  0.00    -0.288 N 
ATOM      7  C   UNL     1      -0.895  -2.991  -1.050  0.00  0.00    +0.298 C 
ATOM      8  O   UNL     1      -0.246  -3.418  -0.114  0.00  0.00    -0.253 OA
ATOM      9  N   UNL     1      -2.073  -3.563  -1.370  0.00  0.00    -0.313 N 
ATOM     10  H   UNL     1      -0.986  -1.559  -2.466  0.00  0.00    +0.151 HD
ATOM     11  H   UNL     1      -2.590  -3.222  -2.117  0.00  0.00    +0.146 HD
ATOM     12  H   UNL     1      -2.403  -4.315  -0.854  0.00  0.00    +0.146 HD
ENDBRANCH   5   6
BRANCH   5  13
ATOM     13  C   UNL     1       0.952   0.057  -1.970  0.00  0.00    +0.015 C 
ATOM     14  C   UNL     1       0.668   0.109  -3.473  0.00  0.00    +0.010 C 
BRANCH  13  16
ATOM     15  C   UNL     1       0.047   2.358  -1.612  0.00  0.00    +0.004 C 
ATOM     16  C   UNL     1      -0.096   0.885  -1.224  0.00  0.00    +0.002 C 
ENDBRANCH  13  16
ENDBRANCH   5  13
ENDBRANCH   1   5
BRANCH   3  17
ATOM     17  C   UNL     1       4.234  -2.953  -2.520  0.00  0.00    +0.141 C 
BRANCH  17  18
ATOM     18  C   UNL     1       5.580  -2.729  -1.881  0.00  0.00    -0.014 A 
ATOM     19  C   UNL     1       6.404  -1.702  -2.323  0.00  0.00    +0.010 A 
ATOM     20  C   UNL     1       7.631  -1.530  -1.710  0.00  0.00    +0.042 A 
ATOM     21  C   UNL     1       7.997  -2.387  -0.676  0.00  0.00    +0.099 A 
ATOM     22  N   UNL     1       7.183  -3.355  -0.284  0.00  0.00    -0.349 N 
ATOM     23  C   UNL     1       6.004  -3.538  -0.847  0.00  0.00    +0.089 A 
ATOM     24  N   UNL     1       9.228  -2.226  -0.051  0.00  0.00    -0.317 N 
ATOM     25  C   UNL     1      10.034  -1.075  -0.394  0.00  0.00    +0.106 C 
ATOM     26  C   UNL     1      10.951  -1.422  -1.593  0.00  0.00    +0.019 C 
ATOM     27  C   UNL     1      12.012  -2.349  -1.173  0.00  0.00    +0.002 C 
ATOM     28  C   UNL     1      11.507  -3.702  -0.681  0.00  0.00    +0.002 C 
ATOM     29  C   UNL     1      11.146  -3.601   0.780  0.00  0.00    +0.019 C 
ATOM     30  C   UNL     1       9.656  -3.233   0.939  0.00  0.00    +0.106 C 
ATOM     31  H   UNL     1       7.459  -3.941   0.438  0.00  0.00    +0.167 HD
ENDBRANCH  17  18
ENDBRANCH   3  17
TORSDOF 6
