REMARK  Name = ZINC20791531
REMARK  10 active torsions:
REMARK  status: ('A' for Active; 'I' for Inactive)
REMARK    1  A    between atoms: C_1  and  C_2
REMARK    2  A    between atoms: N_6  and  N_7
REMARK    3  A    between atoms: N_7  and  C_8
REMARK    4  A    between atoms: N_7  and  C_9
REMARK    5  A    between atoms: C_10  and  C_22
REMARK    6  A    between atoms: C_11  and  C_20
REMARK    7  A    between atoms: C_12  and  O_16
REMARK    8  A    between atoms: C_12  and  O_18
REMARK    9  A    between atoms: O_16  and  C_17
REMARK   10  A    between atoms: O_18  and  C_19
REMARK                            x       y       z     vdW  Elec       q    Type
REMARK                         _______ _______ _______ _____ _____    ______ ____
ROOT
ATOM      1  C   UNL     1       1.016  -0.123  -2.050  0.00  0.00    +0.010 C 
ATOM      2  C   UNL     1       0.697   1.318  -1.645  0.00  0.00    +0.021 C 
ATOM      3  C   UNL     1      -0.757   1.658  -2.001  0.00  0.00    +0.059 C 
ATOM      4  C   UNL     1      -1.564   1.571  -0.733  0.00  0.00    +0.066 C 
ATOM      5  N   UNL     1      -2.824   1.773  -0.636  0.00  0.00    -0.192 NA
ATOM      6  C   UNL     1      -0.633   1.228   0.410  0.00  0.00    +0.176 C 
ATOM      7  C   UNL     1       0.806   1.476  -0.122  0.00  0.00    +0.166 C 
ATOM      8  C   UNL     1       0.997   2.964   0.240  0.00  0.00    +0.294 C 
ATOM      9  N   UNL     1       0.105   3.192   1.385  0.00  0.00    -0.210 NA
ATOM     10  C   UNL     1      -0.783   2.268   1.502  0.00  0.00    +0.121 C 
ATOM     11  N   UNL     1      -1.738   2.230   2.484  0.00  0.00    -0.345 N 
ATOM     12  H   UNL     1      -1.779   3.026   3.242  0.00  0.00    +0.143 HD
ATOM     13  H   UNL     1      -2.463   1.403   2.514  0.00  0.00    +0.143 HD
ENDROOT
BRANCH   5  14
ATOM     14  N   UNL     1      -3.584   2.016  -1.788  0.00  0.00    -0.262 N 
ATOM     15  C   UNL     1      -4.599   1.049  -2.213  0.00  0.00    +0.151 C 
ATOM     16  C   UNL     1      -3.365   3.237  -2.567  0.00  0.00    +0.151 C 
ENDBRANCH   5  14
BRANCH   8  17
ATOM     17  O   UNL     1       2.354   3.216   0.609  0.00  0.00    -0.333 OA
ATOM     18  C   UNL     1       3.289   3.041  -0.457  0.00  0.00    +0.199 C 
ENDBRANCH   8  17
BRANCH   8  19
ATOM     19  O   UNL     1       0.617   3.796  -0.858  0.00  0.00    -0.333 OA
ATOM     20  C   UNL     1       0.714   5.196  -0.589  0.00  0.00    +0.199 C 
ENDBRANCH   8  19
BRANCH   7  21
ATOM     21  C   UNL     1       1.815   0.598   0.491  0.00  0.00    +0.080 C 
ATOM     22  N   UNL     1       2.594  -0.080   0.965  0.00  0.00    -0.196 NA
ENDBRANCH   7  21
BRANCH   6  23
ATOM     23  C   UNL     1      -0.828  -0.145   0.904  0.00  0.00    +0.085 C 
ATOM     24  N   UNL     1      -0.978  -1.205   1.285  0.00  0.00    -0.195 NA
ENDBRANCH   6  23
TORSDOF 5
