REMARK  Name = ZINC35696899
REMARK  6 active torsions:
REMARK  status: ('A' for Active; 'I' for Inactive)
REMARK    1  A    between atoms: C_1  and  N_2
REMARK    2  A    between atoms: N_2  and  C_3
REMARK    3  A    between atoms: N_2  and  C_4
REMARK    4  A    between atoms: C_7  and  C_10
REMARK    5  A    between atoms: C_12  and  C_15
REMARK    6  A    between atoms: C_18  and  N_21
REMARK                            x       y       z     vdW  Elec       q    Type
REMARK                         _______ _______ _______ _____ _____    ______ ____
ROOT
ATOM      1  C   UNL     1      -0.006  -2.798  -4.898  0.00  0.00    +0.259 A 
ATOM      2  N   UNL     1      -0.015  -2.255  -6.093  0.00  0.00    -0.187 NA
ATOM      3  C   UNL     1      -0.014  -3.215  -7.032  0.00  0.00    +0.202 A 
ATOM      4  N   UNL     1      -0.004  -4.385  -6.440  0.00  0.00    -0.056 NA
ATOM      5  O   UNL     1       0.007  -4.135  -5.043  0.00  0.00    -0.332 OA
ENDROOT
BRANCH   1   9
ATOM      6  C   UNL     1       0.000  -0.694  -1.208  0.00  0.00    +0.029 A 
ATOM      7  C   UNL     1       0.013  -2.085  -1.214  0.00  0.00    +0.024 A 
ATOM      8  C   UNL     1       0.011  -2.770  -2.408  0.00  0.00    +0.015 A 
ATOM      9  C   UNL     1      -0.005  -2.066  -3.615  0.00  0.00    +0.040 A 
ATOM     10  C   UNL     1      -0.018  -0.669  -3.606  0.00  0.00    +0.015 A 
ATOM     11  C   UNL     1      -0.021   0.010  -2.408  0.00  0.00    +0.024 A 
BRANCH   6  13
ATOM     12  C   UNL     1      -0.018   1.461   0.010  0.00  0.00    +0.129 C 
ATOM     13  N   UNL     1       0.002  -0.004   0.002  0.00  0.00    -0.336 N 
ATOM     14  C   UNL     1       0.024  -0.743   1.267  0.00  0.00    +0.129 C 
ENDBRANCH   6  13
ENDBRANCH   1   9
BRANCH   3  15
ATOM     15  C   UNL     1      -0.022  -2.989  -8.498  0.00  0.00    +0.023 A 
ATOM     16  C   UNL     1      -0.027  -1.689  -9.004  0.00  0.00    +0.013 A 
ATOM     17  C   UNL     1      -0.034  -1.481 -10.366  0.00  0.00    +0.023 A 
ATOM     18  C   UNL     1      -0.037  -2.566 -11.236  0.00  0.00    +0.025 A 
ATOM     19  C   UNL     1      -0.033  -3.863 -10.733  0.00  0.00    +0.023 A 
ATOM     20  C   UNL     1      -0.020  -4.075  -9.371  0.00  0.00    +0.013 A 
BRANCH  18  21
ATOM     21  N   UNL     1      -0.045  -2.354 -12.614  0.00  0.00    -0.358 N 
ATOM     22  H   UNL     1      -0.048  -1.450 -12.965  0.00  0.00    +0.142 HD
ATOM     23  H   UNL     1      -0.047  -3.110 -13.221  0.00  0.00    +0.142 HD
ENDBRANCH  18  21
ENDBRANCH   3  15
TORSDOF 4
