REMARK  Name = ZINC37664001
REMARK  7 active torsions:
REMARK  status: ('A' for Active; 'I' for Inactive)
REMARK    1  A    between atoms: C_1  and  N_2
REMARK    2  A    between atoms: N_2  and  C_3
REMARK    3  A    between atoms: N_2  and  C_15
REMARK    4  A    between atoms: C_3  and  C_4
REMARK    5  A    between atoms: N_6  and  C_7
REMARK    6  A    between atoms: C_10  and  N_14
REMARK    7  A    between atoms: C_15  and  C_16
REMARK                            x       y       z     vdW  Elec       q    Type
REMARK                         _______ _______ _______ _____ _____    ______ ____
ROOT
ATOM      1  C   UNL     1       2.499  -0.608   1.003  0.00  0.00    +0.201 C 
ATOM      2  O   UNL     1       3.028  -0.253  -0.029  0.00  0.00    -0.278 OA
ATOM      3  N   UNL     1       3.254  -0.921   2.074  0.00  0.00    -0.286 N 
ATOM      4  H   UNL     1       2.836  -1.269   2.878  0.00  0.00    +0.155 HD
ENDROOT
BRANCH   3   5
ATOM      5  C   UNL     1       4.644  -0.746   2.027  0.00  0.00    +0.048 A 
ATOM      6  C   UNL     1       5.327  -0.924   0.831  0.00  0.00    +0.026 A 
ATOM      7  C   UNL     1       6.695  -0.752   0.784  0.00  0.00    +0.024 A 
ATOM      8  C   UNL     1       7.391  -0.399   1.934  0.00  0.00    +0.026 A 
ATOM      9  C   UNL     1       6.709  -0.221   3.130  0.00  0.00    +0.039 A 
ATOM     10  C   UNL     1       5.339  -0.388   3.176  0.00  0.00    +0.041 A 
ATOM     11 BR   UNL     1       4.409  -0.138   4.803  0.00  0.00    -0.048 Br
BRANCH   8  12
ATOM     12  N   UNL     1       8.778  -0.225   1.886  0.00  0.00    -0.358 N 
ATOM     13  H   UNL     1       9.254  -0.350   1.050  0.00  0.00    +0.142 HD
ATOM     14  H   UNL     1       9.264   0.021   2.689  0.00  0.00    +0.142 HD
ENDBRANCH   8  12
ENDBRANCH   3   5
BRANCH   1  15
ATOM     15  C   UNL     1       0.997  -0.697   1.088  0.00  0.00    +0.019 C 
BRANCH  15  17
ATOM     16  C   UNL     1       0.700   1.110  -0.461  0.00  0.00    -0.095 C 
ATOM     17  N   UNL     1       0.409  -0.306  -0.200  0.00  0.00    +0.389 N 
ATOM     18  H   UNL     1       0.805  -0.872  -0.936  0.00  0.00    -0.081 HD
BRANCH  17  19
ATOM     19  C   UNL     1      -1.045  -0.508  -0.156  0.00  0.00    +0.036 C 
BRANCH  19  20
ATOM     20  C   UNL     1      -1.643  -0.212  -1.533  0.00  0.00    +0.376 C 
ATOM     21  F   UNL     1      -0.974  -0.967  -2.503  0.00  0.00    -0.173 F 
ATOM     22  F   UNL     1      -3.001  -0.550  -1.534  0.00  0.00    -0.173 F 
ATOM     23  F   UNL     1      -1.500   1.149  -1.821  0.00  0.00    -0.173 F 
ENDBRANCH  19  20
ENDBRANCH  17  19
ENDBRANCH  15  17
ENDBRANCH   1  15
TORSDOF 6
