REMARK  Name = ZINC43424860
REMARK  3 active torsions:
REMARK  status: ('A' for Active; 'I' for Inactive)
REMARK    1  A    between atoms: N_9  and  C_13
REMARK    2  A    between atoms: C_13  and  C_21
REMARK    3  A    between atoms: C_21  and  N_22
REMARK                            x       y       z     vdW  Elec       q    Type
REMARK                         _______ _______ _______ _____ _____    ______ ____
ROOT
ATOM      1  C   UNL     1      -1.390  -2.841   1.479  0.00  0.00    +0.010 C 
ATOM      2  C   UNL     1      -2.537  -2.744   0.477  0.00  0.00    +0.043 C 
ATOM      3  C   UNL     1      -3.230  -4.102   0.343  0.00  0.00    +0.167 C 
ATOM      4  S   UNL     1      -3.964  -4.548   1.945  0.00  0.00    -0.031 S 
ATOM      5  O   UNL     1      -4.357  -5.912   1.899  0.00  0.00    -0.174 OA
ATOM      6  O   UNL     1      -4.926  -3.561   2.291  0.00  0.00    -0.174 OA
ATOM      7  C   UNL     1      -2.543  -4.393   3.068  0.00  0.00    +0.167 C 
ATOM      8  C   UNL     1      -1.926  -3.003   2.898  0.00  0.00    +0.043 C 
ENDROOT
BRANCH   1  15
ATOM      9  C   UNL     1      -3.139   0.822   2.787  0.00  0.00    +0.002 C 
ATOM     10  C   UNL     1      -2.297   2.092   2.649  0.00  0.00    +0.003 C 
ATOM     11  C   UNL     1      -0.846   1.792   3.031  0.00  0.00    +0.033 C 
ATOM     12  C   UNL     1      -0.295   0.706   2.106  0.00  0.00    +0.135 C 
ATOM     13  C   UNL     1      -1.133  -0.566   2.266  0.00  0.00    +0.086 C 
ATOM     14  C   UNL     1      -2.580  -0.270   1.871  0.00  0.00    +0.021 C 
ATOM     15  N   UNL     1      -0.579  -1.618   1.405  0.00  0.00    -0.291 NA
ATOM     16  C   UNL     1       0.822  -1.893   1.763  0.00  0.00    +0.113 C 
ATOM     17  C   UNL     1       1.644  -0.609   1.628  0.00  0.00    +0.175 C 
ATOM     18  O   UNL     1       1.063   0.415   2.442  0.00  0.00    -0.374 OA
ENDBRANCH   1  15
BRANCH   1  19
ATOM     19  C   UNL     1      -0.517  -4.047   1.129  0.00  0.00    -0.064 C 
BRANCH  19  20
ATOM     20  N   UNL     1       0.091  -4.583   2.355  0.00  0.00    +0.379 N 
ATOM     21  H   UNL     1       0.215  -5.580   2.260  0.00  0.00    -0.090 HD
ATOM     22  H   UNL     1       0.987  -4.145   2.505  0.00  0.00    -0.090 HD
ATOM     23  H   UNL     1      -0.513  -4.393   3.141  0.00  0.00    -0.090 HD
ENDBRANCH  19  20
ENDBRANCH   1  19
TORSDOF 3
