REMARK  Name = ZINC50952775
REMARK  4 active torsions:
REMARK  status: ('A' for Active; 'I' for Inactive)
REMARK    1  A    between atoms: N_12  and  C_13
REMARK    2  A    between atoms: C_13  and  C_14
REMARK    3  A    between atoms: C_14  and  C_15
REMARK    4  A    between atoms: C_15  and  C_16
REMARK                            x       y       z     vdW  Elec       q    Type
REMARK                         _______ _______ _______ _____ _____    ______ ____
ROOT
ATOM      1  C   UNL     1      -0.019   1.526   0.010  0.00  0.00    +0.000 C 
ATOM      2  C   UNL     1       1.417   2.055  -0.000  0.00  0.00    -0.002 C 
ATOM      3  C   UNL     1       2.157   1.548   1.239  0.00  0.00    -0.015 C 
ATOM      4  C   UNL     1       2.178   0.018   1.230  0.00  0.00    -0.065 C 
ATOM      5  C   UNL     1       0.742  -0.511   1.242  0.00  0.00    -0.025 C 
ATOM      6  C   UNL     1       0.002  -0.004   0.002  0.00  0.00    +0.002 C 
ATOM      7  C   UNL     1       0.768  -2.042   1.229  0.00  0.00    +0.000 C 
ATOM      8  C   UNL     1       1.579  -2.539   2.429  0.00  0.00    -0.018 C 
ATOM      9  C   UNL     1       2.984  -1.934   2.374  0.00  0.00    -0.078 C 
ATOM     10  N   UNL     1       2.890  -0.470   2.417  0.00  0.00    +0.382 N 
ATOM     11  H   UNL     1       2.390  -0.188   3.247  0.00  0.00    -0.081 HD
ENDROOT
BRANCH  10  12
ATOM     12  C   UNL     1       4.242   0.103   2.445  0.00  0.00    -0.078 C 
BRANCH  12  13
ATOM     13  C   UNL     1       4.942  -0.304   3.744  0.00  0.00    -0.018 C 
BRANCH  13  14
ATOM     14  C   UNL     1       6.350   0.292   3.773  0.00  0.00    +0.001 C 
BRANCH  14  15
ATOM     15  C   UNL     1       7.050  -0.115   5.071  0.00  0.00    -0.015 C 
ATOM     16  C   UNL     1       6.327   0.519   6.263  0.00  0.00    -0.016 C 
ATOM     17  C   UNL     1       7.077   0.172   7.551  0.00  0.00    -0.082 C 
ATOM     18  N   UNL     1       8.448   0.691   7.477  0.00  0.00    +0.379 N 
ATOM     19  C   UNL     1       9.170   0.035   6.380  0.00  0.00    -0.082 C 
ATOM     20  C   UNL     1       8.500   0.376   5.047  0.00  0.00    -0.016 C 
ATOM     21  H   UNL     1       8.422   1.686   7.313  0.00  0.00    -0.086 HD
ATOM     22  H   UNL     1       8.924   0.508   8.348  0.00  0.00    -0.086 HD
ENDBRANCH  14  15
ENDBRANCH  13  14
ENDBRANCH  12  13
ENDBRANCH  10  12
TORSDOF 4
