REMARK  Name = ZINC32131764
REMARK  10 active torsions:
REMARK  status: ('A' for Active; 'I' for Inactive)
REMARK    1  A    between atoms: C_1  and  C_2
REMARK    2  A    between atoms: C_5  and  C_21
REMARK    3  A    between atoms: C_6  and  O_8
REMARK    4  A    between atoms: O_8  and  C_9
REMARK    5  A    between atoms: C_12  and  C_15
REMARK    6  A    between atoms: C_15  and  C_16
REMARK    7  A    between atoms: C_15  and  C_17
REMARK    8  A    between atoms: C_15  and  O_20
REMARK    9  A    between atoms: C_17  and  N_18
REMARK   10  A    between atoms: N_18  and  C_19
REMARK                            x       y       z     vdW  Elec       q    Type
REMARK                         _______ _______ _______ _____ _____    ______ ____
ROOT
ATOM      1  C   UNL     1      -4.752   0.132   1.370  0.00  0.00    +0.128 A 
ATOM      2  C   UNL     1      -4.503   1.437   0.971  0.00  0.00    +0.046 A 
ATOM      3  C   UNL     1      -3.221   1.946   1.038  0.00  0.00    +0.010 A 
ATOM      4  C   UNL     1      -2.185   1.155   1.501  0.00  0.00    -0.018 A 
ATOM      5  C   UNL     1      -2.429  -0.147   1.894  0.00  0.00    +0.010 A 
ATOM      6  C   UNL     1      -3.711  -0.659   1.835  0.00  0.00    +0.046 A 
ENDROOT
BRANCH   4   7
ATOM      7  C   UNL     1      -0.787   1.713   1.572  0.00  0.00    +0.073 C 
ATOM      8  C   UNL     1      -0.062   1.443   0.252  0.00  0.00    +0.044 C 
BRANCH   7   9
ATOM      9  O   UNL     1      -0.847   3.122   1.802  0.00  0.00    -0.386 OA
ATOM     10  H   UNL     1       0.082   3.706   1.884  0.00  0.00    +0.211 HD
ENDBRANCH   7   9
BRANCH   7  11
ATOM     11  C   UNL     1      -0.027   1.041   2.717  0.00  0.00    -0.043 C 
BRANCH  11  12
ATOM     12  N   UNL     1       1.336   1.584   2.787  0.00  0.00    +0.379 N 
ATOM     13  C   UNL     1       2.096   0.961   3.878  0.00  0.00    -0.100 C 
ATOM     14  H   UNL     1       1.857   1.390   1.837  0.00  0.00    -0.086 HD
ATOM     15  H   UNL     1       1.290   2.669   2.964  0.00  0.00    -0.086 HD
ENDBRANCH  11  12
ENDBRANCH   7  11
ENDBRANCH   4   7
BRANCH   1  16
ATOM     16  O   UNL     1      -6.012  -0.372   1.304  0.00  0.00    -0.456 OA
BRANCH  16  22
ATOM     17  C   UNL     1      -6.326  -5.188   0.578  0.00  0.00    +0.044 C 
ATOM     18  C   UNL     1      -6.391  -3.986   1.484  0.00  0.00    -0.047 A 
ATOM     19  C   UNL     1      -6.673  -4.148   2.829  0.00  0.00    +0.004 A 
ATOM     20  C   UNL     1      -6.734  -3.047   3.663  0.00  0.00    +0.007 A 
ATOM     21  C   UNL     1      -6.513  -1.781   3.155  0.00  0.00    -0.008 A 
ATOM     22  C   UNL     1      -6.230  -1.615   1.807  0.00  0.00    +0.132 A 
ATOM     23  C   UNL     1      -6.174  -2.722   0.971  0.00  0.00    +0.050 A 
ATOM     24  C   UNL     1      -6.580  -0.581   4.064  0.00  0.00    +0.047 C 
ENDBRANCH  16  22
ENDBRANCH   1  16
TORSDOF 6
