REMARK  Name = ZINC39631451
REMARK  12 active torsions:
REMARK  status: ('A' for Active; 'I' for Inactive)
REMARK    1  A    between atoms: C_1  and  C_2
REMARK    2  A    between atoms: C_2  and  C_4
REMARK    3  A    between atoms: C_2  and  N_11
REMARK    4  A    between atoms: C_4  and  C_5
REMARK    5  A    between atoms: C_5  and  C_6
REMARK    6  A    between atoms: C_6  and  C_7
REMARK    7  A    between atoms: C_7  and  C_8
REMARK    8  A    between atoms: C_7  and  C_9
REMARK    9  A    between atoms: C_7  and  O_10
REMARK   10  A    between atoms: C_12  and  C_14
REMARK   11  A    between atoms: C_25  and  C_27
REMARK   12  A    between atoms: C_30  and  C_34
REMARK                            x       y       z     vdW  Elec       q    Type
REMARK                         _______ _______ _______ _____ _____    ______ ____
ROOT
ATOM      1  C   UNL     1     -11.505   1.098  -2.083  0.00  0.00    +0.100 C 
ATOM      2  C   UNL     1     -12.213  -0.196  -1.625  0.00  0.00    +0.121 C 
ATOM      3  N   UNL     1     -11.993  -0.245  -0.160  0.00  0.00    -0.296 N 
ATOM      4  C   UNL     1     -12.138   1.163   0.281  0.00  0.00    +0.115 C 
ATOM      5  C   UNL     1     -11.460   1.989  -0.830  0.00  0.00    -0.004 C 
ATOM      6  C   UNL     1     -10.014   2.296  -0.451  0.00  0.00    -0.010 C 
ATOM      7  C   UNL     1      -9.997   3.229   0.763  0.00  0.00    -0.082 C 
ATOM      8  N   UNL     1     -10.713   4.469   0.439  0.00  0.00    +0.379 N 
ATOM      9  C   UNL     1     -12.125   4.175   0.166  0.00  0.00    -0.082 C 
ATOM     10  C   UNL     1     -12.232   3.282  -1.073  0.00  0.00    -0.010 C 
ATOM     11  C   UNL     1     -11.723  -1.325   0.600  0.00  0.00    +0.247 C 
ATOM     12  O   UNL     1     -11.595  -1.205   1.802  0.00  0.00    -0.270 OA
ATOM     13  H   UNL     1     -10.649   5.106   1.219  0.00  0.00    -0.086 HD
ATOM     14  H   UNL     1     -10.296   4.894  -0.375  0.00  0.00    -0.086 HD
ENDROOT
BRANCH  11  15
ATOM     15  C   UNL     1     -11.583  -2.655  -0.030  0.00  0.00    +0.040 A 
ATOM     16  C   UNL     1     -10.480  -2.935  -0.839  0.00  0.00    +0.014 A 
ATOM     17  C   UNL     1     -10.354  -4.178  -1.424  0.00  0.00    +0.016 A 
ATOM     18  C   UNL     1     -11.317  -5.148  -1.211  0.00  0.00    +0.090 A 
ATOM     19  C   UNL     1     -12.415  -4.878  -0.410  0.00  0.00    +0.136 A 
ATOM     20  C   UNL     1     -12.550  -3.638   0.186  0.00  0.00    +0.052 A 
ATOM     21  F   UNL     1     -13.352  -5.829  -0.207  0.00  0.00    -0.205 F 
BRANCH  18  22
ATOM     22  C   UNL     1     -11.172  -6.503  -1.854  0.00  0.00    +0.420 C 
ATOM     23  F   UNL     1     -10.055  -6.503  -2.696  0.00  0.00    -0.166 F 
ATOM     24  F   UNL     1     -11.008  -7.475  -0.861  0.00  0.00    -0.166 F 
ATOM     25  F   UNL     1     -12.320  -6.790  -2.601  0.00  0.00    -0.166 F 
ENDBRANCH  18  22
ENDBRANCH  11  15
BRANCH   1  27
ATOM     26  N   UNL     1      -9.493   1.621  -3.425  0.00  0.00    -0.312 N 
ATOM     27  C   UNL     1     -10.108   0.791  -2.559  0.00  0.00    +0.218 C 
ATOM     28  O   UNL     1      -9.537  -0.202  -2.162  0.00  0.00    -0.275 OA
ATOM     29  H   UNL     1      -9.920   2.452  -3.686  0.00  0.00    +0.149 HD
BRANCH  26  31
ATOM     30  C   UNL     1      -7.088   1.690  -2.986  0.00  0.00    +0.028 C 
ATOM     31  C   UNL     1      -8.181   1.269  -3.971  0.00  0.00    +0.070 C 
BRANCH  31  32
ATOM     32  C   UNL     1      -7.972   1.992  -5.303  0.00  0.00    +0.022 C 
BRANCH  32  33
ATOM     33  C   UNL     1      -8.969   1.459  -6.334  0.00  0.00    +0.005 C 
BRANCH  33  34
ATOM     34  C   UNL     1      -8.675   2.086  -7.699  0.00  0.00    +0.034 C 
BRANCH  34  35
ATOM     35  C   UNL     1      -9.617   1.490  -8.747  0.00  0.00    +0.061 C 
ATOM     36  C   UNL     1     -10.440   2.610  -9.388  0.00  0.00    +0.041 C 
ATOM     37  C   UNL     1      -8.796   0.779  -9.825  0.00  0.00    +0.041 C 
BRANCH  35  38
ATOM     38  O   UNL     1     -10.495   0.553  -8.121  0.00  0.00    -0.389 OA
ATOM     39  H   UNL     1     -11.103   0.950  -7.482  0.00  0.00    +0.210 HD
ENDBRANCH  35  38
ENDBRANCH  34  35
ENDBRANCH  33  34
ENDBRANCH  32  33
ENDBRANCH  31  32
ENDBRANCH  26  31
ENDBRANCH   1  27
TORSDOF 9
