REMARK  Name = ZINC56522317
REMARK  8 active torsions:
REMARK  status: ('A' for Active; 'I' for Inactive)
REMARK    1  A    between atoms: C_1  and  N_2
REMARK    2  A    between atoms: N_2  and  C_3
REMARK    3  A    between atoms: N_2  and  C_4
REMARK    4  A    between atoms: C_4  and  C_5
REMARK    5  A    between atoms: C_5  and  C_6
REMARK    6  A    between atoms: N_9  and  C_12
REMARK    7  A    between atoms: C_12  and  C_13
REMARK    8  A    between atoms: N_15  and  C_16
REMARK                            x       y       z     vdW  Elec       q    Type
REMARK                         _______ _______ _______ _____ _____    ______ ____
ROOT
ATOM      1  C   UNL     1       5.836  -2.576  -4.712  0.00  0.00    +0.019 C 
ENDROOT
BRANCH   1   5
ATOM      2  C   UNL     1       2.875  -0.547  -2.416  0.00  0.00    -0.016 C 
ATOM      3  C   UNL     1       2.905  -2.078  -2.421  0.00  0.00    -0.015 C 
ATOM      4  C   UNL     1       3.691  -2.563  -3.641  0.00  0.00    -0.078 C 
ATOM      5  N   UNL     1       5.064  -2.045  -3.581  0.00  0.00    +0.385 N 
ATOM      6  C   UNL     1       5.046  -0.579  -3.648  0.00  0.00    -0.078 C 
ATOM      7  C   UNL     1       4.312  -0.018  -2.428  0.00  0.00    -0.015 C 
ATOM      8  H   UNL     1       5.494  -2.336  -2.716  0.00  0.00    -0.081 HD
BRANCH   2   9
ATOM      9  C   UNL     1       2.159  -0.053  -1.157  0.00  0.00    -0.015 C 
BRANCH   9  10
ATOM     10  C   UNL     1       0.690  -0.478  -1.207  0.00  0.00    -0.079 C 
BRANCH  10  12
ATOM     11  C   UNL     1      -0.018   1.465   0.010  0.00  0.00    -0.097 C 
ATOM     12  N   UNL     1       0.002  -0.004   0.002  0.00  0.00    +0.376 N 
ATOM     13  C   UNL     1      -1.376  -0.512   0.012  0.00  0.00    -0.097 C 
ATOM     14  H   UNL     1       0.490  -0.338   0.820  0.00  0.00    -0.083 HD
ENDBRANCH  10  12
ENDBRANCH   9  10
ENDBRANCH   2   9
ENDBRANCH   1   5
BRANCH   1  15
ATOM     15  C   UNL     1       7.274  -2.146  -4.584  0.00  0.00    +0.197 C 
ATOM     16  O   UNL     1       7.622  -1.463  -3.644  0.00  0.00    -0.278 OA
ATOM     17  N   UNL     1       8.175  -2.519  -5.515  0.00  0.00    -0.306 N 
ATOM     18  H   UNL     1       7.896  -3.065  -6.268  0.00  0.00    +0.149 HD
BRANCH  17  19
ATOM     19  C   UNL     1       9.573  -2.100  -5.391  0.00  0.00    +0.159 C 
ATOM     20  C   UNL     1      10.473  -3.084  -6.142  0.00  0.00    +0.032 C 
ATOM     21  C   UNL     1      11.880  -3.067  -5.573  0.00  0.00    +0.004 C 
ATOM     22  C   UNL     1      12.618  -1.761  -5.802  0.00  0.00    +0.019 C 
ATOM     23  C   UNL     1      11.970  -0.623  -5.010  0.00  0.00    +0.104 C 
ATOM     24  N   UNL     1      10.882  -0.048  -5.816  0.00  0.00    -0.314 N 
ATOM     25  C   UNL     1       9.748  -0.724  -5.999  0.00  0.00    +0.233 C 
ATOM     26  O   UNL     1       8.854  -0.236  -6.658  0.00  0.00    -0.274 OA
ATOM     27  H   UNL     1      10.989   0.830  -6.215  0.00  0.00    +0.149 HD
ENDBRANCH  17  19
ENDBRANCH   1  15
TORSDOF 6
