REMARK  Name = ZINC61293132
REMARK  9 active torsions:
REMARK  status: ('A' for Active; 'I' for Inactive)
REMARK    1  A    between atoms: C_1  and  C_2
REMARK    2  A    between atoms: C_2  and  N_3
REMARK    3  A    between atoms: N_3  and  C_4
REMARK    4  A    between atoms: C_4  and  C_5
REMARK    5  A    between atoms: C_4  and  C_6
REMARK    6  A    between atoms: C_4  and  C_7
REMARK    7  A    between atoms: N_9  and  C_10
REMARK    8  A    between atoms: C_12  and  C_18
REMARK    9  A    between atoms: C_15  and  C_16
REMARK                            x       y       z     vdW  Elec       q    Type
REMARK                         _______ _______ _______ _____ _____    ______ ____
ROOT
ATOM      1  C   UNL     1      -5.058  -2.267   0.623  0.00  0.00    +0.040 A 
ATOM      2  C   UNL     1      -5.498  -2.978  -0.483  0.00  0.00    +0.036 A 
ATOM      3  C   UNL     1      -6.825  -3.400  -0.554  0.00  0.00    +0.041 A 
ATOM      4  C   UNL     1      -7.704  -3.103   0.489  0.00  0.00    +0.051 A 
ATOM      5  C   UNL     1      -7.257  -2.393   1.587  0.00  0.00    +0.129 A 
ATOM      6  C   UNL     1      -5.938  -1.980   1.659  0.00  0.00    +0.006 A 
ATOM      7  C   UNL     1      -5.455  -1.212   2.862  0.00  0.00    +0.048 C 
ATOM      8  F   UNL     1      -8.109  -2.106   2.596  0.00  0.00    -0.205 F 
ENDROOT
BRANCH   3   9
ATOM      9  C   UNL     1      -7.301  -4.158  -1.731  0.00  0.00    +0.242 C 
ATOM     10  O   UNL     1      -6.534  -4.415  -2.639  0.00  0.00    -0.270 OA
ATOM     11  N   UNL     1      -8.584  -4.564  -1.798  0.00  0.00    -0.325 N 
ATOM     12  H   UNL     1      -9.196  -4.359  -1.073  0.00  0.00    +0.145 HD
ATOM     13  H   UNL     1      -8.896  -5.062  -2.570  0.00  0.00    +0.145 HD
ENDBRANCH   3   9
BRANCH   1  16
ATOM     14  C   UNL     1      -2.770  -2.501   0.013  0.00  0.00    +0.206 C 
ATOM     15  O   UNL     1      -3.046  -3.519  -0.587  0.00  0.00    -0.277 OA
ATOM     16  N   UNL     1      -3.727  -1.843   0.697  0.00  0.00    -0.286 N 
ATOM     17  H   UNL     1      -3.492  -1.075   1.242  0.00  0.00    +0.155 HD
BRANCH  14  18
ATOM     18  C   UNL     1      -1.359  -1.973  -0.007  0.00  0.00    +0.004 C 
ATOM     19  C   UNL     1      -0.647  -2.468  -1.268  0.00  0.00    -0.001 C 
ATOM     20  C   UNL     1      -0.610  -2.471   1.230  0.00  0.00    -0.001 C 
BRANCH  18  21
ATOM     21  N   UNL     1      -1.386  -0.504  -0.006  0.00  0.00    +0.388 N 
ATOM     22  H   UNL     1      -1.856  -0.177   0.826  0.00  0.00    -0.084 HD
ATOM     23  H   UNL     1      -1.880  -0.176  -0.822  0.00  0.00    -0.084 HD
BRANCH  21  25
ATOM     24  C   UNL     1      -0.039   1.541  -0.023  0.00  0.00    -0.017 C 
ATOM     25  C   UNL     1      -0.011   0.011  -0.025  0.00  0.00    -0.085 C 
ENDBRANCH  21  25
ENDBRANCH  18  21
ENDBRANCH  14  18
ENDBRANCH   1  16
TORSDOF 5
