REMARK  Name = ZINC05740655
REMARK  4 active torsions:
REMARK  status: ('A' for Active; 'I' for Inactive)
REMARK    1  A    between atoms: C_1  and  C_2
REMARK    2  A    between atoms: C_7  and  N_8
REMARK    3  A    between atoms: C_11  and  C_16
REMARK    4  A    between atoms: N_13  and  C_15
REMARK                            x       y       z     vdW  Elec       q    Type
REMARK                         _______ _______ _______ _____ _____    ______ ____
ROOT
ATOM      1  N   UNL     1      -2.867  -0.981  -0.068  0.00  0.00    -0.282 N 
ATOM      2  C   UNL     1      -2.425  -2.298  -0.161  0.00  0.00    +0.238 A 
ATOM      3  N   UNL     1      -3.331  -3.272  -0.265  0.00  0.00    -0.209 NA
ATOM      4  C   UNL     1      -2.972  -4.536  -0.360  0.00  0.00    +0.116 A 
ATOM      5  C   UNL     1      -1.535  -4.873  -0.340  0.00  0.00    +0.147 A 
ATOM      6  N   UNL     1      -0.639  -3.838  -0.226  0.00  0.00    -0.247 N 
ATOM      7  N   UNL     1      -1.137  -2.530  -0.137  0.00  0.00    -0.133 NA
ATOM      8  C   UNL     1       0.804  -4.095  -0.200  0.00  0.00    +0.175 C 
ATOM      9  H   UNL     1      -3.810  -0.778  -0.170  0.00  0.00    +0.155 HD
ATOM     10  H   UNL     1      -0.201  -6.422  -0.421  0.00  0.00    +0.157 HD
ATOM     11  N   UNL     1      -1.187  -6.159  -0.433  0.00  0.00    -0.382 N 
ATOM     12  H   UNL     1      -1.910  -6.882  -0.515  0.00  0.00    +0.157 HD
ENDROOT
BRANCH   1  19
ATOM     13  C   UNL     1      -3.386   1.571  -1.214  0.00  0.00    +0.045 C 
ATOM     14  C   UNL     1      -2.168   1.310  -0.365  0.00  0.00    -0.029 A 
ATOM     15  C   UNL     1      -1.263   2.325  -0.125  0.00  0.00    +0.005 A 
ATOM     16  C   UNL     1      -0.143   2.086   0.650  0.00  0.00    +0.000 A 
ATOM     17  C   UNL     1       0.075   0.830   1.187  0.00  0.00    +0.002 A 
ATOM     18  C   UNL     1      -0.827  -0.189   0.951  0.00  0.00    +0.023 A 
ATOM     19  C   UNL     1      -1.953   0.048   0.173  0.00  0.00    +0.037 A 
ENDBRANCH   1  19
BRANCH   4  20
ATOM     20  C   UNL     1      -3.993  -5.600  -0.480  0.00  0.00    +0.004 A 
ATOM     21  C   UNL     1      -3.740  -6.728  -1.263  0.00  0.00    +0.010 A 
ATOM     22  C   UNL     1      -4.695  -7.719  -1.367  0.00  0.00    +0.001 A 
ATOM     23  C   UNL     1      -5.903  -7.591  -0.706  0.00  0.00    +0.000 A 
ATOM     24  C   UNL     1      -6.162  -6.473   0.068  0.00  0.00    +0.001 A 
ATOM     25  C   UNL     1      -5.214  -5.478   0.184  0.00  0.00    +0.010 A 
ENDBRANCH   4  20
TORSDOF 2
