REMARK  Name = ZINC35233374
REMARK  6 active torsions:
REMARK  status: ('A' for Active; 'I' for Inactive)
REMARK    1  A    between atoms: C_1  and  N_2
REMARK    2  A    between atoms: N_2  and  C_3
REMARK    3  A    between atoms: C_4  and  C_6
REMARK    4  A    between atoms: C_6  and  N_7
REMARK    5  A    between atoms: N_7  and  C_8
REMARK    6  A    between atoms: C_8  and  C_9
REMARK                            x       y       z     vdW  Elec       q    Type
REMARK                         _______ _______ _______ _____ _____    ______ ____
ROOT
ATOM      1  C   UNL     1      -3.907  -4.699   0.014  0.00  0.00    +0.199 C 
ATOM      2  O   UNL     1      -4.840  -3.924   0.027  0.00  0.00    -0.278 OA
ATOM      3  N   UNL     1      -4.136  -6.028   0.009  0.00  0.00    -0.298 N 
ATOM      4  C   UNL     1      -5.511  -6.548   0.013  0.00  0.00    +0.113 C 
ATOM      5  C   UNL     1      -5.749  -7.294  -1.309  0.00  0.00    +0.061 C 
ATOM      6  C   UNL     1      -4.547  -8.129  -1.610  0.00  0.00    -0.004 A 
ATOM      7  C   UNL     1      -3.304  -8.031  -1.067  0.00  0.00    -0.020 A 
ATOM      8  C   UNL     1      -2.346  -8.932  -1.530  0.00  0.00    +0.013 A 
ATOM      9  C   UNL     1      -2.676  -9.847  -2.469  0.00  0.00    +0.046 A 
ATOM     10  S   UNL     1      -4.400  -9.474  -2.756  0.00  0.00    -0.101 S 
ATOM     11  C   UNL     1      -3.014  -6.976  -0.007  0.00  0.00    +0.143 C 
ENDROOT
BRANCH   1  12
ATOM     12  C   UNL     1      -2.494  -4.178   0.003  0.00  0.00    +0.016 C 
BRANCH  12  13
ATOM     13  N   UNL     1      -2.514  -2.709   0.011  0.00  0.00    +0.390 N 
ATOM     14  H   UNL     1      -2.986  -2.384   0.842  0.00  0.00    -0.085 HD
ATOM     15  H   UNL     1      -3.002  -2.375  -0.806  0.00  0.00    -0.085 HD
BRANCH  13  16
ATOM     16  C   UNL     1      -1.135  -2.201   0.001  0.00  0.00    +0.016 C 
BRANCH  16  20
ATOM     17  C   UNL     1      -0.018   1.461   0.010  0.00  0.00    +0.131 C 
ATOM     18  N   UNL     1       0.002  -0.004   0.002  0.00  0.00    -0.309 N 
ATOM     19  C   UNL     1       1.281  -0.719  -0.014  0.00  0.00    +0.131 C 
ATOM     20  C   UNL     1      -1.156  -0.694   0.009  0.00  0.00    +0.198 C 
ATOM     21  O   UNL     1      -2.214  -0.102   0.023  0.00  0.00    -0.278 OA
ENDBRANCH  16  20
ENDBRANCH  13  16
ENDBRANCH  12  13
ENDBRANCH   1  12
TORSDOF 4
