REMARK  Name = ZINC06576945
REMARK  11 active torsions:
REMARK  status: ('A' for Active; 'I' for Inactive)
REMARK    1  A    between atoms: C_1  and  C_2
REMARK    2  A    between atoms: C_2  and  S_3
REMARK    3  A    between atoms: S_3  and  C_4
REMARK    4  A    between atoms: C_4  and  S_25
REMARK    5  A    between atoms: C_5  and  C_23
REMARK    6  A    between atoms: C_6  and  C_22
REMARK    7  A    between atoms: C_7  and  C_21
REMARK    8  A    between atoms: C_8  and  C_15
REMARK    9  A    between atoms: C_10  and  C_13
REMARK   10  A    between atoms: S_25  and  C_26
REMARK   11  A    between atoms: C_26  and  C_27
REMARK                            x       y       z     vdW  Elec       q    Type
REMARK                         _______ _______ _______ _____ _____    ______ ____
ROOT
ATOM      1  C   UNL     1       4.756   0.257  -3.905  0.00  0.00    +0.157 C 
ATOM      2  C   UNL     1       4.345   0.754  -2.518  0.00  0.00    +0.148 C 
ATOM      3  C   UNL     1       5.449   1.011  -1.532  0.00  0.00    -0.032 C 
ATOM      4  C   UNL     1       5.054   0.920  -0.253  0.00  0.00    -0.014 C 
ATOM      5  C   UNL     1       2.862  -0.184  -0.794  0.00  0.00    +0.113 C 
ATOM      6  C   UNL     1       3.684  -0.566  -2.002  0.00  0.00    +0.156 C 
ATOM      7  C   UNL     1       3.015  -1.094  -3.222  0.00  0.00    +0.092 C 
ATOM      8  N   UNL     1       1.920  -1.917  -3.236  0.00  0.00    -0.347 N 
ATOM      9  C   UNL     1       6.060   1.131   0.849  0.00  0.00    +0.059 C 
ATOM     10  C   UNL     1       6.862   1.338  -1.940  0.00  0.00    +0.042 C 
ATOM     11  H   UNL     1       1.644  -2.371  -2.424  0.00  0.00    +0.143 HD
ATOM     12  H   UNL     1       1.421  -2.046  -4.057  0.00  0.00    +0.143 HD
ATOM     13  N   UNL     1       3.702   0.669   0.151  0.00  0.00    -0.401 NA
ATOM     14  H   UNL     1       3.234   1.577   0.255  0.00  0.00    +0.124 HD
ATOM     15  H   UNL     1       3.732   0.194   1.061  0.00  0.00    +0.124 HD
ATOM     16  N   UNL     1       3.637  -0.649  -4.290  0.00  0.00    -0.351 N 
ATOM     17  H   UNL     1       3.387  -0.892  -5.255  0.00  0.00    +0.163 HD
ENDROOT
BRANCH   5  18
ATOM     18  C   UNL     1       1.661   0.619  -1.222  0.00  0.00    -0.027 A 
ATOM     19  C   UNL     1       0.678   0.033  -1.997  0.00  0.00    +0.005 A 
ATOM     20  C   UNL     1      -0.425   0.769  -2.388  0.00  0.00    +0.000 A 
ATOM     21  C   UNL     1      -0.544   2.092  -2.005  0.00  0.00    +0.000 A 
ATOM     22  C   UNL     1       0.439   2.679  -1.230  0.00  0.00    +0.000 A 
ATOM     23  C   UNL     1       1.541   1.942  -0.838  0.00  0.00    +0.005 A 
ENDBRANCH   5  18
BRANCH   6  24
ATOM     24  C   UNL     1       4.750  -1.495  -1.590  0.00  0.00    +0.081 C 
ATOM     25  N   UNL     1       5.572  -2.212  -1.273  0.00  0.00    -0.195 NA
ENDBRANCH   6  24
BRANCH   2  26
ATOM     26  C   UNL     1       3.390   1.871  -2.592  0.00  0.00    +0.080 C 
ATOM     27  N   UNL     1       2.653   2.734  -2.650  0.00  0.00    -0.195 NA
ENDBRANCH   2  26
BRANCH   1  28
ATOM     28  S   UNL     1       6.322  -0.656  -3.823  0.00  0.00    -0.121 S 
BRANCH  28  30
ATOM     29  C   UNL     1       7.254  -3.033  -4.804  0.00  0.00    +0.015 C 
ATOM     30  C   UNL     1       6.040  -2.105  -4.878  0.00  0.00    +0.069 C 
ENDBRANCH  28  30
ENDBRANCH   1  28
BRANCH   1  31
ATOM     31  S   UNL     1       4.879   1.640  -5.073  0.00  0.00    -0.121 S 
BRANCH  31  32
ATOM     32  C   UNL     1       5.347   0.853  -6.638  0.00  0.00    +0.069 C 
ATOM     33  C   UNL     1       5.597   1.930  -7.696  0.00  0.00    +0.015 C 
ENDBRANCH  31  32
ENDBRANCH   1  31
TORSDOF 7
