REMARK  Name = ZINC45606071
REMARK  12 active torsions:
REMARK  status: ('A' for Active; 'I' for Inactive)
REMARK    1  A    between atoms: C_1  and  C_2
REMARK    2  A    between atoms: C_4  and  C_31
REMARK    3  A    between atoms: C_5  and  N_9
REMARK    4  A    between atoms: C_6  and  C_8
REMARK    5  A    between atoms: C_10  and  C_12
REMARK    6  A    between atoms: C_12  and  N_13
REMARK    7  A    between atoms: N_13  and  C_14
REMARK    8  A    between atoms: N_13  and  C_15
REMARK    9  A    between atoms: C_15  and  C_16
REMARK   10  A    between atoms: C_16  and  C_18
REMARK   11  A    between atoms: C_19  and  N_30
REMARK   12  A    between atoms: N_20  and  C_27
REMARK                            x       y       z     vdW  Elec       q    Type
REMARK                         _______ _______ _______ _____ _____    ______ ____
ROOT
ATOM      1  C   UNL     1       1.325  -8.778   1.660  0.00  0.00    +0.003 C 
ENDROOT
BRANCH   1   2
ATOM      2  N   UNL     1       1.143  -7.324   1.763  0.00  0.00    +0.388 N 
ATOM      3  C   UNL     1       2.444  -6.682   1.988  0.00  0.00    -0.095 C 
ATOM      4  H   UNL     1       0.526  -7.116   2.534  0.00  0.00    -0.081 HD
BRANCH   2   5
ATOM      5  C   UNL     1       0.555  -6.815   0.516  0.00  0.00    +0.019 C 
BRANCH   5   7
ATOM      6  N   UNL     1      -0.293  -4.663  -0.360  0.00  0.00    -0.287 N 
ATOM      7  C   UNL     1       0.254  -5.346   0.665  0.00  0.00    +0.201 C 
ATOM      8  O   UNL     1       0.504  -4.779   1.708  0.00  0.00    -0.278 OA
ATOM      9  H   UNL     1      -0.566  -5.131  -1.164  0.00  0.00    +0.155 HD
BRANCH   6  14
ATOM     10  C   UNL     1      -1.004   0.952   0.031  0.00  0.00    +0.044 C 
ATOM     11  C   UNL     1      -0.815  -0.540  -0.072  0.00  0.00    -0.050 A 
ATOM     12  C   UNL     1      -0.075  -1.071  -1.113  0.00  0.00    +0.008 A 
ATOM     13  C   UNL     1       0.100  -2.437  -1.211  0.00  0.00    -0.029 A 
ATOM     14  C   UNL     1      -0.468  -3.278  -0.263  0.00  0.00    +0.039 A 
ATOM     15  C   UNL     1      -1.210  -2.742   0.781  0.00  0.00    -0.029 A 
ATOM     16  C   UNL     1      -1.377  -1.374   0.876  0.00  0.00    +0.008 A 
ATOM     17  C   UNL     1      -1.828  -3.651   1.812  0.00  0.00    +0.045 C 
ATOM     18  C   UNL     1       0.905  -3.015  -2.346  0.00  0.00    +0.045 C 
ENDBRANCH   6  14
ENDBRANCH   5   7
ENDBRANCH   2   5
ENDBRANCH   1   2
BRANCH   1  19
ATOM     19  C   UNL     1       1.812  -9.317   2.981  0.00  0.00    +0.155 C 
ATOM     20  O   UNL     1       1.990  -8.563   3.916  0.00  0.00    -0.294 OA
BRANCH  19  21
ATOM     21  C   UNL     1       2.062 -10.698   3.130  0.00  0.00    +0.118 A 
ATOM     22  C   UNL     1       2.628 -11.210   4.311  0.00  0.00    +0.116 A 
ATOM     23  N   UNL     1       2.850 -12.553   4.408  0.00  0.00    -0.278 N 
ATOM     24  C   UNL     1       2.540 -13.387   3.403  0.00  0.00    +0.331 A 
ATOM     25  O   UNL     1       2.757 -14.575   3.539  0.00  0.00    -0.246 OA
ATOM     26  N   UNL     1       1.997 -12.957   2.252  0.00  0.00    -0.274 N 
ATOM     27  H   UNL     1       1.789 -13.595   1.553  0.00  0.00    +0.173 HD
ATOM     28  C   UNL     1       1.733 -11.648   2.059  0.00  0.00    +0.266 A 
ATOM     29  O   UNL     1       1.236 -11.262   1.017  0.00  0.00    -0.267 OA
BRANCH  23  30
ATOM     30  C   UNL     1       3.440 -13.096   5.635  0.00  0.00    +0.094 C 
ATOM     31  C   UNL     1       2.757 -14.310   6.270  0.00  0.00    +0.027 C 
ATOM     32  C   UNL     1       2.645 -12.935   6.932  0.00  0.00    +0.027 C 
ENDBRANCH  23  30
BRANCH  22  33
ATOM     33  N   UNL     1       2.949 -10.379   5.339  0.00  0.00    -0.344 N 
ATOM     34  H   UNL     1       2.706  -9.441   5.299  0.00  0.00    +0.144 HD
ATOM     35  H   UNL     1       3.422 -10.725   6.112  0.00  0.00    +0.144 HD
ENDBRANCH  22  33
ENDBRANCH  19  21
ENDBRANCH   1  19
TORSDOF 8
