REMARK  Name = ZINC40296763
REMARK  8 active torsions:
REMARK  status: ('A' for Active; 'I' for Inactive)
REMARK    1  A    between atoms: C_1  and  C_2
REMARK    2  A    between atoms: C_3  and  N_21
REMARK    3  A    between atoms: C_5  and  C_7
REMARK    4  A    between atoms: N_9  and  C_10
REMARK    5  A    between atoms: C_12  and  O_19
REMARK    6  A    between atoms: C_15  and  O_16
REMARK    7  A    between atoms: O_16  and  C_17
REMARK    8  A    between atoms: O_19  and  C_20
REMARK                            x       y       z     vdW  Elec       q    Type
REMARK                         _______ _______ _______ _____ _____    ______ ____
ROOT
ATOM      1  C   UNL     1       1.190  -3.969   0.549  0.00  0.00    +0.255 C 
ATOM      2  O   UNL     1       0.560  -4.869   1.073  0.00  0.00    -0.269 OA
ATOM      3  N   UNL     1       2.379  -4.228  -0.031  0.00  0.00    -0.278 N 
ATOM      4  H   UNL     1       2.850  -3.525  -0.505  0.00  0.00    +0.155 HD
ENDROOT
BRANCH   3   5
ATOM      5  C   UNL     1       2.934  -5.511   0.051  0.00  0.00    +0.079 A 
ATOM      6  C   UNL     1       2.109  -6.627   0.038  0.00  0.00    +0.074 A 
ATOM      7  C   UNL     1       2.660  -7.896   0.119  0.00  0.00    +0.140 A 
ATOM      8  C   UNL     1       4.036  -8.051   0.213  0.00  0.00    +0.086 A 
ATOM      9  C   UNL     1       4.860  -6.941   0.227  0.00  0.00    +0.071 A 
ATOM     10  C   UNL     1       4.314  -5.670   0.141  0.00  0.00    +0.143 A 
ATOM     11 CL   UNL     1       4.724  -9.642   0.316  0.00  0.00    -0.080 Cl
BRANCH  10  12
ATOM     12  O   UNL     1       5.126  -4.578   0.148  0.00  0.00    -0.493 OA
ATOM     13  C   UNL     1       6.532  -4.816   0.242  0.00  0.00    +0.277 C 
ENDBRANCH  10  12
BRANCH   7  14
ATOM     14  O   UNL     1       1.852  -8.990   0.106  0.00  0.00    -0.494 OA
ATOM     15  C   UNL     1       0.446  -8.756   0.007  0.00  0.00    +0.277 C 
ENDBRANCH   7  14
ENDBRANCH   3   5
BRANCH   1  20
ATOM     16  C   UNL     1      -0.021   1.501   0.053  0.00  0.00    +0.053 C 
ATOM     17  C   UNL     1       0.070   0.020   0.313  0.00  0.00    +0.008 A 
ATOM     18  C   UNL     1      -0.819  -0.793   0.957  0.00  0.00    +0.035 A 
ATOM     19  C   UNL     1      -0.533  -2.132   1.083  0.00  0.00    +0.043 A 
ATOM     20  C   UNL     1       0.656  -2.605   0.548  0.00  0.00    +0.076 A 
ATOM     21  S   UNL     1       1.364  -1.121  -0.147  0.00  0.00    -0.087 S 
BRANCH  18  22
ATOM     22  N   UNL     1      -2.013  -0.267   1.484  0.00  0.00    -0.357 N 
ATOM     23  H   UNL     1      -2.209   0.679   1.391  0.00  0.00    +0.142 HD
ATOM     24  H   UNL     1      -2.640  -0.850   1.940  0.00  0.00    +0.142 HD
ENDBRANCH  18  22
ENDBRANCH   1  20
TORSDOF 5
