REMARK  Name = ZINC00460933
REMARK  3 active torsions:
REMARK  status: ('A' for Active; 'I' for Inactive)
REMARK    1  A    between atoms: C_1  and  C_2
REMARK    2  A    between atoms: C_5  and  C_9
REMARK    3  A    between atoms: C_7  and  C_8
REMARK                            x       y       z     vdW  Elec       q    Type
REMARK                         _______ _______ _______ _____ _____    ______ ____
ROOT
ATOM      1  C   UNL     1       0.058  -4.250  -0.021  0.00  0.00    +0.266 C 
ATOM      2  O   UNL     1       0.495  -4.846  -0.985  0.00  0.00    -0.267 OA
ATOM      3  N   UNL     1      -0.421  -4.936   1.035  0.00  0.00    -0.236 N 
ATOM      4  C   UNL     1      -1.043  -4.422   2.147  0.00  0.00    +0.233 A 
ATOM      5  N   UNL     1      -1.344  -5.426   2.918  0.00  0.00    -0.136 NA
ATOM      6  N   UNL     1      -0.963  -6.530   2.382  0.00  0.00    -0.113 NA
ATOM      7  C   UNL     1      -0.395  -6.294   1.224  0.00  0.00    +0.221 A 
ATOM      8  N   UNL     1       0.132  -7.236   0.358  0.00  0.00    -0.327 N 
ATOM      9  H   UNL     1       0.535  -6.955  -0.478  0.00  0.00    +0.145 HD
ATOM     10  H   UNL     1       0.099  -8.178   0.588  0.00  0.00    +0.145 HD
ENDROOT
BRANCH   1  15
ATOM     11  C   UNL     1       0.032   1.503   0.034  0.00  0.00    +0.044 C 
ATOM     12  C   UNL     1       0.040  -0.004   0.019  0.00  0.00    -0.047 A 
ATOM     13  C   UNL     1      -0.107  -0.682  -1.178  0.00  0.00    +0.004 A 
ATOM     14  C   UNL     1      -0.102  -2.061  -1.199  0.00  0.00    +0.013 A 
ATOM     15  C   UNL     1       0.052  -2.773  -0.007  0.00  0.00    +0.040 A 
ATOM     16  C   UNL     1       0.200  -2.083   1.197  0.00  0.00    +0.017 A 
ATOM     17  C   UNL     1       0.198  -0.703   1.203  0.00  0.00    -0.047 A 
ATOM     18  C   UNL     1       0.363   0.044   2.501  0.00  0.00    +0.044 C 
ENDBRANCH   1  15
TORSDOF 1
