REMARK  Name = ZINC37692137
REMARK  5 active torsions:
REMARK  status: ('A' for Active; 'I' for Inactive)
REMARK    1  A    between atoms: C_4  and  O_20
REMARK    2  A    between atoms: C_6  and  N_9
REMARK    3  A    between atoms: N_9  and  C_10
REMARK    4  A    between atoms: N_9  and  C_14
REMARK    5  A    between atoms: C_10  and  C_11
REMARK                            x       y       z     vdW  Elec       q    Type
REMARK                         _______ _______ _______ _____ _____    ______ ____
ROOT
ATOM      1  N   UNL     1       0.511  -2.009  -1.157  0.00  0.00    -0.286 NA
ENDROOT
BRANCH   1   2
ATOM      2  C   UNL     1      -0.822  -2.625  -1.104  0.00  0.00    +0.054 C 
ATOM      3  C   UNL     1      -1.825  -1.740  -1.850  0.00  0.00    -0.000 C 
ATOM      4  C   UNL     1      -3.224  -2.345  -1.723  0.00  0.00    -0.081 C 
ATOM      5  N   UNL     1      -3.600  -2.426  -0.306  0.00  0.00    +0.379 N 
ATOM      6  C   UNL     1      -2.685  -3.330   0.401  0.00  0.00    -0.081 C 
ATOM      7  C   UNL     1      -1.264  -2.762   0.356  0.00  0.00    -0.000 C 
ATOM      8  H   UNL     1      -3.549  -1.507   0.107  0.00  0.00    -0.086 HD
ATOM      9  H   UNL     1      -4.543  -2.776  -0.228  0.00  0.00    -0.086 HD
ENDBRANCH   1   2
BRANCH   1  14
ATOM     10  C   UNL     1       0.008   1.619  -0.168  0.00  0.00    +0.002 C 
ATOM     11  C   UNL     1       1.332   2.158  -0.713  0.00  0.00    +0.003 C 
ATOM     12  C   UNL     1       1.634   1.500  -2.061  0.00  0.00    +0.033 C 
ATOM     13  C   UNL     1       1.737  -0.015  -1.878  0.00  0.00    +0.132 C 
ATOM     14  C   UNL     1       0.412  -0.554  -1.333  0.00  0.00    +0.086 C 
ATOM     15  C   UNL     1       0.110   0.103   0.015  0.00  0.00    +0.021 C 
BRANCH  13  16
ATOM     16  O   UNL     1       2.787  -0.314  -0.957  0.00  0.00    -0.390 OA
ATOM     17  H   UNL     1       3.658  -0.001  -1.238  0.00  0.00    +0.210 HD
ENDBRANCH  13  16
ENDBRANCH   1  14
BRANCH   1  18
ATOM     18  C   UNL     1       1.293  -2.343   0.040  0.00  0.00    +0.180 C 
BRANCH  18  19
ATOM     19  C   UNL     1       1.586  -3.821   0.053  0.00  0.00    +0.225 C 
ATOM     20  O   UNL     1       1.271  -4.510  -0.894  0.00  0.00    -0.275 OA
ATOM     21  N   UNL     1       2.197  -4.378   1.118  0.00  0.00    -0.328 N 
ATOM     22  H   UNL     1       2.449  -3.827   1.875  0.00  0.00    +0.145 HD
ATOM     23  H   UNL     1       2.386  -5.329   1.126  0.00  0.00    +0.145 HD
ENDBRANCH  18  19
ENDBRANCH   1  18
TORSDOF 5
