REMARK  Name = ZINC37161088
REMARK  12 active torsions:
REMARK  status: ('A' for Active; 'I' for Inactive)
REMARK    1  A    between atoms: C_1  and  C_2
REMARK    2  A    between atoms: C_6  and  C_22
REMARK    3  A    between atoms: C_8  and  N_11
REMARK    4  A    between atoms: N_11  and  C_12
REMARK    5  A    between atoms: C_12  and  C_14
REMARK    6  A    between atoms: C_12  and  C_18
REMARK    7  A    between atoms: C_14  and  C_15
REMARK    8  A    between atoms: C_15  and  C_16
REMARK    9  A    between atoms: C_15  and  C_17
REMARK   10  A    between atoms: N_20  and  C_21
REMARK   11  A    between atoms: C_22  and  C_23
REMARK   12  A    between atoms: C_22  and  C_24
REMARK                            x       y       z     vdW  Elec       q    Type
REMARK                         _______ _______ _______ _____ _____    ______ ____
ROOT
ATOM      1  N   UNL     1       0.358   1.125   1.907  0.00  0.00    +0.389 N 
ATOM      2  H   UNL     1      -0.200   1.557   1.186  0.00  0.00    -0.084 HD
ATOM      3  H   UNL     1      -0.198   1.014   2.742  0.00  0.00    -0.084 HD
ENDROOT
BRANCH   1   9
ATOM      4  C   UNL     1       0.322   1.999  -0.434  0.00  0.00    +0.007 C 
ATOM      5  C   UNL     1       0.802   0.627  -0.913  0.00  0.00    -0.016 C 
ATOM      6  C   UNL     1      -0.408  -0.260  -1.213  0.00  0.00    +0.003 C 
ATOM      7  C   UNL     1      -1.244  -0.428   0.057  0.00  0.00    +0.002 C 
ATOM      8  C   UNL     1      -0.391  -1.079   1.147  0.00  0.00    -0.022 C 
ATOM      9  C   UNL     1       0.818  -0.192   1.447  0.00  0.00    -0.067 C 
ATOM     10  C   UNL     1       1.655  -0.024   0.177  0.00  0.00    -0.012 C 
BRANCH   8  11
ATOM     11  C   UNL     1      -1.228  -1.247   2.417  0.00  0.00    -0.016 C 
ATOM     12  C   UNL     1      -2.438  -2.135   2.118  0.00  0.00    +0.007 C 
ATOM     13  C   UNL     1      -0.375  -1.899   3.507  0.00  0.00    +0.007 C 
ENDBRANCH   8  11
ENDBRANCH   1   9
BRANCH   1  14
ATOM     14  C   UNL     1       1.519   1.974   2.202  0.00  0.00    +0.017 C 
BRANCH  14  15
ATOM     15  C   UNL     1       2.252   1.425   3.400  0.00  0.00    +0.199 C 
ATOM     16  O   UNL     1       1.717   0.603   4.113  0.00  0.00    -0.278 OA
ATOM     17  N   UNL     1       3.501   1.849   3.678  0.00  0.00    -0.320 N 
ATOM     18  C   UNL     1       4.255   1.234   4.773  0.00  0.00    +0.128 C 
ATOM     19  H   UNL     1       3.900   2.560   3.153  0.00  0.00    +0.148 HD
ENDBRANCH  14  15
BRANCH  14  20
ATOM     20  C   UNL     1       1.047   3.398   2.502  0.00  0.00    -0.004 C 
BRANCH  20  21
ATOM     21  C   UNL     1       2.261   4.302   2.726  0.00  0.00    -0.018 C 
ATOM     22  C   UNL     1       3.056   4.420   1.424  0.00  0.00    +0.007 C 
ATOM     23  C   UNL     1       1.790   5.690   3.164  0.00  0.00    +0.007 C 
ENDBRANCH  20  21
ENDBRANCH  14  20
ENDBRANCH   1  14
TORSDOF 6
