REMARK  Name = ZINC43538924
REMARK  10 active torsions:
REMARK  status: ('A' for Active; 'I' for Inactive)
REMARK    1  A    between atoms: C_1  and  C_2
REMARK    2  A    between atoms: C_2  and  C_3
REMARK    3  A    between atoms: C_3  and  C_5
REMARK    4  A    between atoms: C_3  and  O_7
REMARK    5  A    between atoms: O_7  and  C_8
REMARK    6  A    between atoms: C_17  and  C_18
REMARK    7  A    between atoms: C_18  and  C_20
REMARK    8  A    between atoms: C_18  and  N_21
REMARK    9  A    between atoms: N_21  and  C_22
REMARK   10  A    between atoms: C_22  and  C_23
REMARK                            x       y       z     vdW  Elec       q    Type
REMARK                         _______ _______ _______ _____ _____    ______ ____
ROOT
ATOM      1  C   UNL     1       0.372   0.112  -3.644  0.00  0.00    +0.132 A 
ATOM      2  C   UNL     1       0.915   1.351  -4.040  0.00  0.00    +0.024 A 
ATOM      3  C   UNL     1       0.766   2.500  -3.247  0.00  0.00    +0.012 A 
ATOM      4  C   UNL     1       1.305   3.679  -3.661  0.00  0.00    +0.001 A 
ATOM      5  C   UNL     1       2.005   3.765  -4.862  0.00  0.00    +0.001 A 
ATOM      6  C   UNL     1       2.169   2.672  -5.657  0.00  0.00    +0.008 A 
ATOM      7  C   UNL     1       1.627   1.437  -5.262  0.00  0.00    -0.014 A 
ATOM      8  C   UNL     1       1.778   0.287  -6.055  0.00  0.00    +0.009 A 
ATOM      9  C   UNL     1       1.240  -0.894  -5.642  0.00  0.00    +0.006 A 
ATOM     10  C   UNL     1       0.544  -0.985  -4.440  0.00  0.00    -0.019 A 
ENDROOT
BRANCH  10  11
ATOM     11  C   UNL     1      -0.032  -2.311  -4.014  0.00  0.00    -0.040 C 
ATOM     12  C   UNL     1      -1.484  -2.411  -4.484  0.00  0.00    -0.009 C 
BRANCH  11  13
ATOM     13  N   UNL     1       0.752  -3.400  -4.611  0.00  0.00    +0.383 N 
ATOM     14  H   UNL     1       0.652  -3.376  -5.615  0.00  0.00    -0.085 HD
ATOM     15  H   UNL     1       1.725  -3.287  -4.367  0.00  0.00    -0.085 HD
BRANCH  13  16
ATOM     16  C   UNL     1       0.267  -4.690  -4.101  0.00  0.00    -0.085 C 
ATOM     17  C   UNL     1       1.083  -5.824  -4.723  0.00  0.00    -0.017 C 
ENDBRANCH  13  16
ENDBRANCH  11  13
ENDBRANCH  10  11
BRANCH   1  18
ATOM     18  O   UNL     1      -0.314   0.008  -2.476  0.00  0.00    -0.474 OA
BRANCH  18  19
ATOM     19  C   UNL     1       0.457  -0.121  -1.280  0.00  0.00    +0.274 C 
BRANCH  19  21
ATOM     20  C   UNL     1      -0.690   1.839  -0.238  0.00  0.00    +0.008 C 
ATOM     21  C   UNL     1      -0.373   0.350  -0.084  0.00  0.00    +0.057 C 
ENDBRANCH  19  21
BRANCH  19  22
ATOM     22  C   UNL     1       0.836  -1.531  -1.090  0.00  0.00    +0.107 C 
ATOM     23  N   UNL     1       1.128  -2.619  -0.943  0.00  0.00    -0.193 NA
ENDBRANCH  19  22
ENDBRANCH  18  19
ENDBRANCH   1  18
TORSDOF 7
