REMARK  Name = ZINC01235449
REMARK  10 active torsions:
REMARK  status: ('A' for Active; 'I' for Inactive)
REMARK    1  A    between atoms: C_1  and  O_2
REMARK    2  A    between atoms: O_2  and  C_3
REMARK    3  A    between atoms: C_6  and  C_21
REMARK    4  A    between atoms: C_8  and  C_9
REMARK    5  A    between atoms: C_9  and  N_10
REMARK    6  A    between atoms: N_22  and  N_23
REMARK    7  A    between atoms: C_30  and  O_38
REMARK    8  A    between atoms: C_31  and  O_36
REMARK    9  A    between atoms: O_36  and  C_37
REMARK   10  A    between atoms: O_38  and  C_39
REMARK                            x       y       z     vdW  Elec       q    Type
REMARK                         _______ _______ _______ _____ _____    ______ ____
ROOT
ATOM      1  C   UNL     1      -5.986  -0.174   1.931  0.00  0.00    +0.141 C 
ATOM      2  N   UNL     1      -6.616  -0.707   0.928  0.00  0.00    -0.167 NA
ENDROOT
BRANCH   2   3
ATOM      3  N   UNL     1      -5.904  -1.125  -0.204  0.00  0.00    -0.143 N 
ATOM      4  C   UNL     1      -6.162  -0.553  -1.397  0.00  0.00    +0.301 A 
ATOM      5  O   UNL     1      -7.007   0.320  -1.490  0.00  0.00    -0.263 OA
ATOM      6  C   UNL     1      -5.440  -0.972  -2.540  0.00  0.00    +0.131 A 
ATOM      7  C   UNL     1      -4.492  -1.970  -2.395  0.00  0.00    +0.081 A 
ATOM      8  C   UNL     1      -3.914  -2.203  -3.717  0.00  0.00    +0.028 A 
ATOM      9  C   UNL     1      -2.928  -3.073  -4.198  0.00  0.00    +0.061 A 
ATOM     10  C   UNL     1      -2.594  -3.055  -5.534  0.00  0.00    +0.162 A 
ATOM     11  C   UNL     1      -3.235  -2.173  -6.408  0.00  0.00    +0.163 A 
ATOM     12  C   UNL     1      -4.209  -1.311  -5.945  0.00  0.00    +0.075 A 
ATOM     13  C   UNL     1      -4.560  -1.315  -4.598  0.00  0.00    +0.053 A 
ATOM     14  N   UNL     1      -5.475  -0.583  -3.871  0.00  0.00    -0.349 N 
ATOM     15  H   UNL     1      -6.056   0.103  -4.235  0.00  0.00    +0.166 HD
ATOM     16  N   UNL     1      -4.273  -2.523  -1.146  0.00  0.00    -0.304 N 
ATOM     17  H   UNL     1      -3.590  -3.245  -1.032  0.00  0.00    +0.171 HD
ATOM     18  C   UNL     1      -4.979  -2.092  -0.083  0.00  0.00    +0.351 A 
ATOM     19  O   UNL     1      -4.776  -2.590   1.009  0.00  0.00    -0.245 OA
BRANCH  11  20
ATOM     20  O   UNL     1      -2.897  -2.164  -7.724  0.00  0.00    -0.491 OA
ATOM     21  C   UNL     1      -3.590  -1.239  -8.566  0.00  0.00    +0.277 C 
ENDBRANCH  11  20
BRANCH  10  22
ATOM     22  O   UNL     1      -1.636  -3.900  -6.004  0.00  0.00    -0.491 OA
ATOM     23  C   UNL     1      -1.021  -4.775  -5.056  0.00  0.00    +0.277 C 
ENDBRANCH  10  22
ENDBRANCH   2   3
BRANCH   1  27
ATOM     24  C   UNL     1      -1.965   1.106   1.474  0.00  0.00    +0.125 A 
ATOM     25  C   UNL     1      -2.693   0.701   0.362  0.00  0.00    +0.046 A 
ATOM     26  C   UNL     1      -3.998   0.285   0.506  0.00  0.00    +0.013 A 
ATOM     27  C   UNL     1      -4.590   0.270   1.772  0.00  0.00    -0.005 A 
ATOM     28  C   UNL     1      -3.853   0.678   2.887  0.00  0.00    +0.018 A 
ATOM     29  C   UNL     1      -2.546   1.088   2.735  0.00  0.00    +0.013 A 
BRANCH  24  31
ATOM     30  C   UNL     1      -0.140   1.503   0.004  0.00  0.00    +0.277 C 
ATOM     31  O   UNL     1      -0.678   1.515   1.327  0.00  0.00    -0.495 OA
ENDBRANCH  24  31
BRANCH  29  32
ATOM     32  C   UNL     1      -1.749   1.523   3.937  0.00  0.00    +0.155 C 
BRANCH  32  33
ATOM     33  N   UNL     1      -1.729   2.986   4.007  0.00  0.00    -0.230 N 
ATOM     34  C   UNL     1      -0.794   3.763   3.431  0.00  0.00    +0.254 C 
ATOM     35  O   UNL     1       0.153   3.368   2.780  0.00  0.00    -0.270 OA
ATOM     36  C   UNL     1      -1.113   5.177   3.720  0.00  0.00    +0.049 A 
ATOM     37  C   UNL     1      -0.523   6.388   3.394  0.00  0.00    +0.014 A 
ATOM     38  C   UNL     1      -1.090   7.571   3.842  0.00  0.00    +0.001 A 
ATOM     39  C   UNL     1      -2.239   7.550   4.610  0.00  0.00    +0.001 A 
ATOM     40  C   UNL     1      -2.840   6.346   4.944  0.00  0.00    +0.014 A 
ATOM     41  C   UNL     1      -2.284   5.156   4.503  0.00  0.00    +0.049 A 
ATOM     42  C   UNL     1      -2.640   3.730   4.660  0.00  0.00    +0.254 C 
ATOM     43  O   UNL     1      -3.595   3.301   5.275  0.00  0.00    -0.270 OA
ENDBRANCH  32  33
ENDBRANCH  29  32
ENDBRANCH   1  27
TORSDOF 7
