REMARK  Name = ZINC23447492
REMARK  10 active torsions:
REMARK  status: ('A' for Active; 'I' for Inactive)
REMARK    1  A    between atoms: C_1  and  C_2
REMARK    2  A    between atoms: C_2  and  C_3
REMARK    3  A    between atoms: C_3  and  N_4
REMARK    4  A    between atoms: C_5  and  N_26
REMARK    5  A    between atoms: C_6  and  C_13
REMARK    6  A    between atoms: N_9  and  C_12
REMARK    7  A    between atoms: C_13  and  C_15
REMARK    8  A    between atoms: C_15  and  N_16
REMARK    9  A    between atoms: C_18  and  C_25
REMARK   10  A    between atoms: C_21  and  C_24
REMARK                            x       y       z     vdW  Elec       q    Type
REMARK                         _______ _______ _______ _____ _____    ______ ____
ROOT
ATOM      1  N   UNL     1       2.362   1.420   0.003  0.00  0.00    -0.281 N 
ATOM      2  C   UNL     1       1.211   2.117   0.241  0.00  0.00    +0.116 A 
ATOM      3  C   UNL     1      -0.015   1.430   0.229  0.00  0.00    +0.121 A 
ATOM      4  C   UNL     1       0.010  -0.014  -0.042  0.00  0.00    +0.269 A 
ATOM      5  O   UNL     1      -1.021  -0.659  -0.065  0.00  0.00    -0.267 OA
ATOM      6  N   UNL     1       1.200  -0.609  -0.264  0.00  0.00    -0.263 N 
ATOM      7  C   UNL     1       2.340   0.101  -0.240  0.00  0.00    +0.333 A 
ATOM      8  O   UNL     1       3.391  -0.474  -0.446  0.00  0.00    -0.246 OA
ATOM      9  C   UNL     1       1.249  -2.047  -0.536  0.00  0.00    +0.157 C 
ENDROOT
BRANCH   2  10
ATOM     10  N   UNL     1       1.252   3.455   0.486  0.00  0.00    -0.344 N 
ATOM     11  H   UNL     1       0.320   4.007   0.676  0.00  0.00    +0.144 HD
ATOM     12  H   UNL     1       2.216   3.984   0.493  0.00  0.00    +0.144 HD
ENDBRANCH   2  10
BRANCH   3  13
ATOM     13  C   UNL     1      -1.231   2.106   0.463  0.00  0.00    +0.185 C 
ATOM     14  O   UNL     1      -1.242   3.316   0.572  0.00  0.00    -0.290 OA
BRANCH  13  15
ATOM     15  C   UNL     1      -2.516   1.327   0.577  0.00  0.00    +0.164 C 
BRANCH  15  16
ATOM     16  N   UNL     1      -3.630   2.254   0.819  0.00  0.00    -0.290 NA
ATOM     17  C   UNL     1      -3.503   2.900   2.133  0.00  0.00    +0.116 C 
ATOM     18  C   UNL     1      -4.648   3.898   2.318  0.00  0.00    +0.130 C 
ATOM     19  O   UNL     1      -5.897   3.217   2.169  0.00  0.00    -0.371 OA
ATOM     20  C   UNL     1      -6.055   2.577   0.900  0.00  0.00    +0.130 C 
ATOM     21  C   UNL     1      -4.924   1.565   0.701  0.00  0.00    +0.116 C 
ATOM     22  C   UNL     1      -6.004   3.626  -0.212  0.00  0.00    +0.039 C 
ATOM     23  C   UNL     1      -4.567   4.516   3.716  0.00  0.00    +0.039 C 
ENDBRANCH  15  16
ENDBRANCH  13  15
ENDBRANCH   3  13
BRANCH   1  24
ATOM     24  C   UNL     1       3.644   2.127   0.014  0.00  0.00    +0.128 C 
BRANCH  24  26
ATOM     25  C   UNL     1       5.298   3.375  -1.384  0.00  0.00    +0.005 C 
ATOM     26  C   UNL     1       3.958   2.636  -1.395  0.00  0.00    +0.018 C 
ENDBRANCH  24  26
ENDBRANCH   1  24
TORSDOF 6
