REMARK  Name = ZINC38050345
REMARK  5 active torsions:
REMARK  status: ('A' for Active; 'I' for Inactive)
REMARK    1  A    between atoms: C_1  and  C_2
REMARK    2  A    between atoms: C_7  and  S_8
REMARK    3  A    between atoms: S_8  and  N_11
REMARK    4  A    between atoms: N_11  and  C_12
REMARK    5  A    between atoms: C_18  and  N_20
REMARK                            x       y       z     vdW  Elec       q    Type
REMARK                         _______ _______ _______ _____ _____    ______ ____
ROOT
ATOM      1  N   UNL     1       1.177   1.030   2.916  0.00  0.00    -0.188 NA
ATOM      2  H   UNL     1       1.876   0.860   3.566  0.00  0.00    +0.148 HD
ENDROOT
BRANCH   1   3
ATOM      3  C   UNL     1       1.217   2.244   2.097  0.00  0.00    +0.062 C 
ATOM      4  C   UNL     1       0.568   3.398   2.864  0.00  0.00    +0.019 C 
ATOM      5  C   UNL     1       0.610   4.666   2.009  0.00  0.00    +0.001 C 
ATOM      6  C   UNL     1       2.065   5.019   1.692  0.00  0.00    -0.001 C 
ATOM      7  C   UNL     1       2.714   3.866   0.926  0.00  0.00    -0.015 C 
ATOM      8  C   UNL     1       2.672   2.598   1.780  0.00  0.00    -0.056 C 
BRANCH   8   9
ATOM      9  N   UNL     1       3.295   1.490   1.044  0.00  0.00    +0.381 N 
ATOM     10  H   UNL     1       2.792   1.332   0.184  0.00  0.00    -0.090 HD
ATOM     11  H   UNL     1       4.255   1.722   0.836  0.00  0.00    -0.090 HD
ATOM     12  H   UNL     1       3.267   0.653   1.608  0.00  0.00    -0.090 HD
ENDBRANCH   8   9
ENDBRANCH   1   3
BRANCH   1  13
ATOM     13  S   UNL     1      -0.063  -0.052   2.731  0.00  0.00    +0.059 S 
ATOM     14  O   UNL     1      -1.267   0.703   2.747  0.00  0.00    -0.153 OA
ATOM     15  O   UNL     1       0.183  -1.112   3.644  0.00  0.00    -0.153 OA
BRANCH  13  22
ATOM     16  C   UNL     1       2.232  -1.799   1.823  0.00  0.00    +0.046 C 
ATOM     17  C   UNL     1       1.169  -1.526   0.791  0.00  0.00    -0.023 A 
ATOM     18  C   UNL     1       1.279  -2.068  -0.475  0.00  0.00    +0.025 A 
ATOM     19  C   UNL     1       0.302  -1.817  -1.422  0.00  0.00    +0.041 A 
ATOM     20  C   UNL     1      -0.784  -1.023  -1.101  0.00  0.00    +0.022 A 
ATOM     21  C   UNL     1      -0.894  -0.481   0.166  0.00  0.00    +0.030 A 
ATOM     22  C   UNL     1       0.080  -0.737   1.113  0.00  0.00    +0.108 A 
ATOM     23 CL   UNL     1       0.440  -2.497  -3.014  0.00  0.00    -0.084 Cl
ENDBRANCH  13  22
ENDBRANCH   1  13
TORSDOF 4
