REMARK  Name = ZINC16495171
REMARK  5 active torsions:
REMARK  status: ('A' for Active; 'I' for Inactive)
REMARK    1  A    between atoms: N_10  and  C_11
REMARK    2  A    between atoms: C_11  and  C_12
REMARK    3  A    between atoms: N_14  and  N_15
REMARK    4  A    between atoms: C_16  and  C_18
REMARK    5  A    between atoms: C_23  and  O_24
REMARK                            x       y       z     vdW  Elec       q    Type
REMARK                         _______ _______ _______ _____ _____    ______ ____
ROOT
ATOM      1  C   UNL     1       3.559   7.379   0.112  0.00  0.00    +0.246 C 
ATOM      2  O   UNL     1       2.504   7.970   0.203  0.00  0.00    -0.273 OA
ATOM      3  N   UNL     1       3.579   6.031   0.115  0.00  0.00    -0.233 N 
ATOM      4  H   UNL     1       4.423   5.559   0.043  0.00  0.00    +0.173 HD
ENDROOT
BRANCH   3   5
ATOM      5  N   UNL     1       2.381   5.313   0.222  0.00  0.00    -0.230 N 
ATOM      6  C   UNL     1       2.401   3.966   0.225  0.00  0.00    +0.264 C 
ATOM      7  O   UNL     1       3.459   3.373   0.135  0.00  0.00    -0.269 OA
ATOM      8  H   UNL     1       1.537   5.786   0.295  0.00  0.00    +0.173 HD
BRANCH   6   9
ATOM      9  C   UNL     1       1.139   3.209   0.338  0.00  0.00    +0.081 A 
ATOM     10  C   UNL     1      -0.079   3.886   0.442  0.00  0.00    +0.032 A 
ATOM     11  C   UNL     1      -1.254   3.174   0.547  0.00  0.00    +0.019 A 
ATOM     12  C   UNL     1      -1.234   1.788   0.545  0.00  0.00    +0.019 A 
ATOM     13  C   UNL     1      -0.037   1.107   0.448  0.00  0.00    +0.047 A 
ATOM     14  C   UNL     1       1.155   1.808   0.342  0.00  0.00    +0.129 A 
ATOM     15 BR   UNL     1      -2.902   4.091   0.688  0.00  0.00    -0.050 Br
BRANCH  14  16
ATOM     16  O   UNL     1       2.332   1.140   0.241  0.00  0.00    -0.506 OA
ATOM     17  H   UNL     1       2.596   0.944  -0.669  0.00  0.00    +0.292 HD
ENDBRANCH  14  16
ENDBRANCH   6   9
ENDBRANCH   3   5
BRANCH   1  18
ATOM     18  C   UNL     1       4.848   8.151  -0.003  0.00  0.00    +0.202 C 
BRANCH  18  28
ATOM     19  C   UNL     1       2.071  10.245  -3.398  0.00  0.00    +0.000 A 
ATOM     20  C   UNL     1       3.028   9.248  -3.423  0.00  0.00    +0.002 A 
ATOM     21  C   UNL     1       3.837   9.043  -2.326  0.00  0.00    +0.023 A 
ATOM     22  C   UNL     1       3.698   9.838  -1.187  0.00  0.00    +0.033 A 
ATOM     23  C   UNL     1       2.735  10.831  -1.166  0.00  0.00    -0.026 A 
ATOM     24  C   UNL     1       1.926  11.032  -2.273  0.00  0.00    +0.005 A 
ATOM     25  C   UNL     1       2.527  11.717   0.036  0.00  0.00    +0.038 C 
ATOM     26  C   UNL     1       3.732  11.607   0.972  0.00  0.00    +0.024 C 
ATOM     27  C   UNL     1       4.052  10.118   1.156  0.00  0.00    +0.106 C 
ATOM     28  N   UNL     1       4.551   9.586  -0.114  0.00  0.00    -0.321 N 
ENDBRANCH  18  28
ENDBRANCH   1  18
TORSDOF 5
