REMARK  Name = ZINC06405647
REMARK  15 active torsions:
REMARK  status: ('A' for Active; 'I' for Inactive)
REMARK    1  A    between atoms: C_1  and  C_2
REMARK    2  A    between atoms: C_5  and  C_40
REMARK    3  A    between atoms: C_9  and  C_14
REMARK    4  A    between atoms: C_14  and  C_16
REMARK    5  A    between atoms: C_14  and  N_71
REMARK    6  A    between atoms: N_20  and  C_21
REMARK    7  A    between atoms: C_21  and  C_22
REMARK    8  A    between atoms: C_22  and  O_23
REMARK    9  A    between atoms: O_23  and  C_24
REMARK   10  A    between atoms: C_25  and  C_26
REMARK   11  A    between atoms: C_25  and  N_71
REMARK   12  A    between atoms: C_29  and  O_32
REMARK   13  A    between atoms: O_32  and  C_33
REMARK   14  A    between atoms: C_34  and  C_35
REMARK   15  A    between atoms: C_34  and  N_71
REMARK                            x       y       z     vdW  Elec       q    Type
REMARK                         _______ _______ _______ _____ _____    ______ ____
ROOT
ATOM      1  C   UNL     1       3.086   2.314   3.804  0.00  0.00    +0.040 C 
ENDROOT
BRANCH   1  10
ATOM      2  C   UNL     1       0.594   2.784  -0.744  0.00  0.00    +0.044 C 
ATOM      3  C   UNL     1      -0.363   3.215   0.338  0.00  0.00    -0.041 A 
ATOM      4  C   UNL     1      -1.623   3.633   0.013  0.00  0.00    +0.004 A 
ATOM      5  C   UNL     1      -2.513   4.028   1.002  0.00  0.00    +0.005 A 
ATOM      6  C   UNL     1      -2.141   4.014   2.329  0.00  0.00    -0.026 A 
ATOM      7  C   UNL     1      -0.863   3.598   2.684  0.00  0.00    +0.052 A 
ATOM      8  C   UNL     1       0.036   3.194   1.678  0.00  0.00    +0.002 A 
ATOM      9  C   UNL     1       1.380   2.757   2.061  0.00  0.00    +0.018 A 
ATOM     10  C   UNL     1       1.711   2.757   3.376  0.00  0.00    +0.011 A 
ATOM     11  C   UNL     1       0.772   3.171   4.345  0.00  0.00    +0.251 A 
ATOM     12  O   UNL     1       1.090   3.164   5.522  0.00  0.00    -0.268 OA
ATOM     13  N   UNL     1      -0.464   3.574   4.003  0.00  0.00    -0.322 N 
ATOM     14  H   UNL     1      -1.085   3.852   4.695  0.00  0.00    +0.169 HD
ATOM     15  C   UNL     1      -3.117   4.450   3.392  0.00  0.00    +0.046 C 
ENDBRANCH   1  10
BRANCH   1  16
ATOM     16  C   UNL     1       2.975   1.056   4.627  0.00  0.00    +0.143 A 
ATOM     17  N   UNL     1       2.842   0.982   5.929  0.00  0.00    -0.115 NA
ATOM     18  N   UNL     1       2.779  -0.264   6.252  0.00  0.00    -0.023 NA
ATOM     19  N   UNL     1       2.876  -0.986   5.191  0.00  0.00    -0.044 NA
ATOM     20  N   UNL     1       2.998  -0.209   4.168  0.00  0.00    -0.228 N 
BRANCH  20  21
ATOM     21  C   UNL     1       3.136  -0.626   2.771  0.00  0.00    +0.175 C 
BRANCH  21  22
ATOM     22  C   UNL     1       4.612  -0.882   2.458  0.00  0.00    +0.183 C 
BRANCH  22  23
ATOM     23  O   UNL     1       4.744  -1.314   1.103  0.00  0.00    -0.381 OA
ATOM     24  C   UNL     1       6.090  -1.582   0.707  0.00  0.00    +0.194 C 
ENDBRANCH  22  23
ENDBRANCH  21  22
ENDBRANCH  20  21
ENDBRANCH   1  16
BRANCH   1  25
ATOM     25  N   UNL     1       3.701   3.370   4.634  0.00  0.00    +0.397 N 
ATOM     26  H   UNL     1       3.280   3.347   5.570  0.00  0.00    -0.079 HD
BRANCH  25  27
ATOM     27  C   UNL     1       5.155   3.134   4.756  0.00  0.00    -0.041 C 
BRANCH  27  28
ATOM     28  C   UNL     1       5.387   2.086   5.814  0.00  0.00    -0.064 A 
ATOM     29  C   UNL     1       5.063   2.352   7.131  0.00  0.00    +0.005 A 
ATOM     30  C   UNL     1       5.269   1.391   8.102  0.00  0.00    +0.046 A 
ATOM     31  C   UNL     1       5.811   0.162   7.755  0.00  0.00    +0.120 A 
ATOM     32  C   UNL     1       6.141  -0.100   6.434  0.00  0.00    +0.046 A 
ATOM     33  C   UNL     1       5.928   0.862   5.466  0.00  0.00    +0.005 A 
BRANCH  31  34
ATOM     34  O   UNL     1       6.019  -0.783   8.709  0.00  0.00    -0.495 OA
ATOM     35  C   UNL     1       5.556  -0.487  10.028  0.00  0.00    +0.277 C 
ENDBRANCH  31  34
ENDBRANCH  27  28
ENDBRANCH  25  27
BRANCH  25  36
ATOM     36  C   UNL     1       3.454   4.696   4.030  0.00  0.00    -0.001 C 
BRANCH  36  37
ATOM     37  C   UNL     1       3.763   5.760   5.051  0.00  0.00    +0.089 A 
ATOM     38  C   UNL     1       4.922   6.435   5.158  0.00  0.00    +0.042 A 
ATOM     39  C   UNL     1       4.777   7.328   6.244  0.00  0.00    +0.041 A 
ATOM     40  C   UNL     1       3.539   7.145   6.737  0.00  0.00    +0.195 A 
ATOM     41  O   UNL     1       2.927   6.198   6.007  0.00  0.00    -0.470 OA
ENDBRANCH  36  37
ENDBRANCH  25  36
ENDBRANCH   1  25
TORSDOF 11
