REMARK  Name = ZINC36026308
REMARK  4 active torsions:
REMARK  status: ('A' for Active; 'I' for Inactive)
REMARK    1  A    between atoms: C_1  and  C_2
REMARK    2  A    between atoms: N_6  and  C_23
REMARK    3  A    between atoms: C_14  and  C_16
REMARK    4  A    between atoms: C_23  and  C_24
REMARK                            x       y       z     vdW  Elec       q    Type
REMARK                         _______ _______ _______ _____ _____    ______ ____
ROOT
ATOM      1  C   UNL     1      -1.440   1.063   0.255  0.00  0.00    -0.004 C 
ATOM      2  C   UNL     1      -1.151  -0.431   0.098  0.00  0.00    +0.016 C 
ATOM      3  C   UNL     1      -2.442  -1.219   0.083  0.00  0.00    +0.200 C 
ATOM      4  O   UNL     1      -3.444  -0.927  -0.535  0.00  0.00    -0.277 OA
ATOM      5  N   UNL     1      -2.292  -2.303   0.873  0.00  0.00    -0.310 N 
ATOM      6  C   UNL     1      -0.940  -2.311   1.439  0.00  0.00    +0.006 C 
ATOM      7  N   UNL     1      -0.408  -0.940   1.276  0.00  0.00    +0.401 N 
ATOM      8  C   UNL     1      -0.056  -3.299   0.681  0.00  0.00    +0.025 C 
ATOM      9  C   UNL     1      -0.636  -4.710   0.821  0.00  0.00    +0.108 C 
ATOM     10  N   UNL     1      -0.806  -5.011   2.249  0.00  0.00    -0.297 N 
ATOM     11  C   UNL     1      -1.579  -4.079   3.082  0.00  0.00    +0.108 C 
ATOM     12  C   UNL     1      -0.991  -2.673   2.922  0.00  0.00    +0.025 C 
ATOM     13  C   UNL     1      -0.264  -6.123   2.786  0.00  0.00    +0.249 C 
ATOM     14  O   UNL     1       0.456  -6.834   2.112  0.00  0.00    -0.270 OA
ATOM     15  H   UNL     1       0.584  -0.961   1.090  0.00  0.00    -0.082 HD
ATOM     16  H   UNL     1      -0.607  -0.381   2.092  0.00  0.00    -0.082 HD
ENDROOT
BRANCH  13  17
ATOM     17  C   UNL     1      -0.545  -6.476   4.192  0.00  0.00    +0.072 A 
ATOM     18  C   UNL     1      -1.858  -6.474   4.668  0.00  0.00    +0.016 A 
ATOM     19  C   UNL     1      -2.113  -6.806   5.981  0.00  0.00    +0.001 A 
ATOM     20  C   UNL     1      -1.072  -7.141   6.830  0.00  0.00    +0.003 A 
ATOM     21  C   UNL     1       0.231  -7.146   6.369  0.00  0.00    +0.039 A 
ATOM     22  C   UNL     1       0.502  -6.821   5.052  0.00  0.00    +0.135 A 
ATOM     23  F   UNL     1       1.775  -6.831   4.600  0.00  0.00    -0.205 F 
ENDBRANCH  13  17
BRANCH   5  24
ATOM     24  C   UNL     1      -3.321  -3.314   1.126  0.00  0.00    +0.132 C 
BRANCH  24  25
ATOM     25  C   UNL     1      -4.152  -2.900   2.312  0.00  0.00    -0.016 C 
ATOM     26  C   UNL     1      -5.455  -2.821   2.203  0.00  0.00    +0.005 C 
ENDBRANCH  24  25
ENDBRANCH   5  24
TORSDOF 3
