REMARK  Name = ZINC37070915
REMARK  7 active torsions:
REMARK  status: ('A' for Active; 'I' for Inactive)
REMARK    1  A    between atoms: C_1  and  C_2
REMARK    2  A    between atoms: C_2  and  C_4
REMARK    3  A    between atoms: C_2  and  N_11
REMARK    4  A    between atoms: C_9  and  O_10
REMARK    5  A    between atoms: N_11  and  C_12
REMARK    6  A    between atoms: C_12  and  C_14
REMARK    7  A    between atoms: C_12  and  C_15
REMARK                            x       y       z     vdW  Elec       q    Type
REMARK                         _______ _______ _______ _____ _____    ______ ____
ROOT
ATOM      1  N   UNL     1      -1.376  -0.512   0.012  0.00  0.00    +0.390 N 
ATOM      2  H   UNL     1      -1.363  -1.518   0.090  0.00  0.00    -0.084 HD
ATOM      3  H   UNL     1      -1.873  -0.121   0.799  0.00  0.00    -0.084 HD
ENDROOT
BRANCH   1   5
ATOM      4  C   UNL     1      -0.019   1.526   0.010  0.00  0.00    -0.009 C 
ATOM      5  C   UNL     1       0.002  -0.004   0.002  0.00  0.00    -0.040 C 
BRANCH   5   6
ATOM      6  C   UNL     1       0.731  -0.503   1.223  0.00  0.00    -0.020 A 
ATOM      7  C   UNL     1       0.018  -0.951   2.319  0.00  0.00    +0.005 A 
ATOM      8  C   UNL     1       0.686  -1.408   3.439  0.00  0.00    +0.000 A 
ATOM      9  C   UNL     1       2.069  -1.420   3.466  0.00  0.00    +0.004 A 
ATOM     10  C   UNL     1       2.786  -0.974   2.373  0.00  0.00    +0.045 A 
ATOM     11  C   UNL     1       2.118  -0.519   1.245  0.00  0.00    +0.118 A 
BRANCH  11  12
ATOM     12  O   UNL     1       2.821  -0.086   0.166  0.00  0.00    -0.507 OA
ATOM     13  H   UNL     1       3.029   0.859   0.186  0.00  0.00    +0.292 HD
ENDBRANCH  11  12
ENDBRANCH   5   6
ENDBRANCH   1   5
BRANCH   1  14
ATOM     14  C   UNL     1      -2.050  -0.126  -1.234  0.00  0.00    -0.006 C 
ATOM     15  C   UNL     1      -1.371  -0.820  -2.417  0.00  0.00    -0.006 C 
BRANCH  14  16
ATOM     16  C   UNL     1      -3.498  -0.540  -1.172  0.00  0.00    +0.092 A 
ATOM     17  C   UNL     1      -4.524   0.188  -1.631  0.00  0.00    +0.051 A 
ATOM     18  C   UNL     1      -5.735  -0.597  -1.364  0.00  0.00    +0.020 A 
ATOM     19  C   UNL     1      -7.096  -0.400  -1.594  0.00  0.00    +0.011 A 
ATOM     20  C   UNL     1      -7.994  -1.357  -1.210  0.00  0.00    +0.001 A 
ATOM     21  C   UNL     1      -7.559  -2.521  -0.594  0.00  0.00    +0.004 A 
ATOM     22  C   UNL     1      -6.218  -2.734  -0.358  0.00  0.00    +0.047 A 
ATOM     23  C   UNL     1      -5.289  -1.774  -0.740  0.00  0.00    +0.135 A 
ATOM     24  O   UNL     1      -3.946  -1.697  -0.653  0.00  0.00    -0.461 OA
ENDBRANCH  14  16
ENDBRANCH   1  14
TORSDOF 5
