REMARK  Name = ZINC32903076
REMARK  4 active torsions:
REMARK  status: ('A' for Active; 'I' for Inactive)
REMARK    1  A    between atoms: C_3  and  N_11
REMARK    2  A    between atoms: C_6  and  N_7
REMARK    3  A    between atoms: N_11  and  S_12
REMARK    4  A    between atoms: S_12  and  C_15
REMARK                            x       y       z     vdW  Elec       q    Type
REMARK                         _______ _______ _______ _____ _____    ______ ____
ROOT
ATOM      1  N   UNL     1      -5.160   4.319  -0.302  0.00  0.00    -0.216 N 
ATOM      2  H   UNL     1      -4.712   3.414   0.135  0.00  0.00    +0.174 HD
ENDROOT
BRANCH   1   5
ATOM      3  C   UNL     1      -6.591   5.017  -3.616  0.00  0.00    +0.025 A 
ATOM      4  C   UNL     1      -6.472   4.894  -2.246  0.00  0.00    +0.026 A 
ATOM      5  C   UNL     1      -5.283   4.438  -1.691  0.00  0.00    +0.048 A 
ATOM      6  C   UNL     1      -4.216   4.102  -2.514  0.00  0.00    +0.026 A 
ATOM      7  C   UNL     1      -4.338   4.220  -3.884  0.00  0.00    +0.025 A 
ATOM      8  C   UNL     1      -5.526   4.676  -4.439  0.00  0.00    +0.035 A 
BRANCH   8   9
ATOM      9  N   UNL     1      -5.649   4.797  -5.830  0.00  0.00    -0.270 N 
ATOM     10  C   UNL     1      -5.043   3.906  -6.640  0.00  0.00    +0.301 C 
ATOM     11  O   UNL     1      -4.325   3.046  -6.168  0.00  0.00    -0.253 OA
ATOM     12  N   UNL     1      -5.233   3.969  -7.973  0.00  0.00    -0.313 N 
ATOM     13  H   UNL     1      -6.240   5.618  -6.261  0.00  0.00    +0.156 HD
ATOM     14  H   UNL     1      -4.739   3.242  -8.634  0.00  0.00    +0.146 HD
ATOM     15  H   UNL     1      -5.883   4.747  -8.400  0.00  0.00    +0.146 HD
ENDBRANCH   8   9
ENDBRANCH   1   5
BRANCH   1  16
ATOM     16  S   UNL     1      -5.689   5.539   0.684  0.00  0.00    +0.072 S 
ATOM     17  O   UNL     1      -7.017   5.842   0.280  0.00  0.00    -0.150 OA
ATOM     18  O   UNL     1      -5.366   5.156   2.014  0.00  0.00    -0.150 OA
BRANCH  16  19
ATOM     19  C   UNL     1      -4.715   6.962   0.320  0.00  0.00    +0.109 A 
ATOM     20  C   UNL     1      -3.490   7.141   0.936  0.00  0.00    +0.029 A 
ATOM     21  C   UNL     1      -2.732   8.255   0.643  0.00  0.00    +0.006 A 
ATOM     22  C   UNL     1      -3.195   9.207  -0.257  0.00  0.00    -0.044 A 
ATOM     23  C   UNL     1      -4.415   9.030  -0.869  0.00  0.00    -0.042 A 
ATOM     24  C   UNL     1      -5.175   7.904  -0.576  0.00  0.00    +0.032 A 
ATOM     25  C   UNL     1      -4.975  10.015  -1.862  0.00  0.00    +0.035 C 
ATOM     26  C   UNL     1      -4.258  11.358  -1.748  0.00  0.00    +0.005 C 
ATOM     27  C   UNL     1      -2.747  11.107  -1.809  0.00  0.00    +0.005 C 
ATOM     28  C   UNL     1      -2.322  10.406  -0.519  0.00  0.00    +0.035 C 
ENDBRANCH  16  19
ENDBRANCH   1  16
TORSDOF 4
