REMARK  Name = ZINC40076032
REMARK  9 active torsions:
REMARK  status: ('A' for Active; 'I' for Inactive)
REMARK    1  A    between atoms: C_1  and  O_2
REMARK    2  A    between atoms: O_2  and  C_3
REMARK    3  A    between atoms: C_5  and  C_11
REMARK    4  A    between atoms: C_8  and  O_9
REMARK    5  A    between atoms: C_13  and  C_22
REMARK    6  A    between atoms: N_17  and  C_18
REMARK    7  A    between atoms: C_18  and  C_19
REMARK    8  A    between atoms: C_19  and  O_20
REMARK    9  A    between atoms: C_22  and  C_24
REMARK                            x       y       z     vdW  Elec       q    Type
REMARK                         _______ _______ _______ _____ _____    ______ ____
ROOT
ATOM      1  C   UNL     1      -4.812   0.168   0.272  0.00  0.00    +0.145 C 
ATOM      2  C   UNL     1      -5.317   0.476   1.663  0.00  0.00    +0.076 C 
ATOM      3  C   UNL     1      -6.567  -0.036   1.747  0.00  0.00    +0.249 C 
ATOM      4  C   UNL     1      -6.916  -0.677   0.462  0.00  0.00    +0.288 C 
ATOM      5  O   UNL     1      -7.972  -1.228   0.222  0.00  0.00    -0.266 OA
ATOM      6  N   UNL     1      -5.892  -0.559  -0.405  0.00  0.00    -0.281 N 
ATOM      7  O   UNL     1      -7.368   0.028   2.835  0.00  0.00    -0.282 OA
ENDROOT
BRANCH   1  10
ATOM      8  C   UNL     1      -1.217  -0.968   0.025  0.00  0.00    +0.163 A 
ATOM      9  C   UNL     1      -2.354  -0.179  -0.044  0.00  0.00    +0.055 A 
ATOM     10  C   UNL     1      -3.577  -0.692   0.348  0.00  0.00    -0.018 A 
ATOM     11  C   UNL     1      -3.669  -1.992   0.811  0.00  0.00    +0.025 A 
ATOM     12  C   UNL     1      -2.538  -2.784   0.883  0.00  0.00    +0.063 A 
ATOM     13  C   UNL     1      -1.310  -2.278   0.485  0.00  0.00    +0.173 A 
ATOM     14 BR   UNL     1      -2.667  -4.561   1.517  0.00  0.00    -0.046 Br
BRANCH   8  16
ATOM     15  C   UNL     1       0.026   0.919  -0.716  0.00  0.00    +0.277 C 
ATOM     16  O   UNL     1      -0.014  -0.465  -0.360  0.00  0.00    -0.491 OA
ENDBRANCH   8  16
BRANCH  13  17
ATOM     17  O   UNL     1      -0.197  -3.058   0.550  0.00  0.00    -0.503 OA
ATOM     18  H   UNL     1       0.272  -3.004   1.394  0.00  0.00    +0.292 HD
ENDBRANCH  13  17
ENDBRANCH   1  10
BRANCH   2  19
ATOM     19  C   UNL     1      -4.592   1.193   2.717  0.00  0.00    +0.195 C 
ATOM     20  O   UNL     1      -4.375   0.649   3.783  0.00  0.00    -0.287 OA
BRANCH  19  21
ATOM     21  C   UNL     1      -4.125   2.576   2.484  0.00  0.00    +0.022 A 
ATOM     22  C   UNL     1      -4.475   3.246   1.309  0.00  0.00    +0.012 A 
ATOM     23  C   UNL     1      -4.036   4.537   1.099  0.00  0.00    +0.001 A 
ATOM     24  C   UNL     1      -3.251   5.168   2.048  0.00  0.00    +0.000 A 
ATOM     25  C   UNL     1      -2.901   4.510   3.214  0.00  0.00    +0.001 A 
ATOM     26  C   UNL     1      -3.337   3.221   3.440  0.00  0.00    +0.012 A 
ENDBRANCH  19  21
ENDBRANCH   2  19
BRANCH   6  27
ATOM     27  C   UNL     1      -5.861  -1.067  -1.778  0.00  0.00    +0.137 C 
BRANCH  27  28
ATOM     28  C   UNL     1      -5.306  -2.493  -1.782  0.00  0.00    +0.175 C 
BRANCH  28  29
ATOM     29  O   UNL     1      -6.204  -3.356  -1.081  0.00  0.00    -0.393 OA
ATOM     30  H   UNL     1      -5.915  -4.278  -1.044  0.00  0.00    +0.209 HD
ENDBRANCH  28  29
ENDBRANCH  27  28
ENDBRANCH   6  27
TORSDOF 8
