REMARK  Name = ZINC43284408
REMARK  7 active torsions:
REMARK  status: ('A' for Active; 'I' for Inactive)
REMARK    1  A    between atoms: C_1  and  C_2
REMARK    2  A    between atoms: C_2  and  C_3
REMARK    3  A    between atoms: C_3  and  C_5
REMARK    4  A    between atoms: C_3  and  N_20
REMARK    5  A    between atoms: C_5  and  C_7
REMARK    6  A    between atoms: C_5  and  N_13
REMARK    7  A    between atoms: N_16  and  C_19
REMARK                            x       y       z     vdW  Elec       q    Type
REMARK                         _______ _______ _______ _____ _____    ______ ____
ROOT
ATOM      1  C   UNL     1       0.980  -2.022   1.235  0.00  0.00    +0.079 C 
ENDROOT
BRANCH   1   2
ATOM      2  N   UNL     1       1.833  -2.378   0.093  0.00  0.00    -0.300 NA
ATOM      3  C   UNL     1       1.304  -1.815  -1.157  0.00  0.00    +0.066 C 
ATOM      4  C   UNL     1       2.251  -2.158  -2.309  0.00  0.00    -0.064 C 
ATOM      5  N   UNL     1       2.375  -3.617  -2.423  0.00  0.00    +0.379 N 
ATOM      6  C   UNL     1       2.928  -4.162  -1.177  0.00  0.00    -0.064 C 
ATOM      7  C   UNL     1       1.987  -3.836  -0.015  0.00  0.00    +0.066 C 
ATOM      8  C   UNL     1       3.270  -3.946  -3.541  0.00  0.00    -0.096 C 
ATOM      9  H   UNL     1       1.465  -4.019  -2.592  0.00  0.00    -0.082 HD
ENDBRANCH   1   2
BRANCH   1  10
ATOM     10  C   UNL     1       1.623  -2.500   2.511  0.00  0.00    +0.006 A 
ATOM     11  C   UNL     1       1.045  -3.069   3.597  0.00  0.00    +0.028 A 
ATOM     12  C   UNL     1       1.841  -3.432   4.668  0.00  0.00    +0.025 A 
ATOM     13  C   UNL     1       3.176  -3.208   4.599  0.00  0.00    +0.060 A 
ATOM     14  S   UNL     1       3.345  -2.470   2.982  0.00  0.00    -0.099 S 
ATOM     15 BR   UNL     1       1.079  -4.229   6.204  0.00  0.00    -0.050 Br
ENDBRANCH   1  10
BRANCH   1  16
ATOM     16  C   UNL     1       0.807  -0.503   1.288  0.00  0.00    -0.053 C 
BRANCH  16  17
ATOM     17  N   UNL     1       2.121   0.134   1.449  0.00  0.00    +0.381 N 
ATOM     18  H   UNL     1       2.547  -0.187   2.306  0.00  0.00    -0.090 HD
ATOM     19  H   UNL     1       2.712  -0.111   0.668  0.00  0.00    -0.090 HD
ATOM     20  H   UNL     1       2.008   1.136   1.484  0.00  0.00    -0.090 HD
ENDBRANCH  16  17
BRANCH  16  22
ATOM     21  C   UNL     1      -0.387   1.367   2.435  0.00  0.00    +0.002 C 
ATOM     22  C   UNL     1      -0.088  -0.133   2.472  0.00  0.00    -0.018 C 
ENDBRANCH  16  22
ENDBRANCH   1  16
TORSDOF 5
