REMARK  Name = ZINC67271466
REMARK  11 active torsions:
REMARK  status: ('A' for Active; 'I' for Inactive)
REMARK    1  A    between atoms: C_1  and  C_2
REMARK    2  A    between atoms: C_2  and  C_3
REMARK    3  A    between atoms: C_2  and  N_4
REMARK    4  A    between atoms: N_7  and  N_8
REMARK    5  A    between atoms: C_9  and  C_11
REMARK    6  A    between atoms: N_15  and  C_16
REMARK    7  A    between atoms: C_22  and  O_24
REMARK    8  A    between atoms: O_24  and  C_25
REMARK    9  A    between atoms: C_25  and  C_26
REMARK   10  A    between atoms: C_25  and  C_27
REMARK   11  A    between atoms: C_25  and  C_28
REMARK                            x       y       z     vdW  Elec       q    Type
REMARK                         _______ _______ _______ _____ _____    ______ ____
ROOT
ATOM      1  C   UNL     1       4.166  -2.069   4.405  0.00  0.00    +0.106 A 
ATOM      2  C   UNL     1       4.960  -2.525   5.435  0.00  0.00    +0.032 A 
ATOM      3  C   UNL     1       6.270  -2.583   4.949  0.00  0.00    +0.020 A 
ATOM      4  C   UNL     1       6.253  -2.171   3.659  0.00  0.00    +0.086 A 
ATOM      5  N   UNL     1       4.980  -1.861   3.314  0.00  0.00    -0.340 N 
ENDROOT
BRANCH   5   6
ATOM      6  C   UNL     1       4.543  -1.381   2.001  0.00  0.00    +0.090 C 
ATOM      7  C   UNL     1       4.759  -2.481   0.959  0.00  0.00    +0.044 C 
ATOM      8  C   UNL     1       4.269  -1.989  -0.406  0.00  0.00    +0.113 C 
ATOM      9  N   UNL     1       4.940  -0.720  -0.720  0.00  0.00    -0.267 N 
ATOM     10  C   UNL     1       4.872   0.375   0.256  0.00  0.00    +0.113 C 
ATOM     11  C   UNL     1       5.356  -0.144   1.614  0.00  0.00    +0.044 C 
ATOM     12  C   UNL     1       5.606  -0.565  -1.882  0.00  0.00    +0.403 C 
ATOM     13  O   UNL     1       5.655  -1.479  -2.681  0.00  0.00    -0.226 OA
BRANCH  12  14
ATOM     14  O   UNL     1       6.217   0.603  -2.156  0.00  0.00    -0.445 OA
BRANCH  14  15
ATOM     15  C   UNL     1       6.904   0.698  -3.406  0.00  0.00    +0.107 C 
ATOM     16  C   UNL     1       5.915   0.472  -4.551  0.00  0.00    +0.055 C 
ATOM     17  C   UNL     1       7.531   2.087  -3.539  0.00  0.00    +0.055 C 
ATOM     18  C   UNL     1       8.004  -0.365  -3.465  0.00  0.00    +0.055 C 
ENDBRANCH  14  15
ENDBRANCH  12  14
ENDBRANCH   5   6
BRANCH   1  20
ATOM     19  N   UNL     1       2.055  -1.998   5.624  0.00  0.00    -0.228 N 
ATOM     20  C   UNL     1       2.716  -1.852   4.458  0.00  0.00    +0.277 C 
ATOM     21  O   UNL     1       2.110  -1.540   3.450  0.00  0.00    -0.267 OA
ATOM     22  H   UNL     1       2.525  -2.317   6.410  0.00  0.00    +0.173 HD
BRANCH  19  26
ATOM     23  N   UNL     1       0.682  -2.277   7.958  0.00  0.00    -0.296 N 
ATOM     24  C   UNL     1       0.031  -1.833   6.865  0.00  0.00    +0.316 C 
ATOM     25  O   UNL     1      -1.153  -1.564   6.930  0.00  0.00    -0.251 OA
ATOM     26  N   UNL     1       0.691  -1.688   5.699  0.00  0.00    -0.218 N 
ATOM     27  H   UNL     1       1.627  -2.491   7.906  0.00  0.00    +0.151 HD
ATOM     28  H   UNL     1       0.222  -1.368   4.912  0.00  0.00    +0.174 HD
BRANCH  23  30
ATOM     29  C   UNL     1      -0.719  -3.804   9.257  0.00  0.00    +0.027 C 
ATOM     30  C   UNL     1      -0.036  -2.435   9.225  0.00  0.00    +0.068 C 
ATOM     31  C   UNL     1       0.953  -2.331  10.388  0.00  0.00    +0.027 C 
ENDBRANCH  23  30
ENDBRANCH  19  26
ENDBRANCH   1  20
TORSDOF 6
