REMARK  Name = ZINC08431420
REMARK  11 active torsions:
REMARK  status: ('A' for Active; 'I' for Inactive)
REMARK    1  A    between atoms: C_1  and  C_2
REMARK    2  A    between atoms: C_2  and  O_3
REMARK    3  A    between atoms: O_3  and  C_4
REMARK    4  A    between atoms: C_4  and  C_6
REMARK    5  A    between atoms: C_10  and  N_11
REMARK    6  A    between atoms: C_12  and  C_14
REMARK    7  A    between atoms: C_21  and  C_23
REMARK    8  A    between atoms: C_28  and  C_32
REMARK    9  A    between atoms: C_32  and  C_33
REMARK   10  A    between atoms: C_32  and  C_34
REMARK   11  A    between atoms: C_32  and  C_35
REMARK                            x       y       z     vdW  Elec       q    Type
REMARK                         _______ _______ _______ _____ _____    ______ ____
ROOT
ATOM      1  C   UNL     1      -3.461   0.877  -0.327  0.00  0.00    +0.091 A 
ATOM      2  C   UNL     1      -4.450  -0.172  -0.143  0.00  0.00    -0.021 A 
ATOM      3  C   UNL     1      -3.968  -1.341   0.330  0.00  0.00    -0.004 A 
ATOM      4  S   UNL     1      -2.229  -1.069   0.524  0.00  0.00    -0.077 S 
ATOM      5  C   UNL     1      -2.142   0.575  -0.015  0.00  0.00    +0.086 A 
ATOM      6  C   UNL     1      -4.746  -2.587   0.622  0.00  0.00    +0.046 C 
ATOM      7  C   UNL     1      -6.239  -2.228   0.659  0.00  0.00    -0.000 C 
ATOM      8  C   UNL     1      -6.574  -1.383  -0.574  0.00  0.00    +0.009 C 
ATOM      9  C   UNL     1      -5.934   0.000  -0.446  0.00  0.00    +0.037 C 
ENDROOT
BRANCH   5  10
ATOM     10  N   UNL     1      -1.026   1.393  -0.107  0.00  0.00    -0.279 N 
ATOM     11  C   UNL     1       0.185   0.923   0.249  0.00  0.00    +0.222 C 
ATOM     12  O   UNL     1       0.300  -0.216   0.651  0.00  0.00    -0.275 OA
ATOM     13  H   UNL     1      -1.118   2.304  -0.428  0.00  0.00    +0.155 HD
BRANCH  11  14
ATOM     14  C   UNL     1       1.399   1.810   0.143  0.00  0.00    +0.096 C 
ATOM     15  C   UNL     1       2.699   1.002   0.454  0.00  0.00    +0.025 C 
ATOM     16  C   UNL     1       3.646   2.161   0.936  0.00  0.00    +0.016 C 
ATOM     17  C   UNL     1       2.662   2.612   2.078  0.00  0.00    +0.027 C 
ATOM     18  C   UNL     1       1.372   2.903   1.240  0.00  0.00    +0.121 C 
ATOM     19  C   UNL     1       2.385   1.254   2.735  0.00  0.00    -0.027 C 
ATOM     20  C   UNL     1       2.406   0.327   1.799  0.00  0.00    -0.027 C 
BRANCH  18  21
ATOM     21  C   UNL     1       0.140   2.763   2.097  0.00  0.00    +0.360 C 
ATOM     22  O   UNL     1       0.140   2.002   3.035  0.00  0.00    -0.246 OA
ATOM     23  O   UNL     1      -0.957   3.484   1.818  0.00  0.00    -0.246 OA
ENDBRANCH  18  21
ENDBRANCH  11  14
ENDBRANCH   5  10
BRANCH   7  24
ATOM     24  C   UNL     1      -7.075  -3.509   0.646  0.00  0.00    -0.035 C 
ATOM     25  C   UNL     1      -6.726  -4.359   1.870  0.00  0.00    +0.011 C 
ATOM     26  C   UNL     1      -8.561  -3.148   0.683  0.00  0.00    +0.011 C 
ATOM     27  C   UNL     1      -6.774  -4.301  -0.628  0.00  0.00    +0.011 C 
ENDBRANCH   7  24
BRANCH   1  28
ATOM     28  C   UNL     1      -3.840   2.200  -0.825  0.00  0.00    +0.342 C 
ATOM     29  O   UNL     1      -3.840   2.423  -2.021  0.00  0.00    -0.245 OA
BRANCH  28  30
ATOM     30  O   UNL     1      -4.191   3.173   0.041  0.00  0.00    -0.461 OA
BRANCH  30  32
ATOM     31  C   UNL     1      -4.919   5.427   0.604  0.00  0.00    +0.048 C 
ATOM     32  C   UNL     1      -4.555   4.460  -0.524  0.00  0.00    +0.229 C 
ENDBRANCH  30  32
ENDBRANCH  28  30
ENDBRANCH   1  28
TORSDOF 7
