REMARK  Name = ZINC19565245
REMARK  9 active torsions:
REMARK  status: ('A' for Active; 'I' for Inactive)
REMARK    1  A    between atoms: C_1  and  C_2
REMARK    2  A    between atoms: C_6  and  C_7
REMARK    3  A    between atoms: N_9  and  C_10
REMARK    4  A    between atoms: C_10  and  C_11
REMARK    5  A    between atoms: C_11  and  N_12
REMARK    6  A    between atoms: C_15  and  C_18
REMARK    7  A    between atoms: C_20  and  C_25
REMARK    8  A    between atoms: C_20  and  C_26
REMARK    9  A    between atoms: C_22  and  O_24
REMARK                            x       y       z     vdW  Elec       q    Type
REMARK                         _______ _______ _______ _____ _____    ______ ____
ROOT
ATOM      1  C   UNL     1      -1.802   1.669  -8.972  0.00  0.00    +0.048 C 
ATOM      2  C   UNL     1      -0.446   1.161  -8.556  0.00  0.00    +0.006 A 
ATOM      3  C   UNL     1       0.581   0.731  -9.400  0.00  0.00    +0.025 A 
ATOM      4  C   UNL     1       1.620   0.354  -8.616  0.00  0.00    +0.112 A 
ATOM      5  O   UNL     1       1.279   0.539  -7.338  0.00  0.00    -0.454 OA
ATOM      6  C   UNL     1       0.024   1.034  -7.277  0.00  0.00    +0.193 A 
ATOM      7  C   UNL     1       2.925  -0.183  -9.152  0.00  0.00    +0.081 C 
ATOM      8  C   UNL     1       2.711  -0.610 -10.610  0.00  0.00    -0.025 C 
ATOM      9  C   UNL     1       2.034   0.526 -11.382  0.00  0.00    +0.043 C 
ATOM     10  C   UNL     1       0.583   0.672 -10.906  0.00  0.00    +0.149 C 
ATOM     11  C   UNL     1       1.823  -1.855 -10.651  0.00  0.00    +0.011 C 
ATOM     12  C   UNL     1       4.063  -0.927 -11.251  0.00  0.00    +0.011 C 
ENDROOT
BRANCH   6  13
ATOM     13  C   UNL     1      -0.710   1.371  -6.053  0.00  0.00    +0.280 C 
ATOM     14  O   UNL     1      -1.842   1.812  -6.124  0.00  0.00    -0.267 OA
ATOM     15  N   UNL     1      -0.131   1.193  -4.849  0.00  0.00    -0.311 N 
ATOM     16  H   UNL     1       0.892   0.794  -4.785  0.00  0.00    +0.149 HD
BRANCH  15  17
ATOM     17  C   UNL     1      -0.865   1.530  -3.626  0.00  0.00    +0.086 C 
BRANCH  17  18
ATOM     18  C   UNL     1       0.013   1.235  -2.408  0.00  0.00    -0.060 C 
BRANCH  18  19
ATOM     19  N   UNL     1      -0.723   1.572  -1.182  0.00  0.00    +0.381 N 
ATOM     20  C   UNL     1      -0.013   1.086   0.008  0.00  0.00    -0.079 C 
ATOM     21  C   UNL     1      -0.729   1.579   1.267  0.00  0.00    -0.016 C 
ATOM     22  C   UNL     1      -2.170   1.064   1.264  0.00  0.00    -0.018 C 
ATOM     23  C   UNL     1      -2.873   1.544  -0.009  0.00  0.00    -0.016 C 
ATOM     24  C   UNL     1      -2.095   1.052  -1.231  0.00  0.00    -0.079 C 
ATOM     25  C   UNL     1      -2.909   1.604   2.491  0.00  0.00    +0.007 C 
ATOM     26  H   UNL     1      -0.782   2.668  -1.112  0.00  0.00    -0.082 HD
ENDBRANCH  18  19
ENDBRANCH  17  18
ENDBRANCH  15  17
ENDBRANCH   6  13
BRANCH  10  27
ATOM     27  O   UNL     1       0.021   1.875 -11.435  0.00  0.00    -0.387 OA
ATOM     28  H   UNL     1      -0.059   2.011 -12.524  0.00  0.00    +0.210 HD
ENDBRANCH  10  27
TORSDOF 5
