REMARK  Name = ZINC57525780
REMARK  7 active torsions:
REMARK  status: ('A' for Active; 'I' for Inactive)
REMARK    1  A    between atoms: C_1  and  C_2
REMARK    2  A    between atoms: C_2  and  C_27
REMARK    3  A    between atoms: C_4  and  N_10
REMARK    4  A    between atoms: C_6  and  C_8
REMARK    5  A    between atoms: C_6  and  C_9
REMARK    6  A    between atoms: N_13  and  C_14
REMARK    7  A    between atoms: C_18  and  N_20
REMARK                            x       y       z     vdW  Elec       q    Type
REMARK                         _______ _______ _______ _____ _____    ______ ____
ROOT
ATOM      1  N   UNL     1       2.618  -0.823  -2.623  0.00  0.00    -0.296 N 
ATOM      2  C   UNL     1       3.769  -0.333  -3.124  0.00  0.00    +0.304 C 
ATOM      3  O   UNL     1       4.370   0.539  -2.527  0.00  0.00    -0.253 OA
ATOM      4  N   UNL     1       4.255  -0.809  -4.288  0.00  0.00    -0.269 N 
ATOM      5  H   UNL     1       2.139  -1.519  -3.100  0.00  0.00    +0.151 HD
ATOM      6  H   UNL     1       3.812  -1.551  -4.731  0.00  0.00    +0.156 HD
ENDROOT
BRANCH   1  10
ATOM      7  C   UNL     1      -0.027   1.517   0.009  0.00  0.00    -0.010 C 
ATOM      8  C   UNL     1       0.004  -0.015   0.006  0.00  0.00    -0.072 C 
ATOM      9  C   UNL     1       0.576  -0.517  -1.315  0.00  0.00    +0.009 C 
ATOM     10  C   UNL     1       2.090  -0.304  -1.356  0.00  0.00    +0.072 C 
ATOM     11  C   UNL     1       2.711  -1.080  -0.195  0.00  0.00    +0.009 C 
ATOM     12  C   UNL     1       2.155  -0.583   1.136  0.00  0.00    -0.072 C 
ATOM     13  N   UNL     1       0.704  -0.531   1.169  0.00  0.00    +0.386 N 
ATOM     14  C   UNL     1       2.769   0.778   1.478  0.00  0.00    -0.010 C 
ATOM     15  C   UNL     1       2.616  -1.575   2.229  0.00  0.00    -0.010 C 
ATOM     16  C   UNL     1      -1.463  -0.498   0.087  0.00  0.00    -0.010 C 
ATOM     17  H   UNL     1       0.421   0.020   1.985  0.00  0.00    -0.084 HD
ATOM     18  H   UNL     1       0.354  -1.476   1.360  0.00  0.00    -0.084 HD
ENDBRANCH   1  10
BRANCH   4  19
ATOM     19  C   UNL     1       5.396  -0.235  -4.858  0.00  0.00    +0.037 A 
ATOM     20  C   UNL     1       5.509  -0.134  -6.239  0.00  0.00    +0.023 A 
ATOM     21  C   UNL     1       6.635   0.434  -6.802  0.00  0.00    +0.004 A 
ATOM     22  C   UNL     1       7.654   0.902  -5.995  0.00  0.00    +0.025 A 
ATOM     23  C   UNL     1       7.548   0.804  -4.613  0.00  0.00    +0.053 A 
ATOM     24  C   UNL     1       6.415   0.239  -4.044  0.00  0.00    +0.048 A 
BRANCH  23  25
ATOM     25  N   UNL     1       8.578   1.276  -3.797  0.00  0.00    -0.207 N 
ATOM     26  C   UNL     1       8.906   0.830  -2.431  0.00  0.00    +0.133 C 
ATOM     27  C   UNL     1      10.410   0.997  -2.147  0.00  0.00    +0.045 C 
ATOM     28  C   UNL     1      10.767   2.419  -2.676  0.00  0.00    +0.190 C 
ATOM     29  S   UNL     1       9.701   2.463  -4.174  0.00  0.00    +0.046 S 
ATOM     30  O   UNL     1      10.403   1.975  -5.308  0.00  0.00    -0.155 OA
ATOM     31  O   UNL     1       8.965   3.678  -4.229  0.00  0.00    -0.155 OA
ENDBRANCH  23  25
ENDBRANCH   4  19
TORSDOF 3
