REMARK  Name = ZINC09336975
REMARK  14 active torsions:
REMARK  status: ('A' for Active; 'I' for Inactive)
REMARK    1  A    between atoms: C_1  and  C_2
REMARK    2  A    between atoms: C_2  and  C_3
REMARK    3  A    between atoms: C_2  and  C_4
REMARK    4  A    between atoms: C_4  and  C_6
REMARK    5  A    between atoms: C_4  and  N_57
REMARK    6  A    between atoms: C_13  and  C_14
REMARK    7  A    between atoms: C_13  and  N_57
REMARK    8  A    between atoms: N_16  and  C_17
REMARK    9  A    between atoms: C_19  and  S_25
REMARK   10  A    between atoms: C_22  and  O_23
REMARK   11  A    between atoms: O_23  and  C_24
REMARK   12  A    between atoms: S_25  and  N_28
REMARK   13  A    between atoms: N_28  and  C_29
REMARK   14  A    between atoms: N_28  and  C_30
REMARK                            x       y       z     vdW  Elec       q    Type
REMARK                         _______ _______ _______ _____ _____    ______ ____
ROOT
ATOM      1  C   UNL     1       2.333   5.245  -0.089  0.00  0.00    +0.200 C 
ATOM      2  O   UNL     1       1.274   5.836  -0.079  0.00  0.00    -0.278 OA
ATOM      3  N   UNL     1       2.356   3.901   0.009  0.00  0.00    -0.284 N 
ATOM      4  H   UNL     1       3.203   3.434   0.083  0.00  0.00    +0.155 HD
ENDROOT
BRANCH   3   5
ATOM      5  C   UNL     1       1.156   3.178   0.006  0.00  0.00    +0.077 A 
ATOM      6  C   UNL     1       0.023   3.712  -0.591  0.00  0.00    +0.055 A 
ATOM      7  C   UNL     1      -1.159   2.997  -0.593  0.00  0.00    +0.107 A 
ATOM      8  C   UNL     1      -1.216   1.746  -0.006  0.00  0.00    +0.032 A 
ATOM      9  C   UNL     1      -0.092   1.209   0.595  0.00  0.00    +0.049 A 
ATOM     10  C   UNL     1       1.097   1.920   0.601  0.00  0.00    +0.141 A 
BRANCH   7  11
ATOM     11  S   UNL     1      -2.596   3.678  -1.352  0.00  0.00    +0.060 S 
ATOM     12  O   UNL     1      -3.715   3.047  -0.742  0.00  0.00    -0.153 OA
ATOM     13  O   UNL     1      -2.425   5.088  -1.354  0.00  0.00    -0.153 OA
BRANCH  11  14
ATOM     14  N   UNL     1      -2.588   3.197  -2.936  0.00  0.00    -0.183 NA
ATOM     15  C   UNL     1      -3.241   1.944  -3.325  0.00  0.00    +0.131 C 
ATOM     16  C   UNL     1      -1.927   4.024  -3.949  0.00  0.00    +0.131 C 
ENDBRANCH  11  14
ENDBRANCH   7  11
BRANCH  10  17
ATOM     17  O   UNL     1       2.204   1.391   1.187  0.00  0.00    -0.493 OA
ATOM     18  C   UNL     1       2.069   0.096   1.778  0.00  0.00    +0.277 C 
ENDBRANCH  10  17
ENDBRANCH   3   5
BRANCH   1  19
ATOM     19  C   UNL     1       3.624   6.013  -0.212  0.00  0.00    +0.016 C 
BRANCH  19  20
ATOM     20  N   UNL     1       3.321   7.454  -0.303  0.00  0.00    +0.389 N 
ATOM     21  H   UNL     1       2.666   7.615  -1.077  0.00  0.00    -0.084 HD
ATOM     22  H   UNL     1       2.895   7.767   0.577  0.00  0.00    -0.084 HD
BRANCH  20  23
ATOM     23  C   UNL     1       4.557   8.223  -0.544  0.00  0.00    -0.038 C 
BRANCH  23  24
ATOM     24  C   UNL     1       5.172   8.612   0.776  0.00  0.00    -0.061 A 
ATOM     25  C   UNL     1       4.365   9.019   1.821  0.00  0.00    +0.005 A 
ATOM     26  C   UNL     1       4.927   9.370   3.033  0.00  0.00    +0.038 A 
ATOM     27  C   UNL     1       6.301   9.326   3.197  0.00  0.00    +0.123 A 
ATOM     28  C   UNL     1       7.110   8.924   2.147  0.00  0.00    +0.038 A 
ATOM     29  C   UNL     1       6.545   8.567   0.938  0.00  0.00    +0.005 A 
ATOM     30  F   UNL     1       6.853   9.676   4.380  0.00  0.00    -0.205 F 
ENDBRANCH  23  24
BRANCH  23  32
ATOM     31  C   UNL     1       5.507  10.226  -1.696  0.00  0.00    +0.006 C 
ATOM     32  C   UNL     1       4.217   9.484  -1.340  0.00  0.00    -0.027 C 
ATOM     33  C   UNL     1       3.482   9.095  -2.624  0.00  0.00    +0.006 C 
ENDBRANCH  23  32
ENDBRANCH  20  23
ENDBRANCH  19  20
ENDBRANCH   1  19
TORSDOF 9
