REMARK  Name = ZINC55466523
REMARK  10 active torsions:
REMARK  status: ('A' for Active; 'I' for Inactive)
REMARK    1  A    between atoms: C_1  and  C_2
REMARK    2  A    between atoms: C_2  and  C_3
REMARK    3  A    between atoms: C_4  and  C_22
REMARK    4  A    between atoms: N_13  and  C_14
REMARK    5  A    between atoms: C_14  and  C_16
REMARK    6  A    between atoms: C_16  and  N_17
REMARK    7  A    between atoms: N_17  and  C_18
REMARK    8  A    between atoms: N_17  and  C_20
REMARK    9  A    between atoms: C_18  and  C_19
REMARK   10  A    between atoms: C_20  and  C_21
REMARK                            x       y       z     vdW  Elec       q    Type
REMARK                         _______ _______ _______ _____ _____    ______ ____
ROOT
ATOM      1  C   UNL     1       1.300  -1.730  -1.399  0.00  0.00    +0.021 A 
ATOM      2  C   UNL     1       2.627  -1.504  -1.530  0.00  0.00    -0.008 A 
ATOM      3  C   UNL     1       3.198  -1.362  -2.812  0.00  0.00    +0.070 A 
ATOM      4  C   UNL     1       2.305  -1.469  -3.977  0.00  0.00    +0.022 A 
ATOM      5  C   UNL     1       2.789  -1.341  -5.280  0.00  0.00    +0.012 A 
ATOM      6  C   UNL     1       1.926  -1.448  -6.335  0.00  0.00    +0.001 A 
ATOM      7  C   UNL     1       0.574  -1.682  -6.120  0.00  0.00    +0.002 A 
ATOM      8  C   UNL     1       0.076  -1.810  -4.843  0.00  0.00    +0.026 A 
ATOM      9  C   UNL     1       0.937  -1.706  -3.753  0.00  0.00    +0.048 A 
ATOM     10  N   UNL     1       0.473  -1.835  -2.465  0.00  0.00    -0.358 N 
ATOM     11  N   UNL     1       4.510  -1.136  -2.965  0.00  0.00    -0.182 NA
ATOM     12  C   UNL     1       3.497  -1.402  -0.304  0.00  0.00    +0.047 C 
ATOM     13  H   UNL     1      -0.471  -2.002  -2.316  0.00  0.00    +0.166 HD
ENDROOT
BRANCH   1  15
ATOM     14  C   UNL     1       0.320  -0.500   0.518  0.00  0.00    +0.010 C 
ATOM     15  C   UNL     1       0.723  -1.877  -0.015  0.00  0.00    +0.050 C 
ENDBRANCH   1  15
BRANCH  11  16
ATOM     16  C   UNL     1       5.285  -0.982  -1.899  0.00  0.00    +0.220 C 
ATOM     17  O   UNL     1       5.893  -1.934  -1.446  0.00  0.00    -0.276 OA
BRANCH  16  18
ATOM     18  C   UNL     1       5.412   0.371  -1.249  0.00  0.00    +0.021 C 
BRANCH  18  19
ATOM     19  N   UNL     1       6.369   0.292  -0.137  0.00  0.00    +0.385 N 
ATOM     20  H   UNL     1       6.085  -0.435   0.501  0.00  0.00    -0.081 HD
BRANCH  19  21
ATOM     21  C   UNL     1       7.706  -0.013  -0.663  0.00  0.00    -0.082 C 
ATOM     22  C   UNL     1       8.682  -0.199   0.500  0.00  0.00    -0.017 C 
ENDBRANCH  19  21
BRANCH  19  23
ATOM     23  C   UNL     1       6.404   1.579   0.571  0.00  0.00    -0.082 C 
ATOM     24  C   UNL     1       5.036   1.851   1.202  0.00  0.00    -0.017 C 
ENDBRANCH  19  23
ENDBRANCH  18  19
ENDBRANCH  16  18
ENDBRANCH  11  16
TORSDOF 6
