REMARK  Name = ZINC50928335
REMARK  10 active torsions:
REMARK  status: ('A' for Active; 'I' for Inactive)
REMARK    1  A    between atoms: C_1  and  C_2
REMARK    2  A    between atoms: C_2  and  O_3
REMARK    3  A    between atoms: O_3  and  C_4
REMARK    4  A    between atoms: C_4  and  C_6
REMARK    5  A    between atoms: C_15  and  N_16
REMARK    6  A    between atoms: N_16  and  C_17
REMARK    7  A    between atoms: C_17  and  C_18
REMARK    8  A    between atoms: C_18  and  C_19
REMARK    9  A    between atoms: C_22  and  S_25
REMARK   10  A    between atoms: S_25  and  N_28
REMARK                            x       y       z     vdW  Elec       q    Type
REMARK                         _______ _______ _______ _____ _____    ______ ____
ROOT
ATOM      1  C   UNL     1      -0.604  -3.544   1.467  0.00  0.00    +0.096 A 
ATOM      2  C   UNL     1      -0.552  -2.755   2.628  0.00  0.00    +0.099 A 
ATOM      3  N   UNL     1      -1.640  -2.335   3.221  0.00  0.00    -0.360 N 
ATOM      4  C   UNL     1      -2.862  -2.631   2.756  0.00  0.00    +0.048 A 
ATOM      5  C   UNL     1      -4.012  -2.165   3.414  0.00  0.00    +0.026 A 
ATOM      6  C   UNL     1      -5.245  -2.477   2.925  0.00  0.00    +0.002 A 
ATOM      7  C   UNL     1      -5.388  -3.254   1.780  0.00  0.00    +0.001 A 
ATOM      8  C   UNL     1      -4.293  -3.724   1.116  0.00  0.00    +0.012 A 
ATOM      9  C   UNL     1      -3.011  -3.420   1.592  0.00  0.00    +0.020 A 
ATOM     10  C   UNL     1      -1.852  -3.886   0.924  0.00  0.00    +0.052 A 
ATOM     11  H   UNL     1      -1.560  -1.793   4.021  0.00  0.00    +0.165 HD
ENDROOT
BRANCH   1  12
ATOM     12  C   UNL     1       0.637  -4.002   0.823  0.00  0.00    +0.342 C 
ATOM     13  O   UNL     1       0.590  -4.581  -0.244  0.00  0.00    -0.245 OA
BRANCH  12  14
ATOM     14  O   UNL     1       1.827  -3.778   1.417  0.00  0.00    -0.461 OA
BRANCH  14  16
ATOM     15  C   UNL     1       4.236  -3.906   1.556  0.00  0.00    +0.048 C 
ATOM     16  C   UNL     1       2.991  -4.249   0.736  0.00  0.00    +0.229 C 
ENDBRANCH  14  16
ENDBRANCH  12  14
ENDBRANCH   1  12
BRANCH  10  17
ATOM     17  N   UNL     1      -1.947  -4.653  -0.215  0.00  0.00    -0.342 N 
ATOM     18  H   UNL     1      -1.887  -4.234  -1.088  0.00  0.00    +0.146 HD
BRANCH  17  19
ATOM     19  C   UNL     1      -2.138  -6.102  -0.110  0.00  0.00    +0.106 C 
BRANCH  19  20
ATOM     20  C   UNL     1      -0.777  -6.800  -0.153  0.00  0.00    +0.054 C 
BRANCH  20  21
ATOM     21  C   UNL     1      -0.974  -8.290  -0.045  0.00  0.00    -0.046 A 
ATOM     22  C   UNL     1      -0.993  -8.896   1.197  0.00  0.00    +0.005 A 
ATOM     23  C   UNL     1      -1.173 -10.263   1.297  0.00  0.00    +0.029 A 
ATOM     24  C   UNL     1      -1.336 -11.024   0.154  0.00  0.00    +0.105 A 
ATOM     25  C   UNL     1      -1.319 -10.418  -1.088  0.00  0.00    +0.029 A 
ATOM     26  C   UNL     1      -1.142  -9.050  -1.187  0.00  0.00    +0.005 A 
BRANCH  24  27
ATOM     27  S   UNL     1      -1.565 -12.767   0.281  0.00  0.00    +0.056 S 
ATOM     28  O   UNL     1      -1.149 -13.322  -0.959  0.00  0.00    -0.153 OA
ATOM     29  O   UNL     1      -0.997 -13.162   1.522  0.00  0.00    -0.153 OA
BRANCH  27  30
ATOM     30  N   UNL     1      -3.194 -13.039   0.398  0.00  0.00    -0.204 NA
ATOM     31  H   UNL     1      -3.574 -13.862   0.053  0.00  0.00    +0.144 HD
ATOM     32  H   UNL     1      -3.768 -12.376   0.812  0.00  0.00    +0.144 HD
ENDBRANCH  27  30
ENDBRANCH  24  27
ENDBRANCH  20  21
ENDBRANCH  19  20
ENDBRANCH  17  19
ENDBRANCH  10  17
TORSDOF 9
