REMARK  Name = ZINC61680676
REMARK  2 active torsions:
REMARK  status: ('A' for Active; 'I' for Inactive)
REMARK    1  A    between atoms: C_4  and  C_7
REMARK    2  A    between atoms: N_12  and  C_15
REMARK                            x       y       z     vdW  Elec       q    Type
REMARK                         _______ _______ _______ _____ _____    ______ ____
ROOT
ATOM      1  C   UNL     1       3.874  -0.702  -0.052  0.00  0.00    +0.114 C 
ATOM      2  C   UNL     1       3.634  -1.641  -1.251  0.00  0.00    +0.114 C 
ATOM      3  C   UNL     1       3.692  -3.023  -0.637  0.00  0.00    +0.227 C 
ATOM      4  O   UNL     1       3.551  -4.066  -1.239  0.00  0.00    -0.275 OA
ATOM      5  N   UNL     1       3.923  -2.912   0.677  0.00  0.00    -0.208 N 
ATOM      6  C   UNL     1       4.045  -1.649   1.116  0.00  0.00    +0.234 C 
ATOM      7  O   UNL     1       4.257  -1.319   2.263  0.00  0.00    -0.274 OA
ENDROOT
BRANCH   5   8
ATOM      8  C   UNL     1       4.031  -4.024   1.526  0.00  0.00    +0.062 A 
ATOM      9  C   UNL     1       5.107  -4.902   1.406  0.00  0.00    +0.029 A 
ATOM     10  C   UNL     1       5.173  -5.984   2.263  0.00  0.00    +0.045 A 
ATOM     11  C   UNL     1       4.170  -6.160   3.212  0.00  0.00    +0.116 A 
ATOM     12  N   UNL     1       3.163  -5.307   3.297  0.00  0.00    -0.239 NA
ATOM     13  C   UNL     1       3.072  -4.260   2.499  0.00  0.00    +0.136 A 
ATOM     14  N   UNL     1       4.227  -7.247   4.080  0.00  0.00    -0.343 N 
ATOM     15  H   UNL     1       4.963  -7.876   4.021  0.00  0.00    +0.144 HD
ATOM     16  H   UNL     1       3.531  -7.375   4.743  0.00  0.00    +0.144 HD
ENDBRANCH   5   8
BRANCH   1  20
ATOM     17  C   UNL     1       0.501   1.847   0.558  0.00  0.00    +0.000 A 
ATOM     18  C   UNL     1       1.751   2.395   0.334  0.00  0.00    +0.000 A 
ATOM     19  C   UNL     1       2.842   1.570   0.137  0.00  0.00    +0.004 A 
ATOM     20  C   UNL     1       2.684   0.197   0.164  0.00  0.00    -0.035 A 
ATOM     21  C   UNL     1       1.436  -0.351   0.389  0.00  0.00    +0.004 A 
ATOM     22  C   UNL     1       0.344   0.474   0.585  0.00  0.00    +0.000 A 
ENDBRANCH   1  20
TORSDOF 2
