REMARK  Name = ZINC13635923
REMARK  6 active torsions:
REMARK  status: ('A' for Active; 'I' for Inactive)
REMARK    1  A    between atoms: C_1  and  C_2
REMARK    2  A    between atoms: C_2  and  C_3
REMARK    3  A    between atoms: C_2  and  C_4
REMARK    4  A    between atoms: C_11  and  N_24
REMARK    5  A    between atoms: C_12  and  C_22
REMARK    6  A    between atoms: C_13  and  C_15
REMARK                            x       y       z     vdW  Elec       q    Type
REMARK                         _______ _______ _______ _____ _____    ______ ____
ROOT
ATOM      1  C   UNL     1      -0.938  -0.596   0.113  0.00  0.00    +0.073 A 
ATOM      2  C   UNL     1      -1.780  -1.374  -0.669  0.00  0.00    +0.046 A 
ATOM      3  C   UNL     1      -2.996  -1.437  -0.048  0.00  0.00    +0.222 A 
ATOM      4  N   UNL     1      -2.912  -0.720   1.083  0.00  0.00    -0.246 N 
ATOM      5  H   UNL     1      -3.624  -0.585   1.728  0.00  0.00    +0.192 HD
ATOM      6  N   UNL     1      -1.610  -0.204   1.170  0.00  0.00    -0.175 NA
ATOM      7  O   UNL     1      -4.044  -2.130  -0.560  0.00  0.00    -0.423 OA
ATOM      8  C   UNL     1      -3.792  -2.991  -1.567  0.00  0.00    +0.200 C 
ATOM      9  C   UNL     1      -2.634  -3.015  -2.264  0.00  0.00    +0.094 C 
ATOM     10  C   UNL     1      -1.498  -2.065  -1.978  0.00  0.00    +0.078 C 
ENDROOT
BRANCH  10  11
ATOM     11  C   UNL     1      -1.400  -1.027  -3.099  0.00  0.00    +0.024 C 
ATOM     12  C   UNL     1      -2.760  -0.351  -3.284  0.00  0.00    +0.009 C 
ATOM     13  C   UNL     1      -2.714   0.487  -4.568  0.00  0.00    +0.005 C 
ATOM     14  C   UNL     1      -2.601  -0.463  -5.763  0.00  0.00    +0.027 C 
ATOM     15  C   UNL     1      -1.502  -1.458  -5.529  0.00  0.00    -0.031 C 
ATOM     16  C   UNL     1      -0.986  -1.707  -4.371  0.00  0.00    -0.027 C 
ENDBRANCH  10  11
BRANCH   1  18
ATOM     17  C   UNL     1       0.652   1.252  -0.345  0.00  0.00    +0.014 C 
ATOM     18  C   UNL     1       0.499  -0.263  -0.194  0.00  0.00    +0.034 C 
ATOM     19  C   UNL     1       1.392  -0.755   0.947  0.00  0.00    +0.014 C 
ENDBRANCH   1  18
BRANCH   8  20
ATOM     20  N   UNL     1      -4.769  -3.894  -1.904  0.00  0.00    -0.328 N 
ATOM     21  H   UNL     1      -5.611  -3.901  -1.423  0.00  0.00    +0.145 HD
ATOM     22  H   UNL     1      -4.617  -4.526  -2.624  0.00  0.00    +0.145 HD
ENDBRANCH   8  20
BRANCH   9  23
ATOM     23  C   UNL     1      -2.480  -3.979  -3.311  0.00  0.00    +0.100 C 
ATOM     24  N   UNL     1      -2.358  -4.744  -4.142  0.00  0.00    -0.191 NA
ENDBRANCH   9  23
TORSDOF 4
