REMARK  Name = ZINC62427970
REMARK  6 active torsions:
REMARK  status: ('A' for Active; 'I' for Inactive)
REMARK    1  A    between atoms: C_1  and  C_2
REMARK    2  A    between atoms: C_3  and  C_22
REMARK    3  A    between atoms: C_8  and  C_14
REMARK    4  A    between atoms: C_9  and  C_12
REMARK    5  A    between atoms: C_12  and  N_13
REMARK    6  A    between atoms: C_15  and  C_16
REMARK                            x       y       z     vdW  Elec       q    Type
REMARK                         _______ _______ _______ _____ _____    ______ ____
ROOT
ATOM      1  C   UNL     1      -0.018   1.503   0.010  0.00  0.00    +0.066 C 
ATOM      2  C   UNL     1       0.002  -0.004   0.002  0.00  0.00    +0.051 A 
ATOM      3  C   UNL     1       0.006  -0.707  -1.159  0.00  0.00    +0.011 A 
ATOM      4  S   UNL     1       0.032  -2.379  -0.535  0.00  0.00    -0.053 S 
ATOM      5  C   UNL     1       0.036  -2.014   1.108  0.00  0.00    +0.196 A 
ATOM      6  N   UNL     1       0.023  -0.699   1.123  0.00  0.00    -0.226 NA
ATOM      7  N   UNL     1       0.053  -2.891   2.190  0.00  0.00    -0.188 N 
ATOM      8  C   UNL     1       0.050  -2.558   3.523  0.00  0.00    +0.091 A 
ATOM      9  C   UNL     1       0.073  -3.749   4.216  0.00  0.00    +0.073 A 
ATOM     10  N   UNL     1       0.089  -4.749   3.340  0.00  0.00    -0.135 NA
ATOM     11  N   UNL     1       0.072  -4.293   2.138  0.00  0.00    -0.058 NA
ATOM     12  C   UNL     1      -0.008  -0.212  -2.583  0.00  0.00    +0.053 C 
ENDROOT
BRANCH   8  13
ATOM     13  C   UNL     1       0.028  -1.206   4.094  0.00  0.00    +0.030 C 
ATOM     14  C   UNL     1       0.904  -0.279   3.664  0.00  0.00    +0.010 C 
BRANCH  14  15
ATOM     15  C   UNL     1       0.881   1.078   4.236  0.00  0.00    -0.025 A 
ATOM     16  C   UNL     1      -0.044   1.405   5.231  0.00  0.00    +0.008 A 
ATOM     17  C   UNL     1      -0.059   2.677   5.763  0.00  0.00    +0.001 A 
ATOM     18  C   UNL     1       0.840   3.629   5.314  0.00  0.00    +0.000 A 
ATOM     19  C   UNL     1       1.759   3.312   4.329  0.00  0.00    +0.001 A 
ATOM     20  C   UNL     1       1.789   2.043   3.792  0.00  0.00    +0.008 A 
ENDBRANCH  14  15
ENDBRANCH   8  13
BRANCH   9  21
ATOM     21  C   UNL     1       0.079  -3.894   5.716  0.00  0.00    -0.026 C 
BRANCH  21  22
ATOM     22  N   UNL     1      -1.304  -3.966   6.207  0.00  0.00    +0.382 N 
ATOM     23  H   UNL     1      -1.795  -3.122   5.953  0.00  0.00    -0.090 HD
ATOM     24  H   UNL     1      -1.767  -4.762   5.794  0.00  0.00    -0.090 HD
ATOM     25  H   UNL     1      -1.300  -4.063   7.211  0.00  0.00    -0.090 HD
ENDBRANCH  21  22
ENDBRANCH   9  21
TORSDOF 4
