REMARK  Name = ZINC23549742
REMARK  9 active torsions:
REMARK  status: ('A' for Active; 'I' for Inactive)
REMARK    1  A    between atoms: C_1  and  C_2
REMARK    2  A    between atoms: C_2  and  O_3
REMARK    3  A    between atoms: O_3  and  C_4
REMARK    4  A    between atoms: C_4  and  C_6
REMARK    5  A    between atoms: C_10  and  C_11
REMARK    6  A    between atoms: C_11  and  C_21
REMARK    7  A    between atoms: C_12  and  N_13
REMARK    8  A    between atoms: C_12  and  N_14
REMARK    9  A    between atoms: N_17  and  C_20
REMARK                            x       y       z     vdW  Elec       q    Type
REMARK                         _______ _______ _______ _____ _____    ______ ____
ROOT
ATOM      1  C   UNL     1       1.502  -2.356   2.407  0.00  0.00    +0.130 A 
ATOM      2  C   UNL     1       2.110  -1.594   3.514  0.00  0.00    +0.050 A 
ATOM      3  N   UNL     1       2.635  -2.523   4.407  0.00  0.00    -0.352 N 
ATOM      4  C   UNL     1       2.385  -3.806   3.913  0.00  0.00    +0.089 A 
ATOM      5  C   UNL     1       2.757  -4.983   4.527  0.00  0.00    +0.051 C 
ATOM      6  C   UNL     1       1.689  -3.710   2.697  0.00  0.00    +0.218 A 
ATOM      7  O   UNL     1       1.273  -4.750   1.936  0.00  0.00    -0.285 OA
ATOM      8  C   UNL     1       2.150  -0.258   3.637  0.00  0.00    +0.037 C 
ATOM      9  H   UNL     1       3.098  -2.314   5.233  0.00  0.00    +0.166 HD
ENDROOT
BRANCH   1  10
ATOM     10  C   UNL     1       0.849  -1.820   1.273  0.00  0.00    +0.345 C 
ATOM     11  O   UNL     1       0.383  -2.565   0.430  0.00  0.00    -0.245 OA
BRANCH  10  12
ATOM     12  O   UNL     1       0.742  -0.482   1.125  0.00  0.00    -0.461 OA
BRANCH  12  14
ATOM     13  C   UNL     1       0.048   1.520  -0.037  0.00  0.00    +0.048 C 
ATOM     14  C   UNL     1       0.070  -0.010  -0.044  0.00  0.00    +0.229 C 
ENDBRANCH  12  14
ENDBRANCH  10  12
ENDBRANCH   1  10
BRANCH   5  15
ATOM     15  C   UNL     1       3.566  -4.950   5.686  0.00  0.00    +0.089 C 
ATOM     16  C   UNL     1       4.043  -6.143   6.240  0.00  0.00    +0.102 C 
BRANCH  16  17
ATOM     17  N   UNL     1       4.734  -6.121   7.417  0.00  0.00    -0.315 N 
ATOM     18  C   UNL     1       4.051  -6.356   8.698  0.00  0.00    +0.121 C 
ATOM     19  C   UNL     1       4.816  -7.439   9.466  0.00  0.00    +0.103 C 
ATOM     20  N   UNL     1       6.229  -7.051   9.577  0.00  0.00    -0.302 NA
ATOM     21  C   UNL     1       6.863  -6.963   8.255  0.00  0.00    +0.103 C 
ATOM     22  C   UNL     1       6.182  -5.866   7.437  0.00  0.00    +0.121 C 
ATOM     23  C   UNL     1       6.962  -7.975  10.452  0.00  0.00    +0.105 C 
ENDBRANCH  16  17
BRANCH  16  24
ATOM     24  N   UNL     1       3.817  -7.330   5.604  0.00  0.00    -0.345 N 
ATOM     25  H   UNL     1       3.264  -7.355   4.807  0.00  0.00    +0.144 HD
ATOM     26  H   UNL     1       4.208  -8.147   5.949  0.00  0.00    +0.144 HD
ENDBRANCH  16  24
BRANCH  15  27
ATOM     27  C   UNL     1       3.896  -3.696   6.293  0.00  0.00    +0.102 C 
ATOM     28  N   UNL     1       4.159  -2.701   6.774  0.00  0.00    -0.191 NA
ENDBRANCH  15  27
ENDBRANCH   5  15
TORSDOF 7
