REMARK  Name = ZINC03069655
REMARK  4 active torsions:
REMARK  status: ('A' for Active; 'I' for Inactive)
REMARK    1  A    between atoms: C_3  and  O_21
REMARK    2  A    between atoms: C_6  and  N_7
REMARK    3  A    between atoms: C_8  and  C_10
REMARK    4  A    between atoms: C_11  and  C_12
REMARK                            x       y       z     vdW  Elec       q    Type
REMARK                         _______ _______ _______ _____ _____    ______ ____
ROOT
ATOM      1  N   UNL     1      -3.623   1.645   0.028  0.00  0.00    -0.282 N 
ATOM      2  C   UNL     1      -2.447   0.987   0.017  0.00  0.00    +0.241 C 
ATOM      3  O   UNL     1      -2.430  -0.230   0.001  0.00  0.00    -0.270 OA
ATOM      4  H   UNL     1      -3.638   2.611   0.108  0.00  0.00    +0.155 HD
ENDROOT
BRANCH   1  10
ATOM      5  C   UNL     1      -5.901   1.482  -0.759  0.00  0.00    +0.027 A 
ATOM      6  C   UNL     1      -7.083   0.778  -0.866  0.00  0.00    +0.047 A 
ATOM      7  C   UNL     1      -7.200  -0.475  -0.280  0.00  0.00    +0.117 A 
ATOM      8  C   UNL     1      -6.127  -1.022   0.407  0.00  0.00    +0.047 A 
ATOM      9  C   UNL     1      -4.942  -0.321   0.510  0.00  0.00    +0.027 A 
ATOM     10  C   UNL     1      -4.824   0.933  -0.076  0.00  0.00    +0.034 A 
BRANCH   7  11
ATOM     11  O   UNL     1      -8.367  -1.166  -0.381  0.00  0.00    -0.507 OA
ATOM     12  H   UNL     1      -8.991  -0.990   0.337  0.00  0.00    +0.292 HD
ENDBRANCH   7  11
ENDBRANCH   1  10
BRANCH   2  13
ATOM     13  C   UNL     1      -1.191   1.735   0.024  0.00  0.00    +0.068 C 
ATOM     14  C   UNL     1      -0.013   1.076   0.012  0.00  0.00    +0.013 C 
BRANCH  14  15
ATOM     15  C   UNL     1       1.250   1.829   0.013  0.00  0.00    -0.021 A 
ATOM     16  C   UNL     1       1.234   3.228   0.031  0.00  0.00    +0.012 A 
ATOM     17  C   UNL     1       2.419   3.930   0.031  0.00  0.00    +0.050 A 
ATOM     18  C   UNL     1       3.632   3.255   0.015  0.00  0.00    +0.166 A 
ATOM     19  C   UNL     1       3.657   1.859  -0.004  0.00  0.00    +0.167 A 
ATOM     20  C   UNL     1       2.473   1.148   0.001  0.00  0.00    +0.057 A 
ATOM     21  O   UNL     1       4.958   1.447  -0.017  0.00  0.00    -0.453 OA
ATOM     22  C   UNL     1       5.727   2.588   0.405  0.00  0.00    +0.466 C 
ATOM     23  O   UNL     1       4.917   3.712   0.011  0.00  0.00    -0.453 OA
ENDBRANCH  14  15
ENDBRANCH   2  13
TORSDOF 4
