REMARK  Name = ZINC63197484
REMARK  4 active torsions:
REMARK  status: ('A' for Active; 'I' for Inactive)
REMARK    1  A    between atoms: C_1  and  C_2
REMARK    2  A    between atoms: C_2  and  C_4
REMARK    3  A    between atoms: C_2  and  N_10
REMARK    4  A    between atoms: C_13  and  C_16
REMARK                            x       y       z     vdW  Elec       q    Type
REMARK                         _______ _______ _______ _____ _____    ______ ____
ROOT
ATOM      1  N   UNL     1      -1.441  -0.339   0.141  0.00  0.00    +0.384 N 
ATOM      2  C   UNL     1      -1.410  -1.789  -0.083  0.00  0.00    -0.078 C 
ATOM      3  C   UNL     1      -2.840  -2.327  -0.165  0.00  0.00    -0.017 C 
ATOM      4  C   UNL     1      -3.569  -2.028   1.148  0.00  0.00    -0.029 C 
ATOM      5  C   UNL     1      -3.530  -0.519   1.409  0.00  0.00    -0.017 C 
ATOM      6  C   UNL     1      -2.074  -0.049   1.433  0.00  0.00    -0.078 C 
ATOM      7  H   UNL     1      -1.968   0.102  -0.597  0.00  0.00    -0.081 HD
ENDROOT
BRANCH   4   8
ATOM      8  C   UNL     1      -5.023  -2.491   1.044  0.00  0.00    -0.069 C 
ATOM      9  C   UNL     1      -5.774  -2.161   2.351  0.00  0.00    -0.017 C 
ATOM     10  C   UNL     1      -6.693  -3.395   2.547  0.00  0.00    -0.021 C 
ATOM     11  C   UNL     1      -5.795  -4.541   2.019  0.00  0.00    -0.082 C 
ATOM     12  N   UNL     1      -5.071  -3.954   0.867  0.00  0.00    +0.381 N 
ATOM     13  H   UNL     1      -5.556  -4.177   0.010  0.00  0.00    -0.086 HD
ATOM     14  H   UNL     1      -4.133  -4.323   0.830  0.00  0.00    -0.086 HD
ENDBRANCH   4   8
BRANCH   1  16
ATOM     15  C   UNL     1      -0.099   1.697   0.367  0.00  0.00    -0.008 C 
ATOM     16  C   UNL     1      -0.068   0.184   0.142  0.00  0.00    -0.034 C 
BRANCH  16  17
ATOM     17  C   UNL     1       0.584  -0.114  -1.184  0.00  0.00    -0.023 A 
ATOM     18  C   UNL     1       1.852  -0.517  -1.440  0.00  0.00    +0.011 A 
ATOM     19  C   UNL     1       2.235  -0.733  -2.751  0.00  0.00    +0.028 A 
ATOM     20  C   UNL     1       1.330  -0.534  -3.741  0.00  0.00    +0.078 A 
ATOM     21  S   UNL     1      -0.118  -0.034  -2.824  0.00  0.00    -0.083 S 
ATOM     22 CL   UNL     1       1.526  -0.723  -5.456  0.00  0.00    -0.076 Cl
ENDBRANCH  16  17
ENDBRANCH   1  16
TORSDOF 3
