REMARK  Name = ZINC05770637
REMARK  4 active torsions:
REMARK  status: ('A' for Active; 'I' for Inactive)
REMARK    1  A    between atoms: C_4  and  O_22
REMARK    2  A    between atoms: C_5  and  C_7
REMARK    3  A    between atoms: N_8  and  N_9
REMARK    4  A    between atoms: C_12  and  C_15
REMARK                            x       y       z     vdW  Elec       q    Type
REMARK                         _______ _______ _______ _____ _____    ______ ____
ROOT
ATOM      1  N   UNL     1       2.328  -2.974  -0.999  0.00  0.00    -0.215 N 
ATOM      2  C   UNL     1       1.257  -2.122  -1.203  0.00  0.00    +0.178 A 
ATOM      3  N   UNL     1       1.243  -0.904  -1.714  0.00  0.00    -0.224 NA
ATOM      4  C   UNL     1       0.113  -0.222  -1.833  0.00  0.00    +0.080 A 
ATOM      5  C   UNL     1      -1.061  -0.793  -1.431  0.00  0.00    +0.077 A 
ATOM      6  S   UNL     1      -0.477  -2.381  -0.853  0.00  0.00    -0.059 S 
ATOM      7  H   UNL     1       3.225  -2.693  -1.241  0.00  0.00    +0.176 HD
ENDROOT
BRANCH   4   8
ATOM      8  C   UNL     1       0.123   1.148  -2.403  0.00  0.00    +0.001 A 
ATOM      9  C   UNL     1      -1.069   1.857  -2.538  0.00  0.00    +0.013 A 
ATOM     10  C   UNL     1      -1.055   3.132  -3.064  0.00  0.00    +0.039 A 
ATOM     11  C   UNL     1       0.140   3.704  -3.468  0.00  0.00    +0.123 A 
ATOM     12  C   UNL     1       1.327   3.001  -3.341  0.00  0.00    +0.039 A 
ATOM     13  C   UNL     1       1.323   1.726  -2.812  0.00  0.00    +0.013 A 
ATOM     14  F   UNL     1       0.149   4.951  -3.988  0.00  0.00    -0.205 F 
ENDBRANCH   4   8
BRANCH   1  16
ATOM     15  C   UNL     1       3.132  -5.000  -0.151  0.00  0.00    +0.141 C 
ATOM     16  N   UNL     1       2.119  -4.243  -0.443  0.00  0.00    -0.188 NA
BRANCH  15  21
ATOM     17  C   UNL     1       5.977  -2.561   0.048  0.00  0.00    +0.001 A 
ATOM     18  C   UNL     1       7.062  -3.389  -0.181  0.00  0.00    +0.004 A 
ATOM     19  C   UNL     1       6.875  -4.741  -0.401  0.00  0.00    +0.046 A 
ATOM     20  C   UNL     1       5.598  -5.276  -0.394  0.00  0.00    +0.125 A 
ATOM     21  C   UNL     1       4.496  -4.442  -0.162  0.00  0.00    +0.036 A 
ATOM     22  C   UNL     1       4.697  -3.076   0.053  0.00  0.00    +0.013 A 
BRANCH  20  23
ATOM     23  O   UNL     1       5.414  -6.605  -0.609  0.00  0.00    -0.506 OA
ATOM     24  H   UNL     1       5.216  -6.830  -1.529  0.00  0.00    +0.292 HD
ENDBRANCH  20  23
ENDBRANCH  15  21
ENDBRANCH   1  16
TORSDOF 4
