REMARK  Name = ZINC04905374
REMARK  9 active torsions:
REMARK  status: ('A' for Active; 'I' for Inactive)
REMARK    1  A    between atoms: C_1  and  C_2
REMARK    2  A    between atoms: C_2  and  C_4
REMARK    3  A    between atoms: C_2  and  N_12
REMARK    4  A    between atoms: N_6  and  C_7
REMARK    5  A    between atoms: C_7  and  C_8
REMARK    6  A    between atoms: C_7  and  C_9
REMARK    7  A    between atoms: C_7  and  C_10
REMARK    8  A    between atoms: C_10  and  O_11
REMARK    9  A    between atoms: C_13  and  C_15
REMARK                            x       y       z     vdW  Elec       q    Type
REMARK                         _______ _______ _______ _____ _____    ______ ____
ROOT
ATOM      1  N   UNL     1      -2.112   5.794  -0.958  0.00  0.00    -0.304 N 
ATOM      2  C   UNL     1      -1.510   5.123   0.044  0.00  0.00    +0.220 C 
ATOM      3  O   UNL     1      -0.985   5.731   0.952  0.00  0.00    -0.275 OA
ATOM      4  H   UNL     1      -2.533   5.307  -1.684  0.00  0.00    +0.149 HD
ENDROOT
BRANCH   2   5
ATOM      5  C   UNL     1      -1.490   3.616   0.036  0.00  0.00    +0.048 C 
ATOM      6  C   UNL     1      -0.773   3.123  -1.223  0.00  0.00    +0.019 C 
ATOM      7  C   UNL     1      -0.753   1.593  -1.232  0.00  0.00    -0.009 C 
ATOM      8  C   UNL     1      -0.013   1.086   0.008  0.00  0.00    +0.007 C 
ATOM      9  C   UNL     1      -0.729   1.579   1.267  0.00  0.00    -0.009 C 
ATOM     10  C   UNL     1      -0.750   3.109   1.275  0.00  0.00    +0.019 C 
ATOM     11  C   UNL     1      -2.164   1.050   1.278  0.00  0.00    +0.007 C 
ATOM     12  C   UNL     1      -2.904   1.556   0.038  0.00  0.00    -0.009 C 
ATOM     13  C   UNL     1      -2.188   1.063  -1.221  0.00  0.00    +0.007 C 
ATOM     14  C   UNL     1      -2.925   3.086   0.047  0.00  0.00    +0.019 C 
ENDBRANCH   2   5
BRANCH   1  16
ATOM     15  C   UNL     1      -3.313   7.748  -0.108  0.00  0.00    +0.038 C 
ATOM     16  C   UNL     1      -2.132   7.259  -0.950  0.00  0.00    +0.156 C 
BRANCH  16  17
ATOM     17  C   UNL     1      -2.276   7.767  -2.361  0.00  0.00    +0.234 C 
ATOM     18  O   UNL     1      -2.355   6.983  -3.283  0.00  0.00    -0.274 OA
ATOM     19  N   UNL     1      -2.318   9.093  -2.599  0.00  0.00    -0.307 N 
ATOM     20  H   UNL     1      -2.255   9.720  -1.861  0.00  0.00    +0.149 HD
BRANCH  19  21
ATOM     21  C   UNL     1      -2.458   9.587  -3.971  0.00  0.00    +0.052 C 
ATOM     22  C   UNL     1      -1.278   9.098  -4.812  0.00  0.00    +0.033 C 
ATOM     23  C   UNL     1      -3.764   9.063  -4.571  0.00  0.00    +0.033 C 
BRANCH  21  24
ATOM     24  C   UNL     1      -2.479  11.117  -3.962  0.00  0.00    +0.181 C 
BRANCH  24  25
ATOM     25  O   UNL     1      -2.616  11.599  -5.301  0.00  0.00    -0.393 OA
ATOM     26  H   UNL     1      -2.636  12.563  -5.371  0.00  0.00    +0.209 HD
ENDBRANCH  24  25
ENDBRANCH  21  24
ENDBRANCH  19  21
ENDBRANCH  16  17
ENDBRANCH   1  16
TORSDOF 6
