REMARK  Name = ZINC36318126
REMARK  7 active torsions:
REMARK  status: ('A' for Active; 'I' for Inactive)
REMARK    1  A    between atoms: C_1  and  O_2
REMARK    2  A    between atoms: O_2  and  C_3
REMARK    3  A    between atoms: C_6  and  C_11
REMARK    4  A    between atoms: C_8  and  O_9
REMARK    5  A    between atoms: O_9  and  C_10
REMARK    6  A    between atoms: C_12  and  C_22
REMARK    7  A    between atoms: C_22  and  N_23
REMARK                            x       y       z     vdW  Elec       q    Type
REMARK                         _______ _______ _______ _____ _____    ______ ____
ROOT
ATOM      1  C   UNL     1      -4.966  -2.624   0.046  0.00  0.00    +0.091 A 
ATOM      2  C   UNL     1      -6.065  -2.236   0.753  0.00  0.00    +0.034 A 
ATOM      3  N   UNL     1      -7.060  -3.129   0.470  0.00  0.00    -0.302 N 
ATOM      4  C   UNL     1      -8.356  -3.226   0.891  0.00  0.00    +0.113 A 
ATOM      5  C   UNL     1      -9.149  -4.227   0.451  0.00  0.00    +0.059 A 
ATOM      6  C   UNL     1      -8.650  -5.184  -0.448  0.00  0.00    +0.045 A 
ATOM      7  C   UNL     1      -7.361  -5.099  -0.876  0.00  0.00    +0.085 A 
ATOM      8  C   UNL     1      -6.545  -4.047  -0.407  0.00  0.00    +0.157 A 
ATOM      9  N   UNL     1      -5.284  -3.724  -0.655  0.00  0.00    -0.226 NA
ATOM     10 CL   UNL     1      -6.726  -6.273  -1.986  0.00  0.00    -0.080 Cl
ATOM     11 CL   UNL     1     -10.793  -4.331   1.000  0.00  0.00    -0.082 Cl
ENDROOT
BRANCH   1  15
ATOM     12  C   UNL     1      -1.185  -0.668   0.051  0.00  0.00    +0.162 A 
ATOM     13  C   UNL     1      -2.352   0.077  -0.029  0.00  0.00    +0.050 A 
ATOM     14  C   UNL     1      -3.579  -0.555  -0.031  0.00  0.00    +0.014 A 
ATOM     15  C   UNL     1      -3.647  -1.944   0.047  0.00  0.00    +0.006 A 
ATOM     16  C   UNL     1      -2.476  -2.694   0.127  0.00  0.00    +0.059 A 
ATOM     17  C   UNL     1      -1.248  -2.057   0.123  0.00  0.00    +0.162 A 
BRANCH  12  19
ATOM     18  C   UNL     1       0.013   1.385  -0.024  0.00  0.00    +0.277 C 
ATOM     19  O   UNL     1       0.022  -0.042   0.052  0.00  0.00    -0.491 OA
ENDBRANCH  12  19
BRANCH  17  20
ATOM     20  O   UNL     1      -0.102  -2.787   0.195  0.00  0.00    -0.491 OA
ATOM     21  C   UNL     1      -0.242  -4.207   0.267  0.00  0.00    +0.277 C 
ENDBRANCH  17  20
ENDBRANCH   1  15
BRANCH   2  22
ATOM     22  C   UNL     1      -6.164  -1.046   1.673  0.00  0.00    -0.029 C 
BRANCH  22  23
ATOM     23  N   UNL     1      -5.663  -1.414   3.004  0.00  0.00    +0.382 N 
ATOM     24  H   UNL     1      -5.729  -0.618   3.620  0.00  0.00    -0.090 HD
ATOM     25  H   UNL     1      -6.217  -2.172   3.374  0.00  0.00    -0.090 HD
ATOM     26  H   UNL     1      -4.700  -1.705   2.933  0.00  0.00    -0.090 HD
ENDBRANCH  22  23
ENDBRANCH   2  22
TORSDOF 5
