REMARK  Name = ZINC49132608
REMARK  11 active torsions:
REMARK  status: ('A' for Active; 'I' for Inactive)
REMARK    1  A    between atoms: C_1  and  C_2
REMARK    2  A    between atoms: C_2  and  N_3
REMARK    3  A    between atoms: N_3  and  C_4
REMARK    4  A    between atoms: N_3  and  C_6
REMARK    5  A    between atoms: C_4  and  C_5
REMARK    6  A    between atoms: C_6  and  C_7
REMARK    7  A    between atoms: C_6  and  C_8
REMARK    8  A    between atoms: C_8  and  N_9
REMARK    9  A    between atoms: N_12  and  C_13
REMARK   10  A    between atoms: C_13  and  C_14
REMARK   11  A    between atoms: C_17  and  N_20
REMARK                            x       y       z     vdW  Elec       q    Type
REMARK                         _______ _______ _______ _____ _____    ______ ____
ROOT
ATOM      1  N   UNL     1       0.722  -1.845   3.599  0.00  0.00    -0.301 N 
ATOM      2  C   UNL     1       1.146  -2.128   4.846  0.00  0.00    +0.300 C 
ATOM      3  O   UNL     1       2.191  -2.726   5.013  0.00  0.00    -0.253 OA
ATOM      4  N   UNL     1       0.411  -1.747   5.910  0.00  0.00    -0.295 N 
ATOM      5  H   UNL     1      -0.112  -1.368   3.466  0.00  0.00    +0.150 HD
ATOM      6  H   UNL     1      -0.423  -1.270   5.777  0.00  0.00    +0.151 HD
ENDROOT
BRANCH   1   7
ATOM      7  C   UNL     1       1.521  -2.259   2.442  0.00  0.00    +0.090 C 
BRANCH   7   8
ATOM      8  C   UNL     1       0.891  -1.706   1.163  0.00  0.00    -0.054 C 
ATOM      9  C   UNL     1       1.775  -2.060  -0.035  0.00  0.00    -0.012 C 
BRANCH   8  10
ATOM     10  N   UNL     1       0.770  -0.245   1.268  0.00  0.00    +0.382 N 
ATOM     11  H   UNL     1       0.245  -0.010   2.096  0.00  0.00    -0.081 HD
BRANCH  10  13
ATOM     12  C   UNL     1       1.983   1.858   1.587  0.00  0.00    -0.017 C 
ATOM     13  C   UNL     1       2.110   0.351   1.352  0.00  0.00    -0.082 C 
ENDBRANCH  10  13
BRANCH  10  14
ATOM     14  C   UNL     1       0.076   0.275   0.083  0.00  0.00    -0.082 C 
ATOM     15  C   UNL     1      -1.368  -0.231   0.074  0.00  0.00    -0.017 C 
ENDBRANCH  10  14
ENDBRANCH   8  10
ENDBRANCH   7   8
ENDBRANCH   1   7
BRANCH   4  16
ATOM     16  C   UNL     1       0.871  -2.054   7.266  0.00  0.00    +0.141 C 
BRANCH  16  17
ATOM     17  C   UNL     1      -0.124  -1.524   8.267  0.00  0.00    -0.030 A 
ATOM     18  C   UNL     1       0.009  -0.237   8.756  0.00  0.00    +0.007 A 
ATOM     19  C   UNL     1      -0.901   0.251   9.672  0.00  0.00    +0.023 A 
ATOM     20  C   UNL     1      -1.950  -0.551  10.103  0.00  0.00    +0.030 A 
ATOM     21  C   UNL     1      -2.080  -1.843   9.610  0.00  0.00    +0.023 A 
ATOM     22  C   UNL     1      -1.170  -2.324   8.689  0.00  0.00    +0.007 A 
BRANCH  20  23
ATOM     23  N   UNL     1      -2.872  -0.060  11.031  0.00  0.00    -0.320 N 
ATOM     24  C   UNL     1      -3.918  -0.925  11.603  0.00  0.00    +0.124 C 
ATOM     25  C   UNL     1      -3.705  -0.993  13.117  0.00  0.00    +0.123 C 
ATOM     26  N   UNL     1      -3.481   0.337  13.667  0.00  0.00    -0.313 N 
ATOM     27  C   UNL     1      -3.054   1.386  12.963  0.00  0.00    +0.230 C 
ATOM     28  O   UNL     1      -2.828   2.423  13.550  0.00  0.00    -0.274 OA
ATOM     29  C   UNL     1      -2.834   1.340  11.480  0.00  0.00    +0.200 C 
ATOM     30  H   UNL     1      -3.655   0.469  14.613  0.00  0.00    +0.149 HD
ENDBRANCH  20  23
ENDBRANCH  16  17
ENDBRANCH   4  16
TORSDOF 8
