REMARK  Name = ZINC09356674
REMARK  6 active torsions:
REMARK  status: ('A' for Active; 'I' for Inactive)
REMARK    1  A    between atoms: C_1  and  C_2
REMARK    2  A    between atoms: C_5  and  N_9
REMARK    3  A    between atoms: C_7  and  C_8
REMARK    4  A    between atoms: C_13  and  N_14
REMARK    5  A    between atoms: N_14  and  C_15
REMARK    6  A    between atoms: C_20  and  N_21
REMARK                            x       y       z     vdW  Elec       q    Type
REMARK                         _______ _______ _______ _____ _____    ______ ____
ROOT
ATOM      1  N   UNL     1       0.021  -4.175  -0.015  0.00  0.00    -0.190 N 
ATOM      2  C   UNL     1      -0.085  -4.828  -1.190  0.00  0.00    +0.265 C 
ATOM      3  O   UNL     1      -0.244  -4.219  -2.232  0.00  0.00    -0.269 OA
ATOM      4  C   UNL     1      -0.005  -6.299  -1.179  0.00  0.00    +0.113 C 
ATOM      5  C   UNL     1      -0.105  -7.037  -2.345  0.00  0.00    +0.090 C 
ATOM      6  C   UNL     1       0.188  -6.951   0.128  0.00  0.00    +0.258 C 
ATOM      7  N   UNL     1       0.278  -6.168   1.224  0.00  0.00    -0.235 N 
ATOM      8  C   UNL     1       0.201  -4.833   1.139  0.00  0.00    +0.320 C 
ATOM      9  O   UNL     1       0.295  -4.185   2.163  0.00  0.00    -0.251 OA
ATOM     10  O   UNL     1       0.264  -8.162   0.218  0.00  0.00    -0.270 OA
ATOM     11  H   UNL     1       0.406  -6.582   2.092  0.00  0.00    +0.159 HD
ENDROOT
BRANCH   1  16
ATOM     12  C   UNL     1      -0.275   1.492   0.042  0.00  0.00    +0.044 C 
ATOM     13  C   UNL     1      -0.196  -0.012   0.027  0.00  0.00    -0.047 A 
ATOM     14  C   UNL     1       0.933  -0.649   0.508  0.00  0.00    +0.005 A 
ATOM     15  C   UNL     1       1.008  -2.028   0.495  0.00  0.00    +0.024 A 
ATOM     16  C   UNL     1      -0.052  -2.775  -0.001  0.00  0.00    +0.046 A 
ATOM     17  C   UNL     1      -1.184  -2.133  -0.482  0.00  0.00    +0.027 A 
ATOM     18  C   UNL     1      -1.256  -0.754  -0.462  0.00  0.00    -0.046 A 
ATOM     19  C   UNL     1      -2.488  -0.056  -0.979  0.00  0.00    +0.044 C 
ENDBRANCH   1  16
BRANCH   5  20
ATOM     20  N   UNL     1      -0.184  -8.382  -2.288  0.00  0.00    -0.318 N 
ATOM     21  H   UNL     1      -0.249  -8.827  -1.429  0.00  0.00    +0.152 HD
BRANCH  20  22
ATOM     22  C   UNL     1      -0.171  -9.134  -3.468  0.00  0.00    +0.052 A 
ATOM     23  C   UNL     1      -0.072  -8.499  -4.697  0.00  0.00    +0.025 A 
ATOM     24  C   UNL     1      -0.059  -9.244  -5.861  0.00  0.00    +0.002 A 
ATOM     25  C   UNL     1      -0.144 -10.624  -5.805  0.00  0.00    +0.002 A 
ATOM     26  C   UNL     1      -0.244 -11.265  -4.585  0.00  0.00    +0.024 A 
ATOM     27  C   UNL     1      -0.252 -10.526  -3.411  0.00  0.00    +0.046 A 
BRANCH  27  28
ATOM     28  N   UNL     1      -0.346 -11.173  -2.175  0.00  0.00    -0.357 N 
ATOM     29  H   UNL     1      -0.356 -10.654  -1.355  0.00  0.00    +0.142 HD
ATOM     30  H   UNL     1      -0.402 -12.141  -2.137  0.00  0.00    +0.142 HD
ENDBRANCH  27  28
ENDBRANCH  20  22
ENDBRANCH   5  20
TORSDOF 4
