REMARK  Name = ZINC40291322
REMARK  6 active torsions:
REMARK  status: ('A' for Active; 'I' for Inactive)
REMARK    1  A    between atoms: C_1  and  C_2
REMARK    2  A    between atoms: C_4  and  C_18
REMARK    3  A    between atoms: C_8  and  C_15
REMARK    4  A    between atoms: C_9  and  C_14
REMARK    5  A    between atoms: C_10  and  C_13
REMARK    6  A    between atoms: C_15  and  N_17
REMARK                            x       y       z     vdW  Elec       q    Type
REMARK                         _______ _______ _______ _____ _____    ______ ____
ROOT
ATOM      1  C   UNL     1       0.035   1.458  -0.108  0.00  0.00    +0.067 C 
ATOM      2  C   UNL     1       0.046  -0.049  -0.086  0.00  0.00    +0.061 A 
ATOM      3  C   UNL     1       0.053  -0.884  -1.209  0.00  0.00    +0.048 A 
ATOM      4  C   UNL     1       0.063  -2.165  -0.776  0.00  0.00    +0.044 A 
ATOM      5  N   UNL     1       0.062  -2.140   0.583  0.00  0.00    -0.216 N 
ATOM      6  N   UNL     1       0.057  -0.798   0.986  0.00  0.00    -0.170 NA
ATOM      7  C   UNL     1       0.071  -3.250   1.426  0.00  0.00    +0.186 A 
ATOM      8  C   UNL     1       0.172  -3.083   2.818  0.00  0.00    +0.053 A 
ATOM      9  C   UNL     1       0.175  -4.236   3.613  0.00  0.00    -0.015 A 
ATOM     10  C   UNL     1       0.078  -5.462   2.975  0.00  0.00    +0.064 A 
ATOM     11  N   UNL     1      -0.013  -5.519   1.661  0.00  0.00    -0.152 NA
ATOM     12  N   UNL     1      -0.022  -4.471   0.921  0.00  0.00    -0.129 NA
ATOM     13  C   UNL     1       0.077  -6.733   3.785  0.00  0.00    +0.068 C 
ATOM     14  C   UNL     1       0.280  -4.146   5.114  0.00  0.00    +0.046 C 
ATOM     15  C   UNL     1       0.073  -3.398  -1.643  0.00  0.00    +0.066 C 
ENDROOT
BRANCH   8  16
ATOM     16  C   UNL     1       0.272  -1.739   3.421  0.00  0.00    +0.081 C 
ATOM     17  S   UNL     1      -1.137  -0.946   3.985  0.00  0.00    -0.035 S 
BRANCH  16  18
ATOM     18  N   UNL     1       1.473  -1.135   3.527  0.00  0.00    -0.352 N 
ATOM     19  H   UNL     1       2.279  -1.612   3.275  0.00  0.00    +0.143 HD
ATOM     20  H   UNL     1       1.530  -0.225   3.855  0.00  0.00    +0.143 HD
ENDBRANCH  16  18
ENDBRANCH   8  16
TORSDOF 2
