REMARK  Name = ZINC43883647
REMARK  6 active torsions:
REMARK  status: ('A' for Active; 'I' for Inactive)
REMARK    1  A    between atoms: C_1  and  N_2
REMARK    2  A    between atoms: N_2  and  C_3
REMARK    3  A    between atoms: C_7  and  C_19
REMARK    4  A    between atoms: C_10  and  N_12
REMARK    5  A    between atoms: N_12  and  C_13
REMARK    6  A    between atoms: N_12  and  C_14
REMARK                            x       y       z     vdW  Elec       q    Type
REMARK                         _______ _______ _______ _____ _____    ______ ____
ROOT
ATOM      1  C   UNL     1       0.832  -0.589  -1.023  0.00  0.00    -0.086 C 
ATOM      2  C   UNL     1       2.301  -0.168  -0.955  0.00  0.00    -0.017 C 
ATOM      3  C   UNL     1       3.023  -0.626  -2.223  0.00  0.00    +0.006 C 
ATOM      4  C   UNL     1       2.934  -2.150  -2.338  0.00  0.00    +0.017 C 
ATOM      5  C   UNL     1       1.465  -2.571  -2.407  0.00  0.00    -0.009 C 
ATOM      6  C   UNL     1       0.743  -2.112  -1.139  0.00  0.00    -0.083 C 
ENDROOT
BRANCH   4   7
ATOM      7  C   UNL     1       3.645  -2.602  -3.587  0.00  0.00    -0.044 A 
ATOM      8  C   UNL     1       3.229  -2.144  -4.824  0.00  0.00    +0.004 A 
ATOM      9  C   UNL     1       3.882  -2.558  -5.970  0.00  0.00    +0.000 A 
ATOM     10  C   UNL     1       4.950  -3.430  -5.880  0.00  0.00    +0.000 A 
ATOM     11  C   UNL     1       5.367  -3.887  -4.644  0.00  0.00    +0.000 A 
ATOM     12  C   UNL     1       4.718  -3.470  -3.497  0.00  0.00    +0.004 A 
ENDBRANCH   4   7
BRANCH   1  14
ATOM     13  C   UNL     1       0.098   1.320   0.231  0.00  0.00    -0.100 C 
ATOM     14  N   UNL     1       0.139  -0.148   0.195  0.00  0.00    +0.378 N 
ATOM     15  H   UNL     1       0.632  -0.491   1.005  0.00  0.00    -0.086 HD
ATOM     16  H   UNL     1      -0.802  -0.511   0.196  0.00  0.00    -0.086 HD
ENDBRANCH   1  14
BRANCH   6  17
ATOM     17  N   UNL     1      -0.668  -2.516  -1.205  0.00  0.00    +0.381 N 
ATOM     18  C   UNL     1      -0.767  -3.974  -1.050  0.00  0.00    -0.095 C 
ATOM     19  H   UNL     1      -1.183  -2.063  -0.464  0.00  0.00    -0.082 HD
BRANCH  17  20
ATOM     20  C   UNL     1      -1.230  -2.122  -2.504  0.00  0.00    -0.069 C 
ATOM     21  C   UNL     1      -1.368  -0.588  -2.576  0.00  0.00    -0.015 C 
ATOM     22  C   UNL     1      -2.687  -0.362  -3.357  0.00  0.00    -0.002 C 
ATOM     23  C   UNL     1      -3.598  -1.496  -2.825  0.00  0.00    -0.002 C 
ATOM     24  C   UNL     1      -2.647  -2.700  -2.662  0.00  0.00    -0.015 C 
ENDBRANCH  17  20
ENDBRANCH   6  17
TORSDOF 4
