REMARK  Name = ZINC59982386
REMARK  9 active torsions:
REMARK  status: ('A' for Active; 'I' for Inactive)
REMARK    1  A    between atoms: C_1  and  C_2
REMARK    2  A    between atoms: C_5  and  C_27
REMARK    3  A    between atoms: N_8  and  C_10
REMARK    4  A    between atoms: C_10  and  C_11
REMARK    5  A    between atoms: C_10  and  C_12
REMARK    6  A    between atoms: C_10  and  C_13
REMARK    7  A    between atoms: C_13  and  N_14
REMARK    8  A    between atoms: C_15  and  C_17
REMARK    9  A    between atoms: C_17  and  N_18
REMARK                            x       y       z     vdW  Elec       q    Type
REMARK                         _______ _______ _______ _____ _____    ______ ____
ROOT
ATOM      1  N   UNL     1       3.474  -2.390   0.904  0.00  0.00    -0.315 N 
ATOM      2  C   UNL     1       4.768  -2.196   0.578  0.00  0.00    +0.233 C 
ATOM      3  O   UNL     1       5.533  -1.722   1.391  0.00  0.00    -0.274 OA
ATOM      4  H   UNL     1       2.862  -2.769   0.254  0.00  0.00    +0.149 HD
ENDROOT
BRANCH   1   5
ATOM      5  C   UNL     1       2.993  -2.028   2.239  0.00  0.00    +0.092 C 
BRANCH   5   6
ATOM      6  C   UNL     1       1.478  -2.227   2.306  0.00  0.00    -0.055 C 
ATOM      7  C   UNL     1       0.963  -1.768   3.672  0.00  0.00    -0.008 C 
ATOM      8  C   UNL     1       1.148  -3.708   2.108  0.00  0.00    -0.008 C 
BRANCH   6  14
ATOM      9  C   UNL     1       0.932   2.275   0.460  0.00  0.00    +0.005 C 
ATOM     10  C   UNL     1       0.574   0.798   0.277  0.00  0.00    -0.031 C 
ATOM     11  C   UNL     1      -0.949   0.636   0.287  0.00  0.00    +0.003 C 
ATOM     12  C   UNL     1      -1.294  -0.852   0.182  0.00  0.00    -0.031 C 
ATOM     13  C   UNL     1      -0.623  -1.609   1.330  0.00  0.00    -0.075 C 
ATOM     14  N   UNL     1       0.833  -1.436   1.250  0.00  0.00    +0.384 N 
ATOM     15  C   UNL     1       1.177  -0.019   1.421  0.00  0.00    -0.075 C 
ATOM     16  C   UNL     1      -2.811  -1.032   0.269  0.00  0.00    +0.005 C 
ATOM     17  H   UNL     1       1.159  -1.753   0.349  0.00  0.00    -0.081 HD
ENDBRANCH   6  14
ENDBRANCH   5   6
ENDBRANCH   1   5
BRANCH   2  18
ATOM     18  C   UNL     1       5.263  -2.568  -0.796  0.00  0.00    +0.221 C 
BRANCH  18  19
ATOM     19  N   UNL     1       6.692  -2.262  -0.899  0.00  0.00    -0.292 N 
ATOM     20  C   UNL     1       7.091  -1.027  -1.332  0.00  0.00    +0.096 A 
ATOM     21  C   UNL     1       8.408  -0.745  -1.427  0.00  0.00    +0.088 A 
ATOM     22  C   UNL     1       9.352  -1.739  -1.075  0.00  0.00    +0.254 A 
ATOM     23  O   UNL     1      10.546  -1.508  -1.152  0.00  0.00    -0.268 OA
ATOM     24  N   UNL     1       8.918  -2.944  -0.653  0.00  0.00    -0.275 N 
ATOM     25  H   UNL     1       9.559  -3.630  -0.410  0.00  0.00    +0.173 HD
ATOM     26  C   UNL     1       7.599  -3.196  -0.563  0.00  0.00    +0.330 A 
ATOM     27  O   UNL     1       7.223  -4.286  -0.176  0.00  0.00    -0.246 OA
ENDBRANCH  18  19
ENDBRANCH   2  18
TORSDOF 5
