REMARK  Name = ZINC67236000
REMARK  8 active torsions:
REMARK  status: ('A' for Active; 'I' for Inactive)
REMARK    1  A    between atoms: C_1  and  C_2
REMARK    2  A    between atoms: C_2  and  C_19
REMARK    3  A    between atoms: C_3  and  C_4
REMARK    4  A    between atoms: N_6  and  N_7
REMARK    5  A    between atoms: N_10  and  C_11
REMARK    6  A    between atoms: C_11  and  C_12
REMARK    7  A    between atoms: C_12  and  C_13
REMARK    8  A    between atoms: C_13  and  N_14
REMARK                            x       y       z     vdW  Elec       q    Type
REMARK                         _______ _______ _______ _____ _____    ______ ____
ROOT
ATOM      1  N   UNL     1       0.082  -4.229   2.314  0.00  0.00    -0.218 N 
ATOM      2  C   UNL     1       0.102  -4.909   3.478  0.00  0.00    +0.316 C 
ATOM      3  O   UNL     1       0.118  -6.125   3.471  0.00  0.00    -0.251 OA
ATOM      4  N   UNL     1       0.104  -4.241   4.648  0.00  0.00    -0.298 N 
ATOM      5  H   UNL     1       0.080  -4.709   1.471  0.00  0.00    +0.174 HD
ATOM      6  H   UNL     1       0.091  -3.272   4.654  0.00  0.00    +0.150 HD
ENDROOT
BRANCH   1   9
ATOM      7  C   UNL     1       0.042  -2.148   1.158  0.00  0.00    +0.253 C 
ATOM      8  O   UNL     1       0.040  -2.751   0.101  0.00  0.00    -0.269 OA
ATOM      9  N   UNL     1       0.062  -2.828   2.322  0.00  0.00    -0.230 N 
ATOM     10  H   UNL     1       0.064  -2.348   3.164  0.00  0.00    +0.173 HD
BRANCH   7  13
ATOM     11  C   UNL     1      -0.018   1.503   0.010  0.00  0.00    +0.044 C 
ATOM     12  C   UNL     1       0.002  -0.004   0.002  0.00  0.00    -0.038 C 
ATOM     13  C   UNL     1       0.022  -0.685   1.166  0.00  0.00    +0.072 C 
BRANCH  12  14
ATOM     14  C   UNL     1      -0.000  -0.733  -1.276  0.00  0.00    -0.022 A 
ATOM     15  C   UNL     1       1.101  -1.514  -1.641  0.00  0.00    +0.011 A 
ATOM     16  C   UNL     1       1.093  -2.194  -2.839  0.00  0.00    +0.039 A 
ATOM     17  C   UNL     1      -0.004  -2.105  -3.683  0.00  0.00    +0.123 A 
ATOM     18  C   UNL     1      -1.099  -1.331  -3.328  0.00  0.00    +0.039 A 
ATOM     19  C   UNL     1      -1.106  -0.651  -2.129  0.00  0.00    +0.011 A 
ATOM     20  F   UNL     1      -0.006  -2.774  -4.857  0.00  0.00    -0.205 F 
ENDBRANCH  12  14
ENDBRANCH   7  13
ENDBRANCH   1   9
BRANCH   4  21
ATOM     21  C   UNL     1       0.126  -4.981   5.913  0.00  0.00    +0.107 C 
BRANCH  21  22
ATOM     22  C   UNL     1       0.123  -3.993   7.081  0.00  0.00    +0.040 C 
BRANCH  22  23
ATOM     23  C   UNL     1       0.146  -4.765   8.402  0.00  0.00    +0.124 C 
BRANCH  23  24
ATOM     24  N   UNL     1       0.144  -3.819   9.521  0.00  0.00    -0.338 N 
ATOM     25  C   UNL     1       1.244  -3.275  10.127  0.00  0.00    +0.104 A 
ATOM     26  C   UNL     1       0.791  -2.463  11.101  0.00  0.00    +0.101 A 
ATOM     27  N   UNL     1      -0.549  -2.510  11.090  0.00  0.00    -0.352 N 
ATOM     28  C   UNL     1      -0.944  -3.316  10.143  0.00  0.00    +0.173 A 
ATOM     29  H   UNL     1      -1.133  -2.019  11.689  0.00  0.00    +0.166 HD
ENDBRANCH  23  24
ENDBRANCH  22  23
ENDBRANCH  21  22
ENDBRANCH   4  21
TORSDOF 7
