REMARK  Name = ZINC08992520
REMARK  9 active torsions:
REMARK  status: ('A' for Active; 'I' for Inactive)
REMARK    1  A    between atoms: C_1  and  C_2
REMARK    2  A    between atoms: C_2  and  C_27
REMARK    3  A    between atoms: C_4  and  N_9
REMARK    4  A    between atoms: C_6  and  C_7
REMARK    5  A    between atoms: C_6  and  C_8
REMARK    6  A    between atoms: C_10  and  C_12
REMARK    7  A    between atoms: C_12  and  C_13
REMARK    8  A    between atoms: C_13  and  C_14
REMARK    9  A    between atoms: C_14  and  N_15
REMARK                            x       y       z     vdW  Elec       q    Type
REMARK                         _______ _______ _______ _____ _____    ______ ____
ROOT
ATOM      1  N   UNL     1       6.161   1.023  -0.051  0.00  0.00    -0.313 N 
ATOM      2  C   UNL     1       4.897   0.557  -0.042  0.00  0.00    +0.213 C 
ATOM      3  O   UNL     1       4.691  -0.639  -0.046  0.00  0.00    -0.276 OA
ATOM      4  H   UNL     1       6.325   1.979  -0.048  0.00  0.00    +0.149 HD
ENDROOT
BRANCH   1   8
ATOM      5  C   UNL     1       9.525  -1.220  -1.802  0.00  0.00    -0.010 C 
ATOM      6  C   UNL     1       9.705  -0.175  -0.694  0.00  0.00    -0.072 C 
ATOM      7  C   UNL     1       8.508   0.771  -0.685  0.00  0.00    +0.009 C 
ATOM      8  C   UNL     1       7.290   0.084  -0.067  0.00  0.00    +0.070 C 
ATOM      9  C   UNL     1       7.633  -0.314   1.368  0.00  0.00    +0.009 C 
ATOM     10  C   UNL     1       8.819  -1.276   1.383  0.00  0.00    -0.072 C 
ATOM     11  C   UNL     1       8.358  -2.665   0.926  0.00  0.00    -0.010 C 
ATOM     12  C   UNL     1       9.292  -1.409   2.848  0.00  0.00    -0.010 C 
ATOM     13  C   UNL     1      10.955   0.659  -1.051  0.00  0.00    -0.010 C 
ATOM     14  N   UNL     1      10.007  -0.816   0.615  0.00  0.00    +0.386 N 
ATOM     15  H   UNL     1      10.516  -0.136   1.192  0.00  0.00    -0.084 HD
ATOM     16  H   UNL     1      10.607  -1.631   0.438  0.00  0.00    -0.084 HD
ENDBRANCH   1   8
BRANCH   2  17
ATOM     17  C   UNL     1       3.738   1.520  -0.025  0.00  0.00    +0.097 C 
BRANCH  17  18
ATOM     18  C   UNL     1       2.424   0.737  -0.017  0.00  0.00    +0.028 C 
BRANCH  18  19
ATOM     19  C   UNL     1       1.248   1.716  -0.001  0.00  0.00    +0.103 C 
BRANCH  19  20
ATOM     20  N   UNL     1      -0.011   0.966   0.007  0.00  0.00    -0.327 N 
ATOM     21  C   UNL     1      -1.219   1.641   0.017  0.00  0.00    +0.151 A 
ATOM     22  C   UNL     1      -2.436   0.938   0.019  0.00  0.00    +0.147 A 
ATOM     23  C   UNL     1      -3.630   1.678   0.029  0.00  0.00    +0.164 A 
ATOM     24  N   UNL     1      -4.646   0.757   0.028  0.00  0.00    -0.329 N 
ATOM     25  H   UNL     1      -5.626   0.956   0.034  0.00  0.00    +0.168 HD
ATOM     26  C   UNL     1      -4.075  -0.481   0.017  0.00  0.00    +0.198 A 
ATOM     27  N   UNL     1      -2.778  -0.373   0.012  0.00  0.00    -0.231 NA
ATOM     28  N   UNL     1      -3.567   3.006   0.037  0.00  0.00    -0.198 NA
ATOM     29  C   UNL     1      -2.403   3.623   0.035  0.00  0.00    +0.226 A 
ATOM     30  N   UNL     1      -1.254   2.970   0.030  0.00  0.00    -0.200 NA
ATOM     31 CL   UNL     1      -2.377   5.359   0.046  0.00  0.00    -0.041 Cl
ATOM     32  H   UNL     1      -0.062   0.391  -0.809  0.00  0.00    +0.148 HD
ENDBRANCH  19  20
ENDBRANCH  18  19
ENDBRANCH  17  18
ENDBRANCH   2  17
TORSDOF 5
