REMARK  Name = ZINC63281449
REMARK  9 active torsions:
REMARK  status: ('A' for Active; 'I' for Inactive)
REMARK    1  A    between atoms: C_1  and  C_2
REMARK    2  A    between atoms: C_2  and  C_4
REMARK    3  A    between atoms: C_2  and  N_17
REMARK    4  A    between atoms: N_6  and  C_7
REMARK    5  A    between atoms: C_18  and  C_20
REMARK    6  A    between atoms: C_25  and  O_32
REMARK    7  A    between atoms: C_26  and  O_30
REMARK    8  A    between atoms: O_30  and  C_31
REMARK    9  A    between atoms: O_32  and  C_33
REMARK                            x       y       z     vdW  Elec       q    Type
REMARK                         _______ _______ _______ _____ _____    ______ ____
ROOT
ATOM      1  N   UNL     1      -1.372  -0.511   0.012  0.00  0.00    -0.302 N 
ATOM      2  C   UNL     1      -2.051  -0.643  -1.145  0.00  0.00    +0.240 C 
ATOM      3  O   UNL     1      -1.524  -0.341  -2.194  0.00  0.00    -0.273 OA
ATOM      4  H   UNL     1      -1.794  -0.752   0.852  0.00  0.00    +0.150 HD
ENDROOT
BRANCH   2   5
ATOM      5  C   UNL     1      -3.465  -1.164  -1.134  0.00  0.00    +0.190 C 
ATOM      6  C   UNL     1      -4.360  -0.227  -0.356  0.00  0.00    +0.016 C 
ATOM      7  C   UNL     1      -5.298   0.208  -1.228  0.00  0.00    +0.000 A 
ATOM      8  C   UNL     1      -6.433   1.126  -1.073  0.00  0.00    +0.059 A 
ATOM      9  C   UNL     1      -7.225   1.385  -2.141  0.00  0.00    +0.162 A 
ATOM     10  C   UNL     1      -6.963   0.766  -3.434  0.00  0.00    +0.163 A 
ATOM     11  C   UNL     1      -5.926  -0.088  -3.622  0.00  0.00    +0.075 A 
ATOM     12  C   UNL     1      -5.053  -0.408  -2.551  0.00  0.00    +0.047 A 
ATOM     13  N   UNL     1      -4.002  -1.197  -2.498  0.00  0.00    -0.370 N 
ATOM     14  H   UNL     1      -3.642  -1.713  -3.237  0.00  0.00    +0.161 HD
BRANCH  10  15
ATOM     15  O   UNL     1      -7.780   1.051  -4.479  0.00  0.00    -0.491 OA
ATOM     16  C   UNL     1      -7.483   0.419  -5.726  0.00  0.00    +0.277 C 
ENDBRANCH  10  15
BRANCH   9  17
ATOM     17  O   UNL     1      -8.278   2.233  -2.004  0.00  0.00    -0.491 OA
ATOM     18  C   UNL     1      -8.484   2.809  -0.713  0.00  0.00    +0.277 C 
ENDBRANCH   9  17
ENDBRANCH   2   5
BRANCH   1  20
ATOM     19  C   UNL     1      -0.019   1.526   0.010  0.00  0.00    +0.038 C 
ATOM     20  C   UNL     1       0.002  -0.004   0.002  0.00  0.00    +0.156 C 
BRANCH  20  21
ATOM     21  C   UNL     1       0.731  -0.503   1.223  0.00  0.00    +0.235 C 
ATOM     22  O   UNL     1       0.159  -1.213   2.023  0.00  0.00    -0.274 OA
ATOM     23  N   UNL     1       2.019  -0.161   1.426  0.00  0.00    -0.287 N 
ATOM     24  H   UNL     1       2.476   0.406   0.786  0.00  0.00    +0.151 HD
BRANCH  23  25
ATOM     25  C   UNL     1       2.727  -0.647   2.613  0.00  0.00    +0.224 C 
ATOM     26  N   UNL     1       4.171  -0.395   2.506  0.00  0.00    -0.316 N 
ATOM     27  C   UNL     1       4.750   0.444   3.457  0.00  0.00    +0.043 A 
ATOM     28  C   UNL     1       6.110   0.798   3.515  0.00  0.00    +0.024 A 
ATOM     29  C   UNL     1       6.586   1.636   4.497  0.00  0.00    +0.002 A 
ATOM     30  C   UNL     1       5.744   2.159   5.461  0.00  0.00    +0.001 A 
ATOM     31  C   UNL     1       4.399   1.827   5.428  0.00  0.00    +0.016 A 
ATOM     32  C   UNL     1       3.924   0.988   4.445  0.00  0.00    +0.032 A 
ATOM     33  S   UNL     1       2.299   0.354   4.093  0.00  0.00    -0.082 S 
ATOM     34  H   UNL     1       4.701  -0.797   1.801  0.00  0.00    +0.149 HD
ENDBRANCH  23  25
ENDBRANCH  20  21
ENDBRANCH   1  20
TORSDOF 6
