REMARK  Name = ZINC24804461
REMARK  11 active torsions:
REMARK  status: ('A' for Active; 'I' for Inactive)
REMARK    1  A    between atoms: C_1  and  C_2
REMARK    2  A    between atoms: C_4  and  C_14
REMARK    3  A    between atoms: C_5  and  C_13
REMARK    4  A    between atoms: C_9  and  C_12
REMARK    5  A    between atoms: C_14  and  C_16
REMARK    6  A    between atoms: C_16  and  N_17
REMARK    7  A    between atoms: N_17  and  C_18
REMARK    8  A    between atoms: N_17  and  C_19
REMARK    9  A    between atoms: C_19  and  C_20
REMARK   10  A    between atoms: N_22  and  C_23
REMARK   11  A    between atoms: C_28  and  C_29
REMARK                            x       y       z     vdW  Elec       q    Type
REMARK                         _______ _______ _______ _____ _____    ______ ____
ROOT
ATOM      1  N   UNL     1      -5.961  -0.986  -0.025  0.00  0.00    +0.388 N 
ATOM      2  C   UNL     1      -5.844  -1.886  -1.180  0.00  0.00    -0.095 C 
ATOM      3  H   UNL     1      -5.885  -1.595   0.887  0.00  0.00    -0.081 HD
ENDROOT
BRANCH   1   4
ATOM      4  C   UNL     1      -7.267  -0.314  -0.012  0.00  0.00    +0.002 C 
BRANCH   4   5
ATOM      5  C   UNL     1      -8.354  -1.333   0.216  0.00  0.00    +0.149 C 
ATOM      6  O   UNL     1      -8.069  -2.504   0.353  0.00  0.00    -0.294 OA
BRANCH   5  10
ATOM      7  C   UNL     1     -12.567   1.534   0.162  0.00  0.00    +0.064 C 
ATOM      8  C   UNL     1     -11.607   0.375   0.244  0.00  0.00    +0.023 A 
ATOM      9  C   UNL     1     -10.272   0.460   0.131  0.00  0.00    +0.034 A 
ATOM     10  C   UNL     1      -9.755  -0.909   0.271  0.00  0.00    +0.037 A 
ATOM     11  C   UNL     1     -10.861  -1.714   0.470  0.00  0.00    +0.033 A 
ATOM     12  N   UNL     1     -11.958  -0.931   0.451  0.00  0.00    -0.299 N 
ATOM     13  C   UNL     1     -13.269  -1.389   0.620  0.00  0.00    +0.181 A 
ATOM     14  C   UNL     1     -14.264  -0.832   1.464  0.00  0.00    +0.094 A 
ATOM     15  C   UNL     1     -15.341  -1.628   1.269  0.00  0.00    +0.136 A 
ATOM     16  O   UNL     1     -14.971  -2.561   0.380  0.00  0.00    -0.358 OA
ATOM     17  N   UNL     1     -13.824  -2.413   0.027  0.00  0.00    -0.060 NA
ATOM     18  C   UNL     1     -16.691  -1.493   1.924  0.00  0.00    +0.089 C 
ATOM     19  C   UNL     1     -10.842  -3.207   0.673  0.00  0.00    +0.064 C 
ENDBRANCH   5  10
ENDBRANCH   4   5
ENDBRANCH   1   4
BRANCH   1  20
ATOM     20  C   UNL     1      -4.865  -0.008  -0.007  0.00  0.00    +0.019 C 
BRANCH  20  21
ATOM     21  C   UNL     1      -3.559  -0.721   0.226  0.00  0.00    +0.201 C 
ATOM     22  O   UNL     1      -3.542  -1.926   0.363  0.00  0.00    -0.278 OA
ATOM     23  N   UNL     1      -2.409  -0.020   0.282  0.00  0.00    -0.287 N 
ATOM     24  H   UNL     1      -2.432   1.078   0.235  0.00  0.00    +0.155 HD
BRANCH  23  25
ATOM     25  C   UNL     1      -1.186  -0.691   0.400  0.00  0.00    +0.045 A 
ATOM     26  C   UNL     1      -1.128  -1.927   1.029  0.00  0.00    +0.024 A 
ATOM     27  C   UNL     1       0.080  -2.586   1.143  0.00  0.00    +0.002 A 
ATOM     28  C   UNL     1       1.231  -2.016   0.631  0.00  0.00    +0.001 A 
ATOM     29  C   UNL     1       1.176  -0.788  -0.001  0.00  0.00    +0.014 A 
ATOM     30  C   UNL     1      -0.028  -0.121  -0.113  0.00  0.00    +0.076 A 
BRANCH  30  31
ATOM     31  C   UNL     1      -0.087   1.221  -0.797  0.00  0.00    +0.419 C 
ATOM     32  F   UNL     1       1.195   1.582  -1.226  0.00  0.00    -0.166 F 
ATOM     33  F   UNL     1      -0.943   1.144  -1.901  0.00  0.00    -0.166 F 
ATOM     34  F   UNL     1      -0.567   2.181   0.100  0.00  0.00    -0.166 F 
ENDBRANCH  30  31
ENDBRANCH  23  25
ENDBRANCH  20  21
ENDBRANCH   1  20
TORSDOF 7
