REMARK  Name = ZINC13372451
REMARK  5 active torsions:
REMARK  status: ('A' for Active; 'I' for Inactive)
REMARK    1  A    between atoms: C_1  and  C_2
REMARK    2  A    between atoms: C_5  and  O_34
REMARK    3  A    between atoms: C_18  and  C_33
REMARK    4  A    between atoms: C_23  and  N_25
REMARK    5  A    between atoms: C_26  and  C_27
REMARK                            x       y       z     vdW  Elec       q    Type
REMARK                         _______ _______ _______ _____ _____    ______ ____
ROOT
ATOM      1  C   UNL     1      -0.101   1.649   0.186  0.00  0.00    +0.012 C 
ATOM      2  C   UNL     1      -0.040   0.097   0.152  0.00  0.00    -0.026 C 
ATOM      3  C   UNL     1       0.771  -0.253  -1.098  0.00  0.00    +0.010 C 
ATOM      4  C   UNL     1       1.264  -1.691  -1.122  0.00  0.00    +0.032 C 
ATOM      5  C   UNL     1       2.032  -2.023   0.158  0.00  0.00    +0.115 C 
ATOM      6  C   UNL     1       1.099  -1.814   1.353  0.00  0.00    +0.035 C 
ATOM      7  C   UNL     1       0.677  -0.348   1.413  0.00  0.00    -0.002 C 
ATOM      8  C   UNL     1      -0.173  -0.120   2.664  0.00  0.00    +0.004 C 
ATOM      9  C   UNL     1      -1.493  -0.889   2.500  0.00  0.00    +0.004 C 
ATOM     10  C   UNL     1      -2.252  -0.274   1.335  0.00  0.00    -0.004 C 
ATOM     11  C   UNL     1      -1.470  -0.400   0.028  0.00  0.00    -0.001 C 
ATOM     12  C   UNL     1      -1.576  -1.777  -0.603  0.00  0.00    +0.005 C 
ATOM     13  C   UNL     1      -3.046  -2.191  -0.804  0.00  0.00    +0.009 C 
ATOM     14  C   UNL     1      -3.731  -2.191   0.542  0.00  0.00    -0.009 C 
ATOM     15  C   UNL     1      -3.650  -0.779   1.151  0.00  0.00    +0.000 C 
ATOM     16  C   UNL     1      -4.545  -0.920   2.389  0.00  0.00    +0.006 C 
ATOM     17  C   UNL     1      -5.751  -1.727   1.829  0.00  0.00    +0.025 C 
ATOM     18  C   UNL     1      -5.248  -2.436   0.543  0.00  0.00    +0.085 C 
ATOM     19  C   UNL     1      -3.118  -3.267   1.440  0.00  0.00    +0.013 C 
ENDROOT
BRANCH  18  20
ATOM     20  N   UNL     1      -5.879  -1.863  -0.642  0.00  0.00    -0.386 N 
ATOM     21  C   UNL     1      -6.523  -2.626  -1.464  0.00  0.00    +0.086 C 
ATOM     22  H   UNL     1      -5.815  -0.910  -0.813  0.00  0.00    +0.159 HD
BRANCH  21  23
ATOM     23  C   UNL     1      -7.161  -2.046  -2.662  0.00  0.00    -0.009 A 
ATOM     24  C   UNL     1      -7.066  -0.676  -2.914  0.00  0.00    +0.009 A 
ATOM     25  C   UNL     1      -7.665  -0.142  -4.036  0.00  0.00    +0.001 A 
ATOM     26  C   UNL     1      -8.358  -0.960  -4.911  0.00  0.00    +0.000 A 
ATOM     27  C   UNL     1      -8.457  -2.318  -4.667  0.00  0.00    +0.001 A 
ATOM     28  C   UNL     1      -7.857  -2.867  -3.552  0.00  0.00    +0.009 A 
ENDBRANCH  21  23
ENDBRANCH  18  20
BRANCH   5  29
ATOM     29  O   UNL     1       3.172  -1.174   0.276  0.00  0.00    -0.392 OA
ATOM     30  H   UNL     1       3.799  -1.253  -0.457  0.00  0.00    +0.210 HD
ENDBRANCH   5  29
TORSDOF 3
