REMARK  Name = ZINC51248780
REMARK  7 active torsions:
REMARK  status: ('A' for Active; 'I' for Inactive)
REMARK    1  A    between atoms: C_1  and  C_2
REMARK    2  A    between atoms: C_2  and  C_3
REMARK    3  A    between atoms: C_2  and  C_4
REMARK    4  A    between atoms: C_2  and  C_9
REMARK    5  A    between atoms: C_4  and  N_5
REMARK    6  A    between atoms: N_5  and  C_6
REMARK    7  A    between atoms: C_9  and  N_10
REMARK                            x       y       z     vdW  Elec       q    Type
REMARK                         _______ _______ _______ _____ _____    ______ ____
ROOT
ATOM      1  C   UNL     1       0.458  -0.553  -1.325  0.00  0.00    -0.074 C 
ENDROOT
BRANCH   1   2
ATOM      2  N   UNL     1       1.742   0.126  -1.546  0.00  0.00    +0.380 N 
ATOM      3  C   UNL     1       1.498   1.544  -1.837  0.00  0.00    -0.079 C 
ATOM      4  C   UNL     1       2.832   2.278  -1.999  0.00  0.00    -0.015 C 
ATOM      5  C   UNL     1       3.615   1.641  -3.149  0.00  0.00    -0.011 C 
ATOM      6  C   UNL     1       4.983   2.310  -3.288  0.00  0.00    +0.004 C 
ATOM      7  C   UNL     1       5.745   1.661  -4.446  0.00  0.00    +0.000 C 
ATOM      8  C   UNL     1       5.928   0.167  -4.171  0.00  0.00    +0.000 C 
ATOM      9  C   UNL     1       4.558  -0.500  -4.016  0.00  0.00    +0.002 C 
ATOM     10  C   UNL     1       3.809   0.150  -2.853  0.00  0.00    -0.025 C 
ATOM     11  C   UNL     1       2.441  -0.507  -2.671  0.00  0.00    -0.075 C 
ATOM     12  H   UNL     1       2.308   0.050  -0.714  0.00  0.00    -0.082 HD
ENDBRANCH   1   2
BRANCH   1  14
ATOM     13  C   UNL     1       1.295  -1.309   0.904  0.00  0.00    +0.007 C 
ATOM     14  C   UNL     1       0.672  -1.766  -0.417  0.00  0.00    -0.065 C 
ATOM     15  C   UNL     1       1.609  -2.760  -1.106  0.00  0.00    +0.007 C 
BRANCH  14  16
ATOM     16  C   UNL     1      -0.673  -2.440  -0.141  0.00  0.00    -0.078 C 
BRANCH  16  17
ATOM     17  N   UNL     1      -0.467  -3.604   0.732  0.00  0.00    +0.381 N 
ATOM     18  H   UNL     1       0.150  -4.260   0.277  0.00  0.00    -0.086 HD
ATOM     19  H   UNL     1      -0.057  -3.303   1.603  0.00  0.00    -0.086 HD
BRANCH  17  20
ATOM     20  C   UNL     1      -1.759  -4.252   0.997  0.00  0.00    -0.072 C 
ATOM     21  C   UNL     1      -2.256  -4.270   2.443  0.00  0.00    -0.017 C 
ATOM     22  C   UNL     1      -1.744  -5.557   1.794  0.00  0.00    -0.017 C 
ENDBRANCH  17  20
ENDBRANCH  16  17
ENDBRANCH  14  16
ENDBRANCH   1  14
TORSDOF 5
