REMARK  Name = ZINC49512445
REMARK  9 active torsions:
REMARK  status: ('A' for Active; 'I' for Inactive)
REMARK    1  A    between atoms: C_1  and  C_2
REMARK    2  A    between atoms: C_4  and  C_8
REMARK    3  A    between atoms: C_5  and  C_7
REMARK    4  A    between atoms: C_8  and  C_10
REMARK    5  A    between atoms: C_8  and  N_11
REMARK    6  A    between atoms: N_11  and  S_12
REMARK    7  A    between atoms: S_12  and  C_15
REMARK    8  A    between atoms: C_18  and  C_20
REMARK    9  A    between atoms: C_20  and  N_21
REMARK                            x       y       z     vdW  Elec       q    Type
REMARK                         _______ _______ _______ _____ _____    ______ ____
ROOT
ATOM      1  S   UNL     1      -4.224  -3.429   1.381  0.00  0.00    +0.065 S 
ATOM      2  O   UNL     1      -5.272  -2.527   1.712  0.00  0.00    -0.153 OA
ATOM      3  O   UNL     1      -4.459  -4.648   0.690  0.00  0.00    -0.153 OA
ENDROOT
BRANCH   1   4
ATOM      4  C   UNL     1      -3.426  -3.852   2.893  0.00  0.00    +0.143 A 
ATOM      5  C   UNL     1      -3.388  -3.163   4.060  0.00  0.00    +0.036 A 
ATOM      6  C   UNL     1      -2.692  -3.695   5.130  0.00  0.00    +0.011 A 
ATOM      7  C   UNL     1      -2.070  -4.889   4.981  0.00  0.00    -0.026 A 
ATOM      8  S   UNL     1      -2.465  -5.303   3.290  0.00  0.00    -0.075 S 
BRANCH   7   9
ATOM      9  C   UNL     1      -1.258  -5.668   5.984  0.00  0.00    -0.043 C 
BRANCH   9  10
ATOM     10  N   UNL     1      -2.142  -6.572   6.732  0.00  0.00    +0.381 N 
ATOM     11  H   UNL     1      -1.599  -7.094   7.403  0.00  0.00    -0.090 HD
ATOM     12  H   UNL     1      -2.845  -6.033   7.214  0.00  0.00    -0.090 HD
ATOM     13  H   UNL     1      -2.589  -7.212   6.092  0.00  0.00    -0.090 HD
ENDBRANCH   9  10
ENDBRANCH   7   9
ENDBRANCH   1   4
BRANCH   1  14
ATOM     14  N   UNL     1      -3.134  -2.574   0.474  0.00  0.00    -0.182 NA
ATOM     15  H   UNL     1      -3.303  -1.643   0.262  0.00  0.00    +0.149 HD
BRANCH  14  16
ATOM     16  C   UNL     1      -1.912  -3.224  -0.008  0.00  0.00    +0.104 C 
ATOM     17  C   UNL     1      -2.137  -3.741  -1.430  0.00  0.00    +0.031 C 
BRANCH  16  21
ATOM     18  C   UNL     1      -0.018   1.503   0.010  0.00  0.00    +0.051 C 
ATOM     19  C   UNL     1       0.002  -0.004   0.002  0.00  0.00    -0.013 A 
ATOM     20  C   UNL     1      -1.039  -0.872   0.002  0.00  0.00    +0.016 A 
ATOM     21  C   UNL     1      -0.780  -2.230  -0.007  0.00  0.00    -0.019 A 
ATOM     22  C   UNL     1       0.507  -2.653  -0.016  0.00  0.00    -0.008 A 
ATOM     23  S   UNL     1       1.404  -1.109  -0.018  0.00  0.00    -0.098 S 
ATOM     24  C   UNL     1       1.043  -4.062  -0.027  0.00  0.00    +0.052 C 
ENDBRANCH  16  21
ENDBRANCH  14  16
ENDBRANCH   1  14
TORSDOF 6
