REMARK  Name = ZINC39670637
REMARK  7 active torsions:
REMARK  status: ('A' for Active; 'I' for Inactive)
REMARK    1  A    between atoms: C_1  and  C_2
REMARK    2  A    between atoms: C_9  and  C_11
REMARK    3  A    between atoms: C_11  and  N_12
REMARK    4  A    between atoms: C_13  and  C_15
REMARK    5  A    between atoms: C_26  and  C_28
REMARK    6  A    between atoms: C_28  and  C_29
REMARK    7  A    between atoms: C_28  and  C_30
REMARK                            x       y       z     vdW  Elec       q    Type
REMARK                         _______ _______ _______ _____ _____    ______ ____
ROOT
ATOM      1  C   UNL     1      -1.947  -1.919   7.005  0.00  0.00    +0.100 C 
ATOM      2  C   UNL     1      -3.043  -2.940   6.629  0.00  0.00    +0.121 C 
ATOM      3  N   UNL     1      -2.910  -4.019   7.636  0.00  0.00    -0.300 N 
ATOM      4  C   UNL     1      -2.624  -3.307   8.904  0.00  0.00    +0.115 C 
ATOM      5  C   UNL     1      -1.677  -2.160   8.499  0.00  0.00    -0.004 C 
ATOM      6  C   UNL     1      -1.995  -0.903   9.303  0.00  0.00    -0.010 C 
ATOM      7  C   UNL     1      -1.663  -1.149  10.778  0.00  0.00    -0.082 C 
ATOM      8  N   UNL     1      -0.242  -1.493  10.912  0.00  0.00    +0.379 N 
ATOM      9  C   UNL     1       0.035  -2.753  10.212  0.00  0.00    -0.082 C 
ATOM     10  C   UNL     1      -0.224  -2.576   8.713  0.00  0.00    -0.010 C 
ATOM     11  C   UNL     1      -3.024  -5.348   7.442  0.00  0.00    +0.218 C 
ATOM     12  O   UNL     1      -3.187  -5.786   6.323  0.00  0.00    -0.275 OA
ATOM     13  H   UNL     1       0.320  -0.757  10.511  0.00  0.00    -0.086 HD
ATOM     14  H   UNL     1      -0.012  -1.595  11.889  0.00  0.00    -0.086 HD
ENDROOT
BRANCH   1  16
ATOM     15  N   UNL     1       0.131  -1.148   5.904  0.00  0.00    -0.309 N 
ATOM     16  C   UNL     1      -0.698  -2.170   6.199  0.00  0.00    +0.219 C 
ATOM     17  O   UNL     1      -0.439  -3.290   5.815  0.00  0.00    -0.275 OA
ATOM     18  H   UNL     1      -0.076  -0.252   6.211  0.00  0.00    +0.149 HD
BRANCH  15  19
ATOM     19  C   UNL     1       1.344  -1.392   5.121  0.00  0.00    +0.159 C 
BRANCH  19  28
ATOM     20  C   UNL     1       5.334   2.142   6.768  0.00  0.00    +0.064 C 
ATOM     21  C   UNL     1       4.466   2.445   5.574  0.00  0.00    +0.022 A 
ATOM     22  C   UNL     1       4.655   3.587   4.881  0.00  0.00    +0.021 A 
ATOM     23  C   UNL     1       3.854   3.882   3.766  0.00  0.00    +0.005 A 
ATOM     24  C   UNL     1       2.883   3.008   3.385  0.00  0.00    +0.045 A 
ATOM     25  C   UNL     1       2.698   1.819   4.117  0.00  0.00    +0.116 A 
ATOM     26  N   UNL     1       3.499   1.557   5.199  0.00  0.00    -0.305 N 
ATOM     27  C   UNL     1       3.104   0.349   5.706  0.00  0.00    +0.115 A 
ATOM     28  C   UNL     1       2.090  -0.096   4.933  0.00  0.00    +0.051 A 
ATOM     29  N   UNL     1       1.850   0.809   3.981  0.00  0.00    -0.342 N 
ATOM     30  H   UNL     1       1.171   0.734   3.292  0.00  0.00    +0.167 HD
ENDBRANCH  19  28
ENDBRANCH  15  19
ENDBRANCH   1  16
BRANCH  11  31
ATOM     31  C   UNL     1      -2.950  -6.290   8.617  0.00  0.00    +0.069 C 
ATOM     32  C   UNL     1      -4.339  -6.436   9.242  0.00  0.00    +0.017 C 
ATOM     33  C   UNL     1      -2.458  -7.659   8.142  0.00  0.00    +0.017 C 
ENDBRANCH  11  31
TORSDOF 4
