REMARK  Name = ZINC12628264
REMARK  9 active torsions:
REMARK  status: ('A' for Active; 'I' for Inactive)
REMARK    1  A    between atoms: C_1  and  N_2
REMARK    2  A    between atoms: C_6  and  C_7
REMARK    3  A    between atoms: C_7  and  C_9
REMARK    4  A    between atoms: C_7  and  N_17
REMARK    5  A    between atoms: C_14  and  O_15
REMARK    6  A    between atoms: O_15  and  C_16
REMARK    7  A    between atoms: N_17  and  C_18
REMARK    8  A    between atoms: C_21  and  C_27
REMARK    9  A    between atoms: C_23  and  N_24
REMARK                            x       y       z     vdW  Elec       q    Type
REMARK                         _______ _______ _______ _____ _____    ______ ____
ROOT
ATOM      1  C   UNL     1       0.014  -0.073   2.525  0.00  0.00    +0.169 C 
ENDROOT
BRANCH   1   7
ATOM      2  C   UNL     1      -0.772   1.044  -0.256  0.00  0.00    +0.150 C 
ATOM      3  N   UNL     1      -0.487  -0.361   0.049  0.00  0.00    -0.337 N 
ATOM      4  C   UNL     1      -0.514  -1.405  -0.836  0.00  0.00    +0.104 A 
ATOM      5  C   UNL     1      -0.191  -2.513  -0.140  0.00  0.00    +0.102 A 
ATOM      6  N   UNL     1       0.027  -2.154   1.134  0.00  0.00    -0.348 N 
ATOM      7  C   UNL     1      -0.143  -0.865   1.253  0.00  0.00    +0.112 A 
ATOM      8  H   UNL     1       0.277  -2.756   1.852  0.00  0.00    +0.167 HD
ENDBRANCH   1   7
BRANCH   1   9
ATOM      9  C   UNL     1       1.462   0.300   2.709  0.00  0.00    +0.022 A 
ATOM     10  C   UNL     1       1.925   1.519   2.252  0.00  0.00    +0.009 A 
ATOM     11  C   UNL     1       3.254   1.862   2.421  0.00  0.00    +0.001 A 
ATOM     12  C   UNL     1       4.123   0.986   3.046  0.00  0.00    +0.004 A 
ATOM     13  C   UNL     1       3.664  -0.233   3.505  0.00  0.00    +0.046 A 
ATOM     14  C   UNL     1       2.330  -0.577   3.342  0.00  0.00    +0.125 A 
BRANCH  14  15
ATOM     15  O   UNL     1       1.875  -1.774   3.797  0.00  0.00    -0.495 OA
ATOM     16  C   UNL     1       2.825  -2.627   4.439  0.00  0.00    +0.277 C 
ENDBRANCH  14  15
ENDBRANCH   1   9
BRANCH   1  17
ATOM     17  N   UNL     1      -0.798   1.144   2.445  0.00  0.00    -0.329 N 
ATOM     18  H   UNL     1      -0.386   1.987   2.197  0.00  0.00    +0.147 HD
BRANCH  17  19
ATOM     19  C   UNL     1      -2.159   1.092   2.726  0.00  0.00    +0.059 A 
ATOM     20  C   UNL     1      -2.760  -0.127   3.026  0.00  0.00    +0.026 A 
ATOM     21  C   UNL     1      -4.106  -0.182   3.304  0.00  0.00    +0.015 A 
ATOM     22  C   UNL     1      -4.871   0.989   3.286  0.00  0.00    +0.039 A 
ATOM     23  C   UNL     1      -4.264   2.211   2.984  0.00  0.00    +0.047 A 
ATOM     24  C   UNL     1      -2.916   2.260   2.711  0.00  0.00    +0.148 A 
BRANCH  22  25
ATOM     25  C   UNL     1      -6.315   0.933   3.583  0.00  0.00    +0.242 C 
ATOM     26  O   UNL     1      -6.978   1.952   3.566  0.00  0.00    -0.270 OA
ATOM     27  N   UNL     1      -6.898  -0.246   3.873  0.00  0.00    -0.325 N 
ATOM     28  H   UNL     1      -6.369  -1.059   3.887  0.00  0.00    +0.145 HD
ATOM     29  H   UNL     1      -7.848  -0.283   4.069  0.00  0.00    +0.145 HD
ENDBRANCH  22  25
BRANCH  24  30
ATOM     30  N   UNL     1      -2.272   3.555   2.397  0.00  0.00    +0.058 N 
ATOM     31  O   UNL     1      -1.154   3.786   2.794  0.00  0.00    -0.126 OA
ATOM     32  O   UNL     1      -2.864   4.382   1.743  0.00  0.00    -0.126 OA
ENDBRANCH  24  30
ENDBRANCH  17  19
ENDBRANCH   1  17
TORSDOF 7
