REMARK  Name = ZINC37709993
REMARK  6 active torsions:
REMARK  status: ('A' for Active; 'I' for Inactive)
REMARK    1  A    between atoms: C_3  and  O_12
REMARK    2  A    between atoms: C_4  and  C_10
REMARK    3  A    between atoms: C_6  and  N_7
REMARK    4  A    between atoms: C_10  and  N_11
REMARK    5  A    between atoms: O_12  and  C_13
REMARK    6  A    between atoms: C_20  and  O_22
REMARK                            x       y       z     vdW  Elec       q    Type
REMARK                         _______ _______ _______ _____ _____    ______ ____
ROOT
ATOM      1  C   UNL     1      -0.001   1.356  -0.302  0.00  0.00    +0.036 A 
ATOM      2  C   UNL     1       1.184   2.067  -0.277  0.00  0.00    +0.048 A 
ATOM      3  C   UNL     1       2.382   1.407  -0.046  0.00  0.00    +0.123 A 
ATOM      4  C   UNL     1       2.387   0.035   0.160  0.00  0.00    -0.021 A 
ATOM      5  C   UNL     1       1.200  -0.671   0.134  0.00  0.00    +0.038 A 
ATOM      6  C   UNL     1       0.007  -0.011  -0.097  0.00  0.00    +0.127 A 
ENDROOT
BRANCH   6   7
ATOM      7  N   UNL     1      -1.264  -0.770  -0.124  0.00  0.00    +0.056 N 
ATOM      8  O   UNL     1      -2.307  -0.194  -0.325  0.00  0.00    -0.126 OA
ATOM      9  O   UNL     1      -1.258  -1.965   0.055  0.00  0.00    -0.126 OA
ENDBRANCH   6   7
BRANCH   4  10
ATOM     10  C   UNL     1       3.687  -0.685   0.411  0.00  0.00    -0.047 C 
BRANCH  10  11
ATOM     11  N   UNL     1       4.080  -0.510   1.815  0.00  0.00    +0.381 N 
ATOM     12  H   UNL     1       3.364  -0.891   2.415  0.00  0.00    -0.090 HD
ATOM     13  H   UNL     1       4.951  -0.992   1.983  0.00  0.00    -0.090 HD
ATOM     14  H   UNL     1       4.197   0.472   2.012  0.00  0.00    -0.090 HD
ENDBRANCH  10  11
ENDBRANCH   4  10
BRANCH   3  15
ATOM     15  O   UNL     1       3.548   2.104  -0.021  0.00  0.00    -0.484 OA
BRANCH  15  16
ATOM     16  C   UNL     1       3.457   3.526  -0.124  0.00  0.00    +0.224 C 
ATOM     17  C   UNL     1       3.314   3.904  -1.615  0.00  0.00    +0.213 C 
ATOM     18  S   UNL     1       4.301   5.462  -1.688  0.00  0.00    -0.025 S 
ATOM     19  O   UNL     1       4.961   5.543  -2.944  0.00  0.00    -0.174 OA
ATOM     20  O   UNL     1       3.502   6.548  -1.240  0.00  0.00    -0.174 OA
ATOM     21  C   UNL     1       5.529   5.025  -0.381  0.00  0.00    +0.201 C 
ATOM     22  C   UNL     1       4.675   4.141   0.550  0.00  0.00    +0.177 C 
BRANCH  22  23
ATOM     23  O   UNL     1       5.496   3.087   1.057  0.00  0.00    -0.386 OA
ATOM     24  H   UNL     1       6.297   3.393   1.503  0.00  0.00    +0.210 HD
ENDBRANCH  22  23
ENDBRANCH  15  16
ENDBRANCH   3  15
TORSDOF 6
