REMARK  Name = ZINC35430473
REMARK  8 active torsions:
REMARK  status: ('A' for Active; 'I' for Inactive)
REMARK    1  A    between atoms: C_1  and  C_2
REMARK    2  A    between atoms: C_5  and  O_8
REMARK    3  A    between atoms: O_8  and  C_9
REMARK    4  A    between atoms: C_10  and  C_17
REMARK    5  A    between atoms: C_17  and  N_18
REMARK    6  A    between atoms: N_18  and  C_19
REMARK    7  A    between atoms: C_19  and  C_20
REMARK    8  A    between atoms: C_19  and  C_21
REMARK                            x       y       z     vdW  Elec       q    Type
REMARK                         _______ _______ _______ _____ _____    ______ ____
ROOT
ATOM      1  C   UNL     1       0.177  -4.773   1.172  0.00  0.00    +0.241 A 
ATOM      2  C   UNL     1       0.312  -6.103   1.341  0.00  0.00    +0.070 A 
ATOM      3  N   UNL     1       0.402  -6.348   2.713  0.00  0.00    -0.296 N 
ATOM      4  C   UNL     1       0.545  -7.427   3.557  0.00  0.00    +0.100 A 
ATOM      5  C   UNL     1       0.594  -7.259   4.877  0.00  0.00    +0.067 A 
ATOM      6  S   UNL     1       0.432  -5.487   5.029  0.00  0.00    -0.058 S 
ATOM      7  C   UNL     1       0.313  -5.112   3.295  0.00  0.00    +0.181 A 
ATOM      8  N   UNL     1       0.186  -4.191   2.383  0.00  0.00    -0.186 NA
ENDROOT
BRANCH   1   9
ATOM      9  O   UNL     1       0.058  -4.129  -0.021  0.00  0.00    -0.436 OA
BRANCH   9  14
ATOM     10  C   UNL     1      -0.017   1.503   0.010  0.00  0.00    +0.044 C 
ATOM     11  C   UNL     1       0.003  -0.004   0.002  0.00  0.00    -0.050 A 
ATOM     12  C   UNL     1       0.262  -0.697   1.170  0.00  0.00    +0.007 A 
ATOM     13  C   UNL     1       0.281  -2.078   1.165  0.00  0.00    +0.046 A 
ATOM     14  C   UNL     1       0.039  -2.770  -0.013  0.00  0.00    +0.130 A 
ATOM     15  C   UNL     1      -0.220  -2.072  -1.184  0.00  0.00    +0.046 A 
ATOM     16  C   UNL     1      -0.243  -0.691  -1.173  0.00  0.00    +0.007 A 
ENDBRANCH   9  14
ENDBRANCH   1   9
BRANCH   2  17
ATOM     17  C   UNL     1       0.356  -7.139   0.247  0.00  0.00    -0.022 C 
BRANCH  17  18
ATOM     18  N   UNL     1      -1.006  -7.606  -0.041  0.00  0.00    +0.384 N 
ATOM     19  H   UNL     1      -1.405  -8.013   0.792  0.00  0.00    -0.085 HD
ATOM     20  H   UNL     1      -1.573  -6.826  -0.339  0.00  0.00    -0.085 HD
BRANCH  18  21
ATOM     21  C   UNL     1      -0.963  -8.616  -1.107  0.00  0.00    -0.078 C 
ATOM     22  C   UNL     1      -2.363  -9.192  -1.321  0.00  0.00    -0.014 C 
ATOM     23  C   UNL     1      -0.474  -7.967  -2.404  0.00  0.00    -0.014 C 
ENDBRANCH  18  21
ENDBRANCH  17  18
ENDBRANCH   2  17
TORSDOF 5
