REMARK  Name = ZINC66952918
REMARK  5 active torsions:
REMARK  status: ('A' for Active; 'I' for Inactive)
REMARK    1  A    between atoms: C_1  and  N_2
REMARK    2  A    between atoms: C_10  and  N_11
REMARK    3  A    between atoms: N_14  and  C_15
REMARK    4  A    between atoms: C_15  and  C_16
REMARK    5  A    between atoms: C_16  and  O_26
REMARK                            x       y       z     vdW  Elec       q    Type
REMARK                         _______ _______ _______ _____ _____    ______ ____
ROOT
ATOM      1  N   UNL     1       0.059  -4.511   1.190  0.00  0.00    -0.269 N 
ATOM      2  C   UNL     1       0.181  -5.508   2.089  0.00  0.00    +0.304 C 
ATOM      3  O   UNL     1       0.184  -5.257   3.278  0.00  0.00    -0.253 OA
ATOM      4  N   UNL     1       0.300  -6.783   1.669  0.00  0.00    -0.296 N 
ATOM      5  H   UNL     1      -0.008  -4.717   0.244  0.00  0.00    +0.156 HD
ATOM      6  H   UNL     1       0.298  -6.984   0.720  0.00  0.00    +0.150 HD
ENDROOT
BRANCH   1  16
ATOM      7  C   UNL     1       1.428   1.367   0.403  0.00  0.00    +0.149 C 
ATOM      8  N   UNL     1       1.236  -0.084   0.336  0.00  0.00    -0.350 N 
ATOM      9  C   UNL     1       1.677  -0.889  -0.680  0.00  0.00    +0.086 A 
ATOM     10  C   UNL     1       1.337  -2.164  -0.432  0.00  0.00    +0.029 A 
ATOM     11  C   UNL     1       0.621  -2.175   0.845  0.00  0.00    +0.021 A 
ATOM     12  C   UNL     1       0.592  -0.841   1.288  0.00  0.00    +0.051 A 
ATOM     13  C   UNL     1      -0.027  -0.534   2.496  0.00  0.00    +0.026 A 
ATOM     14  C   UNL     1      -0.601  -1.533   3.251  0.00  0.00    +0.004 A 
ATOM     15  C   UNL     1      -0.572  -2.852   2.822  0.00  0.00    +0.024 A 
ATOM     16  C   UNL     1       0.029  -3.181   1.620  0.00  0.00    +0.044 A 
ENDBRANCH   1  16
BRANCH   4  17
ATOM     17  C   UNL     1       0.433  -7.867   2.646  0.00  0.00    +0.145 C 
BRANCH  17  18
ATOM     18  C   UNL     1       0.674  -9.188   1.913  0.00  0.00    +0.107 C 
ATOM     19  C   UNL     1      -0.493  -9.459   0.966  0.00  0.00    +0.041 C 
ATOM     20  C   UNL     1      -0.344 -10.879   0.408  0.00  0.00    +0.008 C 
ATOM     21  C   UNL     1      -0.612 -11.871   1.538  0.00  0.00    +0.035 C 
ATOM     22  C   UNL     1       0.219 -11.532   2.748  0.00  0.00    -0.041 A 
ATOM     23  C   UNL     1       0.806 -10.299   2.922  0.00  0.00    -0.011 A 
ATOM     24  C   UNL     1       1.554 -10.049   4.065  0.00  0.00    +0.007 A 
ATOM     25  C   UNL     1       1.716 -11.027   5.025  0.00  0.00    +0.000 A 
ATOM     26  C   UNL     1       1.130 -12.266   4.848  0.00  0.00    +0.000 A 
ATOM     27  C   UNL     1       0.385 -12.516   3.714  0.00  0.00    +0.004 A 
BRANCH  18  28
ATOM     28  O   UNL     1       1.882  -9.093   1.156  0.00  0.00    -0.382 OA
ATOM     29  H   UNL     1       2.668  -8.913   1.691  0.00  0.00    +0.211 HD
ENDBRANCH  18  28
ENDBRANCH  17  18
ENDBRANCH   4  17
TORSDOF 4
