REMARK  Name = ZINC24052479
REMARK  6 active torsions:
REMARK  status: ('A' for Active; 'I' for Inactive)
REMARK    1  A    between atoms: C_7  and  N_22
REMARK    2  A    between atoms: N_11  and  C_12
REMARK    3  A    between atoms: C_12  and  C_13
REMARK    4  A    between atoms: N_22  and  C_23
REMARK    5  A    between atoms: C_23  and  C_24
REMARK    6  A    between atoms: C_24  and  O_25
REMARK                            x       y       z     vdW  Elec       q    Type
REMARK                         _______ _______ _______ _____ _____    ______ ____
ROOT
ATOM      1  C   UNL     1      10.804  -0.775   6.086  0.00  0.00    +0.001 A 
ATOM      2  C   UNL     1      10.840  -1.102   4.734  0.00  0.00    +0.002 A 
ATOM      3  C   UNL     1       9.707  -1.078   3.975  0.00  0.00    +0.026 A 
ATOM      4  C   UNL     1       8.487  -0.718   4.564  0.00  0.00    +0.052 A 
ATOM      5  C   UNL     1       8.454  -0.385   5.940  0.00  0.00    +0.038 A 
ATOM      6  C   UNL     1       9.634  -0.420   6.690  0.00  0.00    +0.013 A 
ATOM      7  C   UNL     1       7.209  -0.025   6.514  0.00  0.00    +0.132 A 
ATOM      8  N   UNL     1       6.137  -0.017   5.736  0.00  0.00    -0.201 NA
ATOM      9  C   UNL     1       6.213  -0.337   4.447  0.00  0.00    +0.195 A 
ATOM     10  N   UNL     1       7.344  -0.683   3.863  0.00  0.00    -0.327 N 
ATOM     11  N   UNL     1       5.057  -0.309   3.688  0.00  0.00    -0.311 N 
ATOM     12  H   UNL     1       4.101  -0.027   4.152  0.00  0.00    +0.149 HD
ATOM     13  H   UNL     1       7.346  -0.946   2.795  0.00  0.00    +0.169 HD
ENDROOT
BRANCH   7  14
ATOM     14  N   UNL     1       7.115   0.307   7.848  0.00  0.00    -0.326 N 
ATOM     15  H   UNL     1       8.015   0.296   8.482  0.00  0.00    +0.148 HD
BRANCH  14  16
ATOM     16  C   UNL     1       5.819   0.676   8.423  0.00  0.00    +0.130 C 
BRANCH  16  17
ATOM     17  C   UNL     1       5.992   0.997   9.909  0.00  0.00    +0.174 C 
BRANCH  17  18
ATOM     18  O   UNL     1       6.814   2.157  10.053  0.00  0.00    -0.393 OA
ATOM     19  H   UNL     1       7.051   2.542  11.056  0.00  0.00    +0.209 HD
ENDBRANCH  17  18
ENDBRANCH  16  17
ENDBRANCH  14  16
ENDBRANCH   7  14
BRANCH  11  20
ATOM     20  C   UNL     1       5.107  -0.655   2.265  0.00  0.00    +0.139 C 
BRANCH  20  21
ATOM     21  C   UNL     1       3.725  -0.548   1.673  0.00  0.00    -0.027 A 
ATOM     22  C   UNL     1       2.886  -1.647   1.675  0.00  0.00    +0.009 A 
ATOM     23  C   UNL     1       1.617  -1.553   1.135  0.00  0.00    +0.050 A 
ATOM     24  C   UNL     1       1.183  -0.356   0.589  0.00  0.00    +0.166 A 
ATOM     25  C   UNL     1       2.028   0.751   0.586  0.00  0.00    +0.167 A 
ATOM     26  C   UNL     1       3.299   0.650   1.130  0.00  0.00    +0.054 A 
ATOM     27  O   UNL     1       1.376   1.797  -0.001  0.00  0.00    -0.453 OA
ATOM     28  C   UNL     1      -0.018   1.436   0.010  0.00  0.00    +0.466 C 
ATOM     29  O   UNL     1       0.002  -0.004   0.002  0.00  0.00    -0.453 OA
ENDBRANCH  20  21
ENDBRANCH  11  20
TORSDOF 6
