REMARK  Name = ZINC36871961
REMARK  7 active torsions:
REMARK  status: ('A' for Active; 'I' for Inactive)
REMARK    1  A    between atoms: C_1  and  C_2
REMARK    2  A    between atoms: C_2  and  C_3
REMARK    3  A    between atoms: C_3  and  C_5
REMARK    4  A    between atoms: C_3  and  N_19
REMARK    5  A    between atoms: C_5  and  N_6
REMARK    6  A    between atoms: N_6  and  C_7
REMARK    7  A    between atoms: N_6  and  C_13
REMARK                            x       y       z     vdW  Elec       q    Type
REMARK                         _______ _______ _______ _____ _____    ______ ____
ROOT
ATOM      1  N   UNL     1       1.013  -1.960  -2.543  0.00  0.00    +0.382 N 
ATOM      2  H   UNL     1       1.929  -1.613  -2.788  0.00  0.00    -0.081 HD
ENDROOT
BRANCH   1   3
ATOM      3  C   UNL     1       0.964  -3.411  -2.768  0.00  0.00    -0.068 C 
ATOM      4  C   UNL     1       1.072  -3.699  -4.266  0.00  0.00    -0.015 C 
ATOM      5  C   UNL     1       1.020  -5.211  -4.500  0.00  0.00    -0.002 C 
ATOM      6  C   UNL     1       2.184  -5.880  -3.766  0.00  0.00    -0.000 C 
ATOM      7  C   UNL     1       2.076  -5.591  -2.268  0.00  0.00    -0.002 C 
ATOM      8  C   UNL     1       2.128  -4.080  -2.034  0.00  0.00    -0.015 C 
ENDBRANCH   1   3
BRANCH   1   9
ATOM      9  C   UNL     1       0.001  -1.301  -3.379  0.00  0.00    -0.068 C 
ATOM     10  C   UNL     1       0.039   0.209  -3.131  0.00  0.00    -0.015 C 
ATOM     11  C   UNL     1      -1.016   0.895  -4.001  0.00  0.00    -0.002 C 
ATOM     12  C   UNL     1      -2.402   0.355  -3.644  0.00  0.00    -0.000 C 
ATOM     13  C   UNL     1      -2.440  -1.155  -3.892  0.00  0.00    -0.002 C 
ATOM     14  C   UNL     1      -1.386  -1.841  -3.022  0.00  0.00    -0.015 C 
ENDBRANCH   1   9
BRANCH   1  15
ATOM     15  C   UNL     1       0.742  -1.673  -1.128  0.00  0.00    -0.095 C 
BRANCH  15  16
ATOM     16  C   UNL     1       2.053  -1.330  -0.418  0.00  0.00    -0.093 C 
BRANCH  16  17
ATOM     17  N   UNL     1       2.625  -0.112  -1.008  0.00  0.00    +0.379 N 
ATOM     18  H   UNL     1       1.927   0.617  -1.019  0.00  0.00    -0.090 HD
ATOM     19  H   UNL     1       3.417   0.188  -0.459  0.00  0.00    -0.090 HD
ATOM     20  H   UNL     1       2.925  -0.305  -1.952  0.00  0.00    -0.090 HD
ENDBRANCH  16  17
BRANCH  16  22
ATOM     21  C   UNL     1       3.105  -0.875   1.802  0.00  0.00    +0.002 C 
ATOM     22  C   UNL     1       1.780  -1.096   1.069  0.00  0.00    -0.021 C 
ENDBRANCH  16  22
ENDBRANCH  15  16
ENDBRANCH   1  15
TORSDOF 6
