REMARK  Name = ZINC59882996
REMARK  5 active torsions:
REMARK  status: ('A' for Active; 'I' for Inactive)
REMARK    1  A    between atoms: C_1  and  C_2
REMARK    2  A    between atoms: C_5  and  O_8
REMARK    3  A    between atoms: O_8  and  C_9
REMARK    4  A    between atoms: C_9  and  C_11
REMARK    5  A    between atoms: C_9  and  C_12
REMARK                            x       y       z     vdW  Elec       q    Type
REMARK                         _______ _______ _______ _____ _____    ______ ____
ROOT
ATOM      1  C   UNL     1       1.097  -5.972   1.335  0.00  0.00    +0.256 C 
ATOM      2  O   UNL     1       1.476  -6.527   0.325  0.00  0.00    -0.272 OA
ATOM      3  N   UNL     1       1.498  -6.420   2.541  0.00  0.00    -0.297 N 
ATOM      4  C   UNL     1       0.936  -5.804   3.742  0.00  0.00    +0.117 C 
ATOM      5  C   UNL     1       2.051  -5.110   4.531  0.00  0.00    +0.114 C 
ATOM      6  C   UNL     1       2.799  -6.154   5.330  0.00  0.00    +0.215 C 
ATOM      7  O   UNL     1       2.674  -6.192   6.536  0.00  0.00    -0.276 OA
ATOM      8  N   UNL     1       3.596  -7.034   4.717  0.00  0.00    -0.314 N 
ATOM      9  C   UNL     1       3.766  -6.999   3.258  0.00  0.00    +0.123 C 
ATOM     10  C   UNL     1       2.473  -7.506   2.598  0.00  0.00    +0.126 C 
ATOM     11  H   UNL     1       4.067  -7.701   5.240  0.00  0.00    +0.149 HD
ENDROOT
BRANCH   1  12
ATOM     12  C   UNL     1       0.177  -4.782   1.241  0.00  0.00    +0.256 C 
ATOM     13  C   UNL     1      -1.244  -5.205   1.617  0.00  0.00    +0.062 C 
BRANCH  12  14
ATOM     14  O   UNL     1       0.186  -4.278  -0.097  0.00  0.00    -0.480 OA
BRANCH  14  19
ATOM     15  C   UNL     1      -1.139   1.152  -0.791  0.00  0.00    +0.044 C 
ATOM     16  C   UNL     1      -0.784  -0.301  -0.605  0.00  0.00    -0.050 A 
ATOM     17  C   UNL     1      -0.883  -0.881   0.646  0.00  0.00    +0.007 A 
ATOM     18  C   UNL     1      -0.559  -2.212   0.819  0.00  0.00    +0.046 A 
ATOM     19  C   UNL     1      -0.134  -2.968  -0.264  0.00  0.00    +0.122 A 
ATOM     20  C   UNL     1      -0.036  -2.384  -1.519  0.00  0.00    +0.046 A 
ATOM     21  C   UNL     1      -0.367  -1.053  -1.687  0.00  0.00    +0.007 A 
ENDBRANCH  14  19
ENDBRANCH  12  14
ENDBRANCH   1  12
TORSDOF 3
