REMARK  Name = ZINC37732196
REMARK  5 active torsions:
REMARK  status: ('A' for Active; 'I' for Inactive)
REMARK    1  A    between atoms: C_1  and  C_2
REMARK    2  A    between atoms: C_7  and  N_8
REMARK    3  A    between atoms: N_8  and  S_9
REMARK    4  A    between atoms: S_9  and  C_12
REMARK    5  A    between atoms: C_13  and  C_18
REMARK                            x       y       z     vdW  Elec       q    Type
REMARK                         _______ _______ _______ _____ _____    ______ ____
ROOT
ATOM      1  S   UNL     1       0.050  -0.854   3.843  0.00  0.00    +0.109 S 
ATOM      2  O   UNL     1      -1.185  -1.552   3.926  0.00  0.00    -0.147 OA
ATOM      3  O   UNL     1       1.305  -1.518   3.903  0.00  0.00    -0.147 OA
ENDROOT
BRANCH   1   4
ATOM      4  C   UNL     1       0.046   0.334   5.145  0.00  0.00    +0.207 A 
ATOM      5  C   UNL     1       1.073   1.266   5.423  0.00  0.00    +0.125 A 
ATOM      6  C   UNL     1       0.667   2.002   6.521  0.00  0.00    +0.120 A 
ATOM      7  N   UNL     1      -0.538   1.544   6.888  0.00  0.00    -0.305 N 
ATOM      8  N   UNL     1      -0.906   0.512   6.017  0.00  0.00    -0.282 N 
ATOM      9  H   UNL     1      -1.068   1.874   7.630  0.00  0.00    +0.186 HD
ATOM     10  H   UNL     1      -1.735   0.009   6.057  0.00  0.00    +0.188 HD
BRANCH   5  11
ATOM     11  C   UNL     1       2.335   1.421   4.685  0.00  0.00    +0.391 C 
ATOM     12  O   UNL     1       3.145   2.271   5.030  0.00  0.00    -0.240 OA
ATOM     13  O   UNL     1       2.576   0.701   3.726  0.00  0.00    -0.240 OA
ENDBRANCH   5  11
ENDBRANCH   1   4
BRANCH   1  14
ATOM     14  N   UNL     1       0.025  -0.016   2.415  0.00  0.00    -0.096 NA
BRANCH  14  21
ATOM     15  C   UNL     1      -0.018   1.503   0.010  0.00  0.00    +0.046 C 
ATOM     16  C   UNL     1       0.002  -0.004   0.002  0.00  0.00    -0.025 A 
ATOM     17  C   UNL     1       0.006  -0.689  -1.198  0.00  0.00    +0.019 A 
ATOM     18  C   UNL     1       0.024  -2.072  -1.206  0.00  0.00    +0.014 A 
ATOM     19  C   UNL     1       0.039  -2.774  -0.014  0.00  0.00    +0.016 A 
ATOM     20  C   UNL     1       0.035  -2.095   1.189  0.00  0.00    +0.028 A 
ATOM     21  C   UNL     1       0.023  -0.706   1.200  0.00  0.00    +0.077 A 
ATOM     22  I   UNL     1       0.030  -3.106  -3.028  0.00  0.00    -0.044 I 
ENDBRANCH  14  21
ENDBRANCH   1  14
TORSDOF 4
