REMARK  Name = ZINC54996801
REMARK  12 active torsions:
REMARK  status: ('A' for Active; 'I' for Inactive)
REMARK    1  A    between atoms: C_1  and  C_2
REMARK    2  A    between atoms: C_2  and  C_3
REMARK    3  A    between atoms: C_3  and  N_4
REMARK    4  A    between atoms: N_4  and  C_16
REMARK    5  A    between atoms: C_7  and  C_12
REMARK    6  A    between atoms: C_8  and  C_10
REMARK    7  A    between atoms: C_10  and  N_11
REMARK    8  A    between atoms: C_12  and  C_13
REMARK    9  A    between atoms: C_12  and  C_14
REMARK   10  A    between atoms: C_12  and  C_15
REMARK   11  A    between atoms: C_16  and  C_17
REMARK   12  A    between atoms: C_16  and  C_18
REMARK                            x       y       z     vdW  Elec       q    Type
REMARK                         _______ _______ _______ _____ _____    ______ ____
ROOT
ATOM      1  N   UNL     1       0.074  -1.191  -1.011  0.00  0.00    -0.307 N 
ATOM      2  C   UNL     1      -0.654  -2.073  -1.794  0.00  0.00    +0.161 A 
ATOM      3  N   UNL     1      -1.840  -1.898  -2.336  0.00  0.00    -0.229 NA
ATOM      4  C   UNL     1      -2.404  -2.846  -3.064  0.00  0.00    +0.057 A 
ATOM      5  C   UNL     1      -1.708  -3.997  -3.224  0.00  0.00    -0.003 A 
ATOM      6  S   UNL     1      -0.232  -3.626  -2.289  0.00  0.00    -0.059 S 
ENDROOT
BRANCH   4   7
ATOM      7  C   UNL     1      -3.763  -2.655  -3.688  0.00  0.00    +0.005 C 
ATOM      8  C   UNL     1      -4.229  -1.216  -3.465  0.00  0.00    +0.017 C 
ATOM      9  C   UNL     1      -3.678  -2.937  -5.190  0.00  0.00    +0.017 C 
ATOM     10  C   UNL     1      -4.760  -3.620  -3.044  0.00  0.00    +0.017 C 
ENDBRANCH   4   7
BRANCH   1  11
ATOM     11  C   UNL     1       1.393  -1.579  -0.505  0.00  0.00    +0.069 C 
ATOM     12  C   UNL     1       1.256  -2.825   0.372  0.00  0.00    +0.028 C 
ATOM     13  C   UNL     1       2.322  -1.882  -1.681  0.00  0.00    +0.028 C 
ENDBRANCH   1  11
BRANCH   1  14
ATOM     14  C   UNL     1      -0.475   0.128  -0.690  0.00  0.00    +0.107 C 
BRANCH  14  16
ATOM     15  C   UNL     1      -1.856   1.421   0.942  0.00  0.00    +0.005 C 
ATOM     16  C   UNL     1      -1.282   0.043   0.607  0.00  0.00    +0.016 C 
ENDBRANCH  14  16
ENDBRANCH   1  14
BRANCH   5  17
ATOM     17  C   UNL     1      -2.075  -5.245  -3.984  0.00  0.00    -0.041 C 
BRANCH  17  18
ATOM     18  N   UNL     1      -1.457  -5.206  -5.316  0.00  0.00    +0.381 N 
ATOM     19  H   UNL     1      -1.672  -4.326  -5.761  0.00  0.00    -0.090 HD
ATOM     20  H   UNL     1      -0.457  -5.301  -5.226  0.00  0.00    -0.090 HD
ATOM     21  H   UNL     1      -1.818  -5.963  -5.877  0.00  0.00    -0.090 HD
ENDBRANCH  17  18
ENDBRANCH   5  17
TORSDOF 6
