REMARK  Name = ZINC39597964
REMARK  6 active torsions:
REMARK  status: ('A' for Active; 'I' for Inactive)
REMARK    1  A    between atoms: C_1  and  N_2
REMARK    2  A    between atoms: C_6  and  C_7
REMARK    3  A    between atoms: C_11  and  C_20
REMARK    4  A    between atoms: N_22  and  C_23
REMARK    5  A    between atoms: C_23  and  C_24
REMARK    6  A    between atoms: C_24  and  C_25
REMARK                            x       y       z     vdW  Elec       q    Type
REMARK                         _______ _______ _______ _____ _____    ______ ____
ROOT
ATOM      1  C   UNL     1      -0.172  -0.420   2.571  0.00  0.00    +0.265 C 
ATOM      2  O   UNL     1      -0.136  -1.250   3.460  0.00  0.00    -0.268 OA
ATOM      3  N   UNL     1      -0.389   0.877   2.869  0.00  0.00    -0.295 N 
ATOM      4  C   UNL     1      -0.606   2.001   1.927  0.00  0.00    +0.121 C 
ATOM      5  C   UNL     1      -1.700   2.863   2.595  0.00  0.00    +0.100 C 
ATOM      6  C   UNL     1      -1.601   2.532   4.094  0.00  0.00    -0.004 C 
ATOM      7  C   UNL     1      -0.471   1.500   4.212  0.00  0.00    +0.115 C 
ATOM      8  C   UNL     1      -2.912   1.929   4.590  0.00  0.00    -0.010 C 
ATOM      9  C   UNL     1      -2.808   1.661   6.094  0.00  0.00    -0.082 C 
ATOM     10  N   UNL     1      -2.527   2.918   6.798  0.00  0.00    +0.379 N 
ATOM     11  C   UNL     1      -1.221   3.444   6.383  0.00  0.00    -0.082 C 
ATOM     12  C   UNL     1      -1.257   3.787   4.891  0.00  0.00    -0.010 C 
ATOM     13  H   UNL     1      -3.245   3.593   6.579  0.00  0.00    -0.086 HD
ATOM     14  H   UNL     1      -2.520   2.750   7.793  0.00  0.00    -0.086 HD
ENDROOT
BRANCH   1  20
ATOM     15  C   UNL     1       0.013  -3.353   1.487  0.00  0.00    +0.150 C 
ATOM     16  N   UNL     1       0.103  -2.123   0.696  0.00  0.00    -0.330 N 
ATOM     17  C   UNL     1       0.276  -2.039  -0.635  0.00  0.00    +0.199 A 
ATOM     18  N   UNL     1       0.307  -0.779  -0.987  0.00  0.00    -0.243 NA
ATOM     19  C   UNL     1       0.158  -0.009   0.091  0.00  0.00    +0.143 A 
ATOM     20  C   UNL     1       0.021  -0.830   1.175  0.00  0.00    +0.124 A 
ENDBRANCH   1  20
BRANCH   5  21
ATOM     21  C   UNL     1      -1.431   4.327   2.360  0.00  0.00    +0.218 C 
ATOM     22  O   UNL     1      -0.289   4.731   2.295  0.00  0.00    -0.275 OA
ATOM     23  N   UNL     1      -2.459   5.188   2.222  0.00  0.00    -0.315 N 
ATOM     24  H   UNL     1      -3.372   4.865   2.274  0.00  0.00    +0.149 HD
BRANCH  23  25
ATOM     25  C   UNL     1      -2.197   6.611   1.993  0.00  0.00    +0.109 C 
BRANCH  25  26
ATOM     26  C   UNL     1      -3.525   7.361   1.874  0.00  0.00    +0.056 C 
BRANCH  26  27
ATOM     27  C   UNL     1      -3.256   8.825   1.638  0.00  0.00    -0.021 A 
ATOM     28  C   UNL     1      -2.999   9.468   0.347  0.00  0.00    +0.003 A 
ATOM     29  C   UNL     1      -2.923   9.006  -0.968  0.00  0.00    +0.010 A 
ATOM     30  C   UNL     1      -2.661   9.884  -1.982  0.00  0.00    +0.001 A 
ATOM     31  C   UNL     1      -2.468  11.233  -1.714  0.00  0.00    +0.002 A 
ATOM     32  C   UNL     1      -2.539  11.710  -0.423  0.00  0.00    +0.026 A 
ATOM     33  C   UNL     1      -2.805  10.833   0.624  0.00  0.00    +0.047 A 
ATOM     34  N   UNL     1      -2.937  10.995   1.985  0.00  0.00    -0.360 N 
ATOM     35  C   UNL     1      -3.211   9.789   2.572  0.00  0.00    +0.087 A 
ATOM     36  H   UNL     1      -2.852  11.838   2.457  0.00  0.00    +0.165 HD
ENDBRANCH  26  27
ENDBRANCH  25  26
ENDBRANCH  23  25
ENDBRANCH   5  21
TORSDOF 5
