REMARK  Name = ZINC40680384
REMARK  7 active torsions:
REMARK  status: ('A' for Active; 'I' for Inactive)
REMARK    1  A    between atoms: C_1  and  C_2
REMARK    2  A    between atoms: C_2  and  C_3
REMARK    3  A    between atoms: C_2  and  C_4
REMARK    4  A    between atoms: C_2  and  N_5
REMARK    5  A    between atoms: C_7  and  N_21
REMARK    6  A    between atoms: C_8  and  N_12
REMARK    7  A    between atoms: N_12  and  C_13
REMARK                            x       y       z     vdW  Elec       q    Type
REMARK                         _______ _______ _______ _____ _____    ______ ____
ROOT
ATOM      1  N   UNL     1       0.857  -0.819  -0.974  0.00  0.00    -0.323 N 
ATOM      2  C   UNL     1       2.097  -0.295  -1.317  0.00  0.00    +0.145 A 
ATOM      3  C   UNL     1       2.761  -0.739  -2.463  0.00  0.00    +0.105 A 
ATOM      4  C   UNL     1       4.004  -0.179  -2.762  0.00  0.00    +0.149 A 
ATOM      5  N   UNL     1       4.506   0.749  -1.951  0.00  0.00    -0.219 NA
ATOM      6  C   UNL     1       3.846   1.140  -0.879  0.00  0.00    +0.225 A 
ATOM      7  N   UNL     1       2.668   0.641  -0.563  0.00  0.00    -0.219 NA
ATOM      8  H   UNL     1       0.448  -1.501  -1.529  0.00  0.00    +0.148 HD
ENDROOT
BRANCH   1  10
ATOM      9  C   UNL     1      -0.088   1.163   0.105  0.00  0.00    +0.031 C 
ATOM     10  C   UNL     1       0.167  -0.341   0.227  0.00  0.00    +0.025 C 
ATOM     11  C   UNL     1       1.037  -0.612   1.457  0.00  0.00    +0.031 C 
ATOM     12  C   UNL     1      -1.168  -1.074   0.375  0.00  0.00    +0.031 C 
ENDBRANCH   1  10
BRANCH   3  13
ATOM     13  N   UNL     1       2.194  -1.721  -3.291  0.00  0.00    -0.353 N 
ATOM     14  H   UNL     1       1.330  -2.102  -3.070  0.00  0.00    +0.143 HD
ATOM     15  H   UNL     1       2.667  -2.020  -4.083  0.00  0.00    +0.143 HD
ENDBRANCH   3  13
BRANCH   4  16
ATOM     16  N   UNL     1       4.708  -0.585  -3.891  0.00  0.00    -0.298 N 
ATOM     17  H   UNL     1       4.301  -1.200  -4.521  0.00  0.00    +0.154 HD
BRANCH  16  18
ATOM     18  C   UNL     1       6.002  -0.108  -4.116  0.00  0.00    +0.035 A 
ATOM     19  C   UNL     1       6.856   0.121  -3.044  0.00  0.00    +0.043 A 
ATOM     20  C   UNL     1       8.135   0.593  -3.270  0.00  0.00    +0.044 A 
ATOM     21  C   UNL     1       8.566   0.836  -4.562  0.00  0.00    +0.040 A 
ATOM     22  C   UNL     1       7.718   0.609  -5.632  0.00  0.00    +0.044 A 
ATOM     23  C   UNL     1       6.440   0.131  -5.412  0.00  0.00    +0.043 A 
ATOM     24 CL   UNL     1       8.263   0.916  -7.251  0.00  0.00    -0.083 Cl
ATOM     25 CL   UNL     1       9.202   0.881  -1.931  0.00  0.00    -0.083 Cl
ENDBRANCH  16  18
ENDBRANCH   4  16
TORSDOF 4
