REMARK  Name = ZINC63328800
REMARK  6 active torsions:
REMARK  status: ('A' for Active; 'I' for Inactive)
REMARK    1  A    between atoms: C_7  and  C_10
REMARK    2  A    between atoms: C_10  and  C_11
REMARK    3  A    between atoms: C_11  and  N_12
REMARK    4  A    between atoms: C_13  and  C_15
REMARK    5  A    between atoms: N_17  and  C_18
REMARK    6  A    between atoms: C_20  and  C_25
REMARK                            x       y       z     vdW  Elec       q    Type
REMARK                         _______ _______ _______ _____ _____    ______ ____
ROOT
ATOM      1  N   UNL     1      -0.458  -4.798  -1.460  0.00  0.00    -0.307 N 
ATOM      2  C   UNL     1      -0.811  -5.380  -2.623  0.00  0.00    +0.299 C 
ATOM      3  O   UNL     1      -0.370  -4.957  -3.672  0.00  0.00    -0.265 OA
ATOM      4  H   UNL     1      -0.810  -5.136  -0.622  0.00  0.00    +0.149 HD
ENDROOT
BRANCH   2   5
ATOM      5  C   UNL     1      -1.744  -6.548  -2.622  0.00  0.00    +0.300 C 
ATOM      6  O   UNL     1      -2.184  -6.971  -1.573  0.00  0.00    -0.265 OA
ATOM      7  N   UNL     1      -2.096  -7.130  -3.785  0.00  0.00    -0.287 N 
ATOM      8  H   UNL     1      -1.744  -6.792  -4.623  0.00  0.00    +0.151 HD
BRANCH   7   9
ATOM      9  C   UNL     1      -3.011  -8.274  -3.783  0.00  0.00    +0.197 C 
ATOM     10  C   UNL     1      -2.527  -9.360  -4.766  0.00  0.00    +0.173 C 
ATOM     11  C   UNL     1      -3.651  -9.463  -5.772  0.00  0.00    +0.124 C 
ATOM     12  N   UNL     1      -4.574  -8.647  -5.469  0.00  0.00    -0.196 NA
ATOM     13  N   UNL     1      -4.326  -7.889  -4.322  0.00  0.00    -0.247 N 
ATOM     14  H   UNL     1      -4.919  -7.221  -3.943  0.00  0.00    +0.170 HD
BRANCH  10  15
ATOM     15  C   UNL     1      -1.277  -8.942  -5.423  0.00  0.00    +0.075 C 
ATOM     16  N   UNL     1      -0.313  -8.619  -5.930  0.00  0.00    -0.196 NA
ENDBRANCH  10  15
ENDBRANCH   7   9
ENDBRANCH   2   5
BRANCH   1  17
ATOM     17  C   UNL     1       0.457  -3.653  -1.462  0.00  0.00    +0.109 C 
BRANCH  17  18
ATOM     18  C   UNL     1       0.691  -3.186  -0.024  0.00  0.00    +0.052 C 
BRANCH  18  25
ATOM     19  C   UNL     1      -0.016   1.348   0.009  0.00  0.00    +0.001 A 
ATOM     20  C   UNL     1       1.166   2.101   0.002  0.00  0.00    +0.002 A 
ATOM     21  C   UNL     1       2.391   1.535  -0.013  0.00  0.00    +0.026 A 
ATOM     22  C   UNL     1       2.529   0.120  -0.022  0.00  0.00    +0.043 A 
ATOM     23  N   UNL     1       3.587  -0.654  -0.037  0.00  0.00    -0.380 N 
ATOM     24  C   UNL     1       3.143  -2.053  -0.041  0.00  0.00    +0.144 C 
ATOM     25  C   UNL     1       1.631  -2.008  -0.025  0.00  0.00    -0.040 C 
ATOM     26  C   UNL     1       1.295  -0.698  -0.014  0.00  0.00    -0.001 A 
ATOM     27  C   UNL     1       0.002  -0.004   0.002  0.00  0.00    +0.010 A 
ATOM     28  H   UNL     1       4.509  -0.353  -0.045  0.00  0.00    +0.160 HD
ENDBRANCH  18  25
ENDBRANCH  17  18
ENDBRANCH   1  17
TORSDOF 6
