REMARK  Name = ZINC50817567
REMARK  7 active torsions:
REMARK  status: ('A' for Active; 'I' for Inactive)
REMARK    1  A    between atoms: C_1  and  C_2
REMARK    2  A    between atoms: C_5  and  N_8
REMARK    3  A    between atoms: N_8  and  C_9
REMARK    4  A    between atoms: N_8  and  C_10
REMARK    5  A    between atoms: C_10  and  C_11
REMARK    6  A    between atoms: C_13  and  N_18
REMARK    7  A    between atoms: C_16  and  N_17
REMARK                            x       y       z     vdW  Elec       q    Type
REMARK                         _______ _______ _______ _____ _____    ______ ____
ROOT
ATOM      1  C   UNL     1       6.363   0.120  -1.309  0.00  0.00    -0.041 A 
ATOM      2  C   UNL     1       7.465  -0.685  -1.096  0.00  0.00    +0.036 A 
ATOM      3  C   UNL     1       8.737  -0.149  -1.162  0.00  0.00    +0.126 A 
ATOM      4  C   UNL     1       8.912   1.195  -1.440  0.00  0.00    +0.034 A 
ATOM      5  C   UNL     1       7.814   2.005  -1.654  0.00  0.00    +0.025 A 
ATOM      6  C   UNL     1       6.534   1.468  -1.595  0.00  0.00    +0.026 A 
ENDROOT
BRANCH   6   7
ATOM      7  N   UNL     1       5.422   2.284  -1.816  0.00  0.00    -0.358 N 
ATOM      8  H   UNL     1       4.534   1.895  -1.847  0.00  0.00    +0.142 HD
ATOM      9  H   UNL     1       5.538   3.239  -1.938  0.00  0.00    +0.142 HD
ENDBRANCH   6   7
BRANCH   3  10
ATOM     10  N   UNL     1       9.916  -1.014  -0.933  0.00  0.00    +0.056 N 
ATOM     11  O   UNL     1       9.765  -2.189  -0.689  0.00  0.00    -0.126 OA
ATOM     12  O   UNL     1      11.030  -0.547  -0.990  0.00  0.00    -0.126 OA
ENDBRANCH   3  10
BRANCH   1  13
ATOM     13  C   UNL     1       4.976  -0.466  -1.237  0.00  0.00    -0.041 C 
BRANCH  13  14
ATOM     14  N   UNL     1       4.336  -0.057   0.020  0.00  0.00    +0.382 N 
ATOM     15  C   UNL     1       5.066  -0.641   1.153  0.00  0.00    -0.095 C 
ATOM     16  H   UNL     1       4.351   0.950   0.093  0.00  0.00    -0.081 HD
BRANCH  14  21
ATOM     17  C   UNL     1       0.092   1.540   0.297  0.00  0.00    +0.007 C 
ATOM     18  C   UNL     1       0.070   0.014   0.186  0.00  0.00    -0.014 C 
ATOM     19  C   UNL     1       0.736  -0.412  -1.124  0.00  0.00    +0.002 C 
ATOM     20  C   UNL     1       2.185   0.080  -1.142  0.00  0.00    -0.015 C 
ATOM     21  C   UNL     1       2.945  -0.528   0.038  0.00  0.00    -0.068 C 
ATOM     22  C   UNL     1       2.279  -0.102   1.348  0.00  0.00    -0.015 C 
ATOM     23  C   UNL     1       0.830  -0.594   1.366  0.00  0.00    +0.002 C 
ENDBRANCH  14  21
ENDBRANCH  13  14
ENDBRANCH   1  13
TORSDOF 5
