REMARK  Name = ZINC37157614
REMARK  13 active torsions:
REMARK  status: ('A' for Active; 'I' for Inactive)
REMARK    1  A    between atoms: C_1  and  C_2
REMARK    2  A    between atoms: C_2  and  C_3
REMARK    3  A    between atoms: C_3  and  N_4
REMARK    4  A    between atoms: N_4  and  C_5
REMARK    5  A    between atoms: N_4  and  C_8
REMARK    6  A    between atoms: C_5  and  C_6
REMARK    7  A    between atoms: C_6  and  C_7
REMARK    8  A    between atoms: C_11  and  C_19
REMARK    9  A    between atoms: C_15  and  C_17
REMARK   10  A    between atoms: C_17  and  N_18
REMARK   11  A    between atoms: C_19  and  C_20
REMARK   12  A    between atoms: C_19  and  C_21
REMARK   13  A    between atoms: C_19  and  C_22
REMARK                            x       y       z     vdW  Elec       q    Type
REMARK                         _______ _______ _______ _____ _____    ______ ____
ROOT
ATOM      1  C   UNL     1       1.133  -2.875   2.268  0.00  0.00    -0.067 C 
ATOM      2  C   UNL     1       0.111  -2.712   3.396  0.00  0.00    -0.011 C 
ATOM      3  C   UNL     1      -1.223  -3.325   2.967  0.00  0.00    -0.007 C 
ATOM      4  C   UNL     1      -1.028  -4.813   2.668  0.00  0.00    +0.004 C 
ATOM      5  C   UNL     1      -0.006  -4.976   1.541  0.00  0.00    +0.000 C 
ATOM      6  C   UNL     1       1.328  -4.363   1.969  0.00  0.00    -0.042 C 
ENDROOT
BRANCH   3   7
ATOM      7  C   UNL     1      -2.245  -3.162   4.095  0.00  0.00    -0.035 C 
ATOM      8  C   UNL     1      -2.440  -1.674   4.394  0.00  0.00    +0.011 C 
ATOM      9  C   UNL     1      -3.579  -3.776   3.666  0.00  0.00    +0.011 C 
ATOM     10  C   UNL     1      -1.736  -3.872   5.351  0.00  0.00    +0.011 C 
ENDBRANCH   3   7
BRANCH   1  11
ATOM     11  N   UNL     1       0.645  -2.193   1.062  0.00  0.00    +0.382 N 
ATOM     12  H   UNL     1      -0.235  -2.598   0.780  0.00  0.00    -0.081 HD
BRANCH  11  13
ATOM     13  C   UNL     1       0.457  -0.765   1.350  0.00  0.00    -0.079 C 
BRANCH  13  15
ATOM     14  C   UNL     1       1.583   1.322   2.137  0.00  0.00    +0.002 C 
ATOM     15  C   UNL     1       1.765  -0.175   1.882  0.00  0.00    -0.022 C 
ENDBRANCH  13  15
ENDBRANCH  11  13
BRANCH  11  16
ATOM     16  C   UNL     1       1.626  -2.350  -0.020  0.00  0.00    -0.079 C 
BRANCH  16  17
ATOM     17  C   UNL     1       1.069  -1.736  -1.306  0.00  0.00    -0.022 C 
ATOM     18  C   UNL     1       2.027  -2.022  -2.464  0.00  0.00    +0.002 C 
ENDBRANCH  16  17
ENDBRANCH  11  16
ENDBRANCH   1  11
BRANCH   6  19
ATOM     19  C   UNL     1       1.837  -5.073   3.225  0.00  0.00    -0.085 C 
BRANCH  19  20
ATOM     20  N   UNL     1       2.138  -6.475   2.907  0.00  0.00    +0.378 N 
ATOM     21  H   UNL     1       1.302  -6.933   2.577  0.00  0.00    -0.090 HD
ATOM     22  H   UNL     1       2.847  -6.512   2.189  0.00  0.00    -0.090 HD
ATOM     23  H   UNL     1       2.474  -6.944   3.735  0.00  0.00    -0.090 HD
ENDBRANCH  19  20
ENDBRANCH   6  19
TORSDOF 8
