REMARK  Name = ZINC45664041
REMARK  9 active torsions:
REMARK  status: ('A' for Active; 'I' for Inactive)
REMARK    1  A    between atoms: C_1  and  N_2
REMARK    2  A    between atoms: N_2  and  C_3
REMARK    3  A    between atoms: N_2  and  C_4
REMARK    4  A    between atoms: C_4  and  C_5
REMARK    5  A    between atoms: C_5  and  C_6
REMARK    6  A    between atoms: C_6  and  C_7
REMARK    7  A    between atoms: C_7  and  N_8
REMARK    8  A    between atoms: N_8  and  C_9
REMARK    9  A    between atoms: C_15  and  C_17
REMARK                            x       y       z     vdW  Elec       q    Type
REMARK                         _______ _______ _______ _____ _____    ______ ____
ROOT
ATOM      1  C   UNL     1      -4.137  -6.062  -0.363  0.00  0.00    -0.068 C 
ATOM      2  C   UNL     1      -3.470  -6.675   0.870  0.00  0.00    -0.015 C 
ATOM      3  C   UNL     1      -4.256  -6.282   2.123  0.00  0.00    -0.002 C 
ATOM      4  C   UNL     1      -5.691  -6.801   2.008  0.00  0.00    +0.000 C 
ATOM      5  C   UNL     1      -6.358  -6.188   0.775  0.00  0.00    +0.002 C 
ATOM      6  C   UNL     1      -5.572  -6.580  -0.478  0.00  0.00    -0.022 C 
ENDROOT
BRANCH   6   7
ATOM      7  C   UNL     1      -6.239  -5.968  -1.711  0.00  0.00    -0.009 C 
ATOM      8  C   UNL     1      -7.674  -6.486  -1.825  0.00  0.00    +0.004 C 
ATOM      9  C   UNL     1      -8.341  -5.873  -3.058  0.00  0.00    +0.000 C 
ATOM     10  C   UNL     1      -7.555  -6.266  -4.311  0.00  0.00    +0.000 C 
ATOM     11  C   UNL     1      -6.120  -5.747  -4.197  0.00  0.00    +0.000 C 
ATOM     12  C   UNL     1      -5.453  -6.360  -2.964  0.00  0.00    +0.004 C 
ENDBRANCH   6   7
BRANCH   1  13
ATOM     13  N   UNL     1      -4.154  -4.599  -0.234  0.00  0.00    +0.381 N 
ATOM     14  H   UNL     1      -4.601  -4.343   0.633  0.00  0.00    -0.086 HD
ATOM     15  H   UNL     1      -4.666  -4.199  -1.007  0.00  0.00    -0.086 HD
BRANCH  13  16
ATOM     16  C   UNL     1      -2.776  -4.090  -0.245  0.00  0.00    -0.082 C 
BRANCH  16  17
ATOM     17  C   UNL     1      -2.794  -2.566  -0.111  0.00  0.00    -0.021 C 
BRANCH  17  18
ATOM     18  C   UNL     1      -1.358  -2.037  -0.122  0.00  0.00    -0.020 C 
BRANCH  18  19
ATOM     19  C   UNL     1      -1.376  -0.512   0.012  0.00  0.00    -0.080 C 
BRANCH  19  21
ATOM     20  C   UNL     1      -0.018   1.465   0.010  0.00  0.00    -0.097 C 
ATOM     21  N   UNL     1       0.002  -0.004   0.002  0.00  0.00    +0.376 N 
ATOM     22  C   UNL     1       0.713  -0.491   1.192  0.00  0.00    -0.097 C 
ATOM     23  H   UNL     1       0.474  -0.330  -0.828  0.00  0.00    -0.083 HD
ENDBRANCH  19  21
ENDBRANCH  18  19
ENDBRANCH  17  18
ENDBRANCH  16  17
ENDBRANCH  13  16
ENDBRANCH   1  13
TORSDOF 7
