REMARK  Name = ZINC48845328
REMARK  9 active torsions:
REMARK  status: ('A' for Active; 'I' for Inactive)
REMARK    1  A    between atoms: C_1  and  C_2
REMARK    2  A    between atoms: C_2  and  N_3
REMARK    3  A    between atoms: N_6  and  C_9
REMARK    4  A    between atoms: C_9  and  C_10
REMARK    5  A    between atoms: C_13  and  C_16
REMARK    6  A    between atoms: C_16  and  N_17
REMARK    7  A    between atoms: C_18  and  C_20
REMARK    8  A    between atoms: C_20  and  C_21
REMARK    9  A    between atoms: C_21  and  C_22
REMARK                            x       y       z     vdW  Elec       q    Type
REMARK                         _______ _______ _______ _____ _____    ______ ____
ROOT
ATOM      1  C   UNL     1      -4.799  -4.141  -1.214  0.00  0.00    -0.033 A 
ATOM      2  C   UNL     1      -4.770  -4.748  -2.455  0.00  0.00    +0.005 A 
ATOM      3  C   UNL     1      -4.721  -6.127  -2.549  0.00  0.00    +0.005 A 
ATOM      4  C   UNL     1      -4.700  -6.898  -1.402  0.00  0.00    -0.030 A 
ATOM      5  C   UNL     1      -4.728  -6.290  -0.160  0.00  0.00    +0.005 A 
ATOM      6  C   UNL     1      -4.773  -4.912  -0.066  0.00  0.00    +0.005 A 
ENDROOT
BRANCH   1   7
ATOM      7  C   UNL     1      -4.853  -2.639  -1.111  0.00  0.00    +0.119 C 
BRANCH   7  11
ATOM      8  N   UNL     1      -1.376  -0.512   0.012  0.00  0.00    +0.381 N 
ATOM      9  C   UNL     1      -2.050  -0.124  -1.234  0.00  0.00    -0.063 C 
ATOM     10  C   UNL     1      -3.492  -0.638  -1.215  0.00  0.00    +0.066 C 
ATOM     11  N   UNL     1      -3.486  -2.101  -1.076  0.00  0.00    -0.302 NA
ATOM     12  C   UNL     1      -2.792  -2.506   0.155  0.00  0.00    +0.066 C 
ATOM     13  C   UNL     1      -1.357  -1.977   0.125  0.00  0.00    -0.063 C 
ATOM     14  H   UNL     1      -1.873  -0.121   0.799  0.00  0.00    -0.082 HD
BRANCH   8  16
ATOM     15  C   UNL     1      -0.019   1.526   0.010  0.00  0.00    -0.017 C 
ATOM     16  C   UNL     1       0.002  -0.004   0.002  0.00  0.00    -0.082 C 
ENDBRANCH   8  16
ENDBRANCH   7  11
ENDBRANCH   1   7
BRANCH   4  17
ATOM     17  C   UNL     1      -4.647  -8.400  -1.504  0.00  0.00    +0.139 C 
BRANCH  17  18
ATOM     18  N   UNL     1      -3.250  -8.839  -1.530  0.00  0.00    -0.311 N 
ATOM     19  C   UNL     1      -2.958 -10.152  -1.619  0.00  0.00    +0.213 C 
ATOM     20  O   UNL     1      -3.851 -10.970  -1.678  0.00  0.00    -0.276 OA
ATOM     21  H   UNL     1      -2.535  -8.185  -1.484  0.00  0.00    +0.149 HD
BRANCH  19  22
ATOM     22  C   UNL     1      -1.520 -10.603  -1.646  0.00  0.00    +0.098 C 
BRANCH  22  23
ATOM     23  C   UNL     1      -1.467 -12.129  -1.750  0.00  0.00    +0.041 C 
BRANCH  23  24
ATOM     24  C   UNL     1      -0.007 -12.587  -1.777  0.00  0.00    +0.161 C 
ATOM     25  C   UNL     1       0.076 -14.099  -1.860  0.00  0.00    +0.241 C 
ATOM     26  O   UNL     1      -0.346 -14.808  -2.748  0.00  0.00    -0.273 OA
ATOM     27  N   UNL     1       0.716 -14.490  -0.741  0.00  0.00    -0.239 N 
ATOM     28  C   UNL     1       1.046 -13.447   0.030  0.00  0.00    +0.307 C 
ATOM     29  O   UNL     1       1.630 -13.549   1.091  0.00  0.00    -0.252 OA
ATOM     30  N   UNL     1       0.659 -12.273  -0.501  0.00  0.00    -0.288 N 
ATOM     31  H   UNL     1       0.913 -15.414  -0.520  0.00  0.00    +0.159 HD
ATOM     32  H   UNL     1       0.792 -11.392  -0.119  0.00  0.00    +0.151 HD
ENDBRANCH  23  24
ENDBRANCH  22  23
ENDBRANCH  19  22
ENDBRANCH  17  18
ENDBRANCH   4  17
TORSDOF 8
