REMARK  Name = ZINC08996982
REMARK  4 active torsions:
REMARK  status: ('A' for Active; 'I' for Inactive)
REMARK    1  A    between atoms: C_1  and  C_2
REMARK    2  A    between atoms: C_2  and  C_4
REMARK    3  A    between atoms: C_2  and  N_20
REMARK    4  A    between atoms: C_21  and  C_23
REMARK                            x       y       z     vdW  Elec       q    Type
REMARK                         _______ _______ _______ _____ _____    ______ ____
ROOT
ATOM      1  C   UNL     1      -2.360   5.412   0.659  0.00  0.00    +0.236 C 
ATOM      2  O   UNL     1      -2.399   4.342   0.089  0.00  0.00    -0.274 OA
ATOM      3  N   UNL     1      -3.497   6.104   0.873  0.00  0.00    -0.300 N 
ATOM      4  C   UNL     1      -4.801   5.527   0.520  0.00  0.00    +0.107 C 
ATOM      5  C   UNL     1      -5.549   6.505  -0.384  0.00  0.00    +0.013 C 
ATOM      6  C   UNL     1      -5.627   7.871   0.299  0.00  0.00    -0.022 C 
ATOM      7  C   UNL     1      -4.217   8.411   0.539  0.00  0.00    +0.013 C 
ATOM      8  C   UNL     1      -3.454   7.451   1.458  0.00  0.00    +0.107 C 
ATOM      9  C   UNL     1      -6.399   8.829  -0.567  0.00  0.00    +0.027 A 
ATOM     10  C   UNL     1      -7.680   9.192  -0.327  0.00  0.00    +0.059 A 
ATOM     11  N   UNL     1      -8.053  10.047  -1.279  0.00  0.00    -0.241 NA
ATOM     12  C   UNL     1      -7.054  10.231  -2.104  0.00  0.00    +0.196 A 
ATOM     13  N   UNL     1      -6.003   9.485  -1.690  0.00  0.00    -0.349 N 
ATOM     14  H   UNL     1      -5.106   9.427  -2.128  0.00  0.00    +0.166 HD
ATOM     15  C   UNL     1      -8.477   8.668   0.842  0.00  0.00    +0.038 C 
ATOM     16  C   UNL     1      -7.753   7.431   1.392  0.00  0.00    -0.075 C 
ATOM     17  N   UNL     1      -6.322   7.739   1.599  0.00  0.00    +0.387 N 
ATOM     18  H   UNL     1      -6.238   8.621   2.118  0.00  0.00    -0.085 HD
ATOM     19  H   UNL     1      -5.888   6.981   2.138  0.00  0.00    -0.085 HD
ENDROOT
BRANCH   1  21
ATOM     20  C   UNL     1      -0.907   5.758   2.639  0.00  0.00    +0.038 C 
ATOM     21  C   UNL     1      -1.040   5.968   1.129  0.00  0.00    +0.156 C 
BRANCH  21  22
ATOM     22  N   UNL     1       0.053   5.276   0.442  0.00  0.00    -0.300 N 
ATOM     23  C   UNL     1       1.246   5.885   0.291  0.00  0.00    +0.245 C 
ATOM     24  O   UNL     1       1.415   7.008   0.725  0.00  0.00    -0.270 OA
ATOM     25  H   UNL     1      -0.081   4.380   0.096  0.00  0.00    +0.150 HD
BRANCH  23  26
ATOM     26  C   UNL     1       2.350   5.187  -0.403  0.00  0.00    +0.038 A 
ATOM     27  C   UNL     1       3.587   5.815  -0.561  0.00  0.00    +0.013 A 
ATOM     28  C   UNL     1       4.614   5.157  -1.204  0.00  0.00    +0.002 A 
ATOM     29  C   UNL     1       4.422   3.877  -1.692  0.00  0.00    +0.020 A 
ATOM     30  C   UNL     1       3.198   3.248  -1.538  0.00  0.00    +0.042 A 
ATOM     31  C   UNL     1       2.161   3.896  -0.897  0.00  0.00    +0.033 A 
ATOM     32 CL   UNL     1       2.967   1.641  -2.154  0.00  0.00    -0.084 Cl
ENDBRANCH  23  26
ENDBRANCH  21  22
ENDBRANCH   1  21
TORSDOF 3
