REMARK  Name = ZINC29480619
REMARK  6 active torsions:
REMARK  status: ('A' for Active; 'I' for Inactive)
REMARK    1  A    between atoms: C_1  and  C_2
REMARK    2  A    between atoms: C_15  and  C_17
REMARK    3  A    between atoms: C_17  and  S_18
REMARK    4  A    between atoms: S_18  and  C_19
REMARK    5  A    between atoms: N_20  and  C_21
REMARK    6  A    between atoms: C_21  and  C_22
REMARK                            x       y       z     vdW  Elec       q    Type
REMARK                         _______ _______ _______ _____ _____    ______ ____
ROOT
ATOM      1  C   UNL     1       0.852   4.241  -2.209  0.00  0.00    +0.029 C 
ATOM      2  C   UNL     1       1.917   4.378  -1.119  0.00  0.00    +0.087 C 
ATOM      3  C   UNL     1       3.238   3.797  -1.625  0.00  0.00    +0.118 C 
ATOM      4  C   UNL     1       4.174   3.557  -0.470  0.00  0.00    +0.219 C 
ATOM      5  O   UNL     1       5.102   4.314  -0.278  0.00  0.00    -0.275 OA
ATOM      6  N   UNL     1       3.986   2.503   0.354  0.00  0.00    -0.284 N 
ATOM      7  C   UNL     1       2.865   1.679   0.205  0.00  0.00    +0.055 A 
ATOM      8  C   UNL     1       2.996   0.300   0.183  0.00  0.00    +0.025 A 
ATOM      9  C   UNL     1       1.870  -0.496   0.079  0.00  0.00    +0.002 A 
ATOM     10  C   UNL     1       0.615   0.079  -0.002  0.00  0.00    +0.002 A 
ATOM     11  C   UNL     1       0.476   1.455   0.011  0.00  0.00    +0.025 A 
ATOM     12  C   UNL     1       1.600   2.259   0.106  0.00  0.00    +0.058 A 
ATOM     13  N   UNL     1       1.483   3.656   0.079  0.00  0.00    -0.266 N 
ATOM     14  C   UNL     1       0.980   4.324   1.136  0.00  0.00    +0.230 C 
ATOM     15  O   UNL     1       0.884   5.532   1.101  0.00  0.00    -0.274 OA
ATOM     16  H   UNL     1       4.717   2.288   1.147  0.00  0.00    +0.155 HD
ENDROOT
BRANCH  14  17
ATOM     17  C   UNL     1       0.537   3.568   2.363  0.00  0.00    +0.173 C 
BRANCH  17  18
ATOM     18  S   UNL     1      -0.086   4.735   3.598  0.00  0.00    -0.084 S 
BRANCH  18  19
ATOM     19  C   UNL     1      -0.521   3.614   4.886  0.00  0.00    +0.126 C 
ATOM     20  N   UNL     1      -0.336   2.333   4.725  0.00  0.00    -0.365 N 
ATOM     21  N   UNL     1      -1.055   4.090   6.061  0.00  0.00    -0.339 N 
ATOM     22  H   UNL     1      -1.327   3.390   6.865  0.00  0.00    +0.144 HD
ATOM     23  H   UNL     1      -1.211   5.171   6.196  0.00  0.00    +0.144 HD
ATOM     24  H   UNL     1       0.146   1.957   3.811  0.00  0.00    +0.161 HD
BRANCH  20  25
ATOM     25  C   UNL     1      -0.771   1.395   5.763  0.00  0.00    +0.146 C 
BRANCH  25  26
ATOM     26  C   UNL     1      -1.897   0.515   5.216  0.00  0.00    +0.137 C 
ATOM     27  C   UNL     1      -2.367  -0.471   6.303  0.00  0.00    +0.035 C 
ATOM     28  C   UNL     1      -3.873  -0.155   6.476  0.00  0.00    +0.031 C 
ATOM     29  C   UNL     1      -4.212   0.555   5.141  0.00  0.00    +0.160 C 
ATOM     30  O   UNL     1      -3.025   1.332   4.859  0.00  0.00    -0.375 OA
ENDBRANCH  25  26
ENDBRANCH  20  25
ENDBRANCH  18  19
ENDBRANCH  17  18
ENDBRANCH  14  17
TORSDOF 5
