REMARK  Name = ZINC48574649
REMARK  6 active torsions:
REMARK  status: ('A' for Active; 'I' for Inactive)
REMARK    1  A    between atoms: C_1  and  C_2
REMARK    2  A    between atoms: C_4  and  C_8
REMARK    3  A    between atoms: C_6  and  C_7
REMARK    4  A    between atoms: N_13  and  C_16
REMARK    5  A    between atoms: C_16  and  C_17
REMARK    6  A    between atoms: N_19  and  C_20
REMARK                            x       y       z     vdW  Elec       q    Type
REMARK                         _______ _______ _______ _____ _____    ______ ____
ROOT
ATOM      1  C   UNL     1       0.034  -3.085  -2.144  0.00  0.00    +0.253 C 
ATOM      2  O   UNL     1      -0.099  -2.745  -3.305  0.00  0.00    -0.269 OA
ATOM      3  N   UNL     1       0.155  -4.391  -1.833  0.00  0.00    -0.295 N 
ATOM      4  C   UNL     1       0.163  -4.836  -0.432  0.00  0.00    +0.123 C 
ATOM      5  C   UNL     1      -0.868  -5.958  -0.271  0.00  0.00    +0.104 C 
ATOM      6  N   UNL     1      -0.599  -7.011  -1.258  0.00  0.00    -0.291 NA
ATOM      7  C   UNL     1      -0.754  -6.508  -2.630  0.00  0.00    +0.104 C 
ATOM      8  C   UNL     1       0.276  -5.410  -2.888  0.00  0.00    +0.123 C 
ENDROOT
BRANCH   1  12
ATOM      9  C   UNL     1      -0.622   1.404   0.116  0.00  0.00    +0.044 C 
ATOM     10  C   UNL     1      -0.202  -0.041   0.042  0.00  0.00    -0.040 A 
ATOM     11  C   UNL     1      -0.356  -0.752  -1.124  0.00  0.00    +0.024 A 
ATOM     12  C   UNL     1       0.062  -2.074  -1.083  0.00  0.00    +0.075 A 
ATOM     13  S   UNL     1       0.642  -2.223   0.596  0.00  0.00    -0.089 S 
ATOM     14  C   UNL     1       0.337  -0.657   1.123  0.00  0.00    -0.010 A 
ATOM     15  C   UNL     1       0.599  -0.071   2.487  0.00  0.00    +0.052 C 
ENDBRANCH   1  12
BRANCH   6  16
ATOM     16  C   UNL     1      -1.457  -8.181  -1.027  0.00  0.00    +0.180 C 
BRANCH  16  17
ATOM     17  C   UNL     1      -0.991  -9.325  -1.891  0.00  0.00    +0.227 C 
ATOM     18  O   UNL     1      -0.038  -9.179  -2.627  0.00  0.00    -0.274 OA
ATOM     19  N   UNL     1      -1.632 -10.509  -1.845  0.00  0.00    -0.317 N 
ATOM     20  C   UNL     1      -1.179 -11.620  -2.686  0.00  0.00    +0.128 C 
ATOM     21  H   UNL     1      -2.394 -10.625  -1.256  0.00  0.00    +0.148 HD
ENDBRANCH  16  17
ENDBRANCH   6  16
TORSDOF 3
