REMARK  Name = ZINC59123803
REMARK  6 active torsions:
REMARK  status: ('A' for Active; 'I' for Inactive)
REMARK    1  A    between atoms: C_1  and  C_2
REMARK    2  A    between atoms: C_11  and  N_29
REMARK    3  A    between atoms: C_13  and  C_15
REMARK    4  A    between atoms: C_15  and  S_16
REMARK    5  A    between atoms: S_16  and  C_17
REMARK    6  A    between atoms: N_27  and  C_28
REMARK                            x       y       z     vdW  Elec       q    Type
REMARK                         _______ _______ _______ _____ _____    ______ ____
ROOT
ATOM      1  C   UNL     1       0.591   1.266  -0.734  0.00  0.00    +0.008 C 
ATOM      2  C   UNL     1       0.464  -0.251  -0.580  0.00  0.00    -0.009 C 
ATOM      3  C   UNL     1      -1.014  -0.634  -0.460  0.00  0.00    +0.008 C 
ATOM      4  C   UNL     1      -1.166  -2.152  -0.556  0.00  0.00    +0.037 C 
ATOM      5  C   UNL     1      -0.236  -2.807   0.463  0.00  0.00    -0.025 A 
ATOM      6  C   UNL     1       0.801  -2.118   0.989  0.00  0.00    -0.004 A 
ATOM      7  S   UNL     1       1.596  -3.248   2.103  0.00  0.00    -0.073 S 
ATOM      8  C   UNL     1       0.540  -4.640   1.865  0.00  0.00    +0.114 A 
ATOM      9  C   UNL     1      -0.407  -4.177   0.916  0.00  0.00    +0.051 A 
ATOM     10  C   UNL     1      -1.416  -5.098   0.513  0.00  0.00    +0.128 A 
ATOM     11  N   UNL     1      -1.360  -6.304   1.076  0.00  0.00    -0.216 NA
ATOM     12  C   UNL     1      -0.446  -6.664   1.955  0.00  0.00    +0.143 A 
ATOM     13  N   UNL     1       0.521  -5.856   2.373  0.00  0.00    -0.224 NA
ATOM     14  C   UNL     1       1.197  -0.704   0.691  0.00  0.00    +0.046 C 
ENDROOT
BRANCH  10  15
ATOM     15  N   UNL     1      -2.393  -4.761  -0.406  0.00  0.00    -0.343 N 
ATOM     16  H   UNL     1      -2.279  -3.981  -0.971  0.00  0.00    +0.144 HD
ATOM     17  H   UNL     1      -3.193  -5.304  -0.484  0.00  0.00    +0.144 HD
ENDBRANCH  10  15
BRANCH  12  18
ATOM     18  C   UNL     1      -0.502  -8.063   2.513  0.00  0.00    +0.153 C 
BRANCH  18  19
ATOM     19  S   UNL     1       0.481  -9.171   1.466  0.00  0.00    -0.080 S 
BRANCH  19  20
ATOM     20  C   UNL     1       0.318 -10.745   2.240  0.00  0.00    +0.172 A 
ATOM     21  N   UNL     1      -0.415 -10.836   3.323  0.00  0.00    -0.223 NA
ATOM     22  C   UNL     1      -0.583 -12.009   3.966  0.00  0.00    +0.079 A 
ATOM     23  C   UNL     1      -1.366 -12.106   5.121  0.00  0.00    +0.028 A 
ATOM     24  C   UNL     1      -1.510 -13.315   5.740  0.00  0.00    +0.002 A 
ATOM     25  C   UNL     1      -0.889 -14.453   5.241  0.00  0.00    +0.001 A 
ATOM     26  C   UNL     1      -0.118 -14.390   4.113  0.00  0.00    +0.015 A 
ATOM     27  C   UNL     1       0.046 -13.169   3.460  0.00  0.00    +0.065 A 
ATOM     28  C   UNL     1       0.862 -13.042   2.245  0.00  0.00    +0.262 A 
ATOM     29  O   UNL     1       1.429 -14.005   1.761  0.00  0.00    -0.267 OA
ATOM     30  N   UNL     1       0.956 -11.815   1.681  0.00  0.00    -0.290 N 
ATOM     31  C   UNL     1       1.752 -11.633   0.465  0.00  0.00    +0.154 C 
ENDBRANCH  19  20
ENDBRANCH  18  19
ENDBRANCH  12  18
TORSDOF 4
