REMARK  Name = ZINC36913842
REMARK  5 active torsions:
REMARK  status: ('A' for Active; 'I' for Inactive)
REMARK    1  A    between atoms: C_1  and  C_2
REMARK    2  A    between atoms: N_5  and  C_11
REMARK    3  A    between atoms: C_7  and  C_10
REMARK    4  A    between atoms: C_20  and  C_21
REMARK    5  A    between atoms: C_21  and  N_23
REMARK                            x       y       z     vdW  Elec       q    Type
REMARK                         _______ _______ _______ _____ _____    ______ ____
ROOT
ATOM      1  C   UNL     1       3.185   0.583  -1.997  0.00  0.00    +0.050 A 
ATOM      2  C   UNL     1       3.742  -0.125  -3.089  0.00  0.00    +0.020 A 
ATOM      3  C   UNL     1       3.695  -1.525  -3.147  0.00  0.00    +0.012 A 
ATOM      4  C   UNL     1       4.241  -2.175  -4.213  0.00  0.00    +0.001 A 
ATOM      5  C   UNL     1       4.846  -1.464  -5.246  0.00  0.00    +0.002 A 
ATOM      6  C   UNL     1       4.909  -0.104  -5.220  0.00  0.00    +0.026 A 
ATOM      7  C   UNL     1       4.356   0.600  -4.138  0.00  0.00    +0.048 A 
ATOM      8  N   UNL     1       4.406   1.939  -4.094  0.00  0.00    -0.360 N 
ATOM      9  C   UNL     1       3.899   2.619  -3.098  0.00  0.00    +0.095 A 
ATOM     10  C   UNL     1       3.267   1.983  -2.017  0.00  0.00    +0.040 A 
ATOM     11  H   UNL     1       4.831   2.418  -4.822  0.00  0.00    +0.165 HD
ENDROOT
BRANCH   1  15
ATOM     12  C   UNL     1       3.858  -2.702  -0.433  0.00  0.00    +0.039 C 
ATOM     13  C   UNL     1       3.134  -1.858   0.617  0.00  0.00    +0.133 C 
ATOM     14  C   UNL     1       3.310  -0.371   0.289  0.00  0.00    +0.136 C 
ATOM     15  N   UNL     1       2.577  -0.081  -0.954  0.00  0.00    -0.324 N 
ATOM     16  C   UNL     1       1.175  -0.519  -1.049  0.00  0.00    +0.136 C 
ATOM     17  C   UNL     1       1.104  -1.999  -0.655  0.00  0.00    +0.133 C 
ATOM     18  O   UNL     1       1.742  -2.181   0.612  0.00  0.00    -0.371 OA
ATOM     19  C   UNL     1      -0.360  -2.432  -0.558  0.00  0.00    +0.039 C 
ENDBRANCH   1  15
BRANCH  10  20
ATOM     20  C   UNL     1       2.702   2.776  -0.915  0.00  0.00    +0.080 C 
ATOM     21  S   UNL     1       1.898   1.994   0.378  0.00  0.00    -0.035 S 
BRANCH  20  22
ATOM     22  N   UNL     1       2.817   4.119  -0.923  0.00  0.00    -0.352 N 
ATOM     23  H   UNL     1       3.272   4.563  -1.656  0.00  0.00    +0.143 HD
ATOM     24  H   UNL     1       2.444   4.642  -0.196  0.00  0.00    +0.143 HD
ENDBRANCH  20  22
ENDBRANCH  10  20
TORSDOF 3
