REMARK  Name = ZINC45782177
REMARK  6 active torsions:
REMARK  status: ('A' for Active; 'I' for Inactive)
REMARK    1  A    between atoms: C_1  and  C_2
REMARK    2  A    between atoms: C_2  and  C_4
REMARK    3  A    between atoms: C_2  and  N_14
REMARK    4  A    between atoms: C_7  and  N_10
REMARK    5  A    between atoms: C_15  and  C_17
REMARK    6  A    between atoms: C_18  and  C_19
REMARK                            x       y       z     vdW  Elec       q    Type
REMARK                         _______ _______ _______ _____ _____    ______ ____
ROOT
ATOM      1  N   UNL     1       1.169   0.509   1.416  0.00  0.00    -0.305 N 
ATOM      2  C   UNL     1       0.519   0.127   2.534  0.00  0.00    +0.237 C 
ATOM      3  O   UNL     1      -0.590   0.567   2.774  0.00  0.00    -0.271 OA
ATOM      4  H   UNL     1       2.053   0.158   1.225  0.00  0.00    +0.150 HD
ENDROOT
BRANCH   1   6
ATOM      5  C   UNL     1       0.810   2.885   0.961  0.00  0.00    +0.033 C 
ATOM      6  C   UNL     1       0.540   1.454   0.490  0.00  0.00    +0.100 C 
BRANCH   6   7
ATOM      7  C   UNL     1       1.113   1.262  -0.890  0.00  0.00    -0.027 A 
ATOM      8  C   UNL     1       2.464   1.016  -1.048  0.00  0.00    +0.007 A 
ATOM      9  C   UNL     1       2.993   0.840  -2.312  0.00  0.00    +0.023 A 
ATOM     10  C   UNL     1       2.165   0.910  -3.425  0.00  0.00    +0.035 A 
ATOM     11  C   UNL     1       0.808   1.156  -3.263  0.00  0.00    +0.023 A 
ATOM     12  C   UNL     1       0.285   1.326  -1.996  0.00  0.00    +0.007 A 
BRANCH  10  13
ATOM     13  N   UNL     1       2.697   0.732  -4.707  0.00  0.00    -0.270 N 
ATOM     14  C   UNL     1       3.789  -0.039  -4.882  0.00  0.00    +0.301 C 
ATOM     15  O   UNL     1       4.264  -0.643  -3.940  0.00  0.00    -0.253 OA
ATOM     16  N   UNL     1       4.354  -0.139  -6.102  0.00  0.00    -0.313 N 
ATOM     17  H   UNL     1       2.280   1.163  -5.469  0.00  0.00    +0.156 HD
ATOM     18  H   UNL     1       3.975   0.343  -6.853  0.00  0.00    +0.146 HD
ATOM     19  H   UNL     1       5.140  -0.694  -6.228  0.00  0.00    +0.146 HD
ENDBRANCH  10  13
ENDBRANCH   6   7
ENDBRANCH   1   6
BRANCH   2  20
ATOM     20  C   UNL     1       1.147  -0.817   3.458  0.00  0.00    +0.068 C 
ATOM     21  C   UNL     1       0.448  -1.302   4.507  0.00  0.00    +0.013 C 
BRANCH  21  22
ATOM     22  C   UNL     1      -0.997  -1.062   4.600  0.00  0.00    -0.017 A 
ATOM     23  C   UNL     1      -1.826  -1.285   3.504  0.00  0.00    +0.008 A 
ATOM     24  C   UNL     1      -3.191  -1.057   3.595  0.00  0.00    +0.001 A 
ATOM     25  C   UNL     1      -3.771  -0.612   4.745  0.00  0.00    +0.008 A 
ATOM     26  C   UNL     1      -2.995  -0.365   5.890  0.00  0.00    -0.017 A 
ATOM     27  C   UNL     1      -1.598  -0.590   5.847  0.00  0.00    -0.011 A 
ATOM     28  C   UNL     1      -0.823  -0.350   6.987  0.00  0.00    +0.009 A 
ATOM     29  C   UNL     1      -1.423   0.090   8.130  0.00  0.00    +0.001 A 
ATOM     30  C   UNL     1      -2.798   0.305   8.178  0.00  0.00    +0.001 A 
ATOM     31  C   UNL     1      -3.580   0.095   7.083  0.00  0.00    +0.008 A 
ENDBRANCH  21  22
ENDBRANCH   2  20
TORSDOF 5
