REMARK  Name = ZINC43078720
REMARK  12 active torsions:
REMARK  status: ('A' for Active; 'I' for Inactive)
REMARK    1  A    between atoms: C_1  and  C_2
REMARK    2  A    between atoms: C_2  and  C_4
REMARK    3  A    between atoms: C_2  and  O_17
REMARK    4  A    between atoms: C_7  and  C_11
REMARK    5  A    between atoms: C_11  and  N_12
REMARK    6  A    between atoms: N_12  and  C_13
REMARK    7  A    between atoms: C_13  and  C_14
REMARK    8  A    between atoms: C_13  and  C_15
REMARK    9  A    between atoms: C_13  and  C_16
REMARK   10  A    between atoms: O_17  and  C_18
REMARK   11  A    between atoms: C_20  and  C_26
REMARK   12  A    between atoms: C_22  and  C_23
REMARK                            x       y       z     vdW  Elec       q    Type
REMARK                         _______ _______ _______ _____ _____    ______ ____
ROOT
ATOM      1  C   UNL     1       2.013  -0.764   1.016  0.00  0.00    +0.141 A 
ATOM      2  C   UNL     1       2.661  -0.505  -0.162  0.00  0.00    +0.064 A 
ATOM      3  C   UNL     1       4.012  -0.815  -0.262  0.00  0.00    +0.042 A 
ATOM      4  S   UNL     1       4.368  -1.489   1.352  0.00  0.00    -0.079 S 
ATOM      5  C   UNL     1       2.741  -1.323   2.067  0.00  0.00    +0.116 A 
ENDROOT
BRANCH   3   6
ATOM      6  C   UNL     1       4.915  -0.635  -1.404  0.00  0.00    +0.080 A 
ATOM      7  C   UNL     1       4.619  -0.016  -2.602  0.00  0.00    +0.140 A 
ATOM      8  N   UNL     1       5.700  -0.059  -3.372  0.00  0.00    -0.235 NA
ATOM      9  C   UNL     1       6.684  -0.677  -2.727  0.00  0.00    +0.138 A 
ATOM     10  N   UNL     1       6.229  -1.047  -1.489  0.00  0.00    -0.299 N 
ATOM     11  C   UNL     1       7.047  -1.699  -0.616  0.00  0.00    +0.093 A 
ATOM     12  C   UNL     1       8.322  -1.989  -0.954  0.00  0.00    +0.018 A 
ATOM     13  C   UNL     1       8.820  -1.621  -2.214  0.00  0.00    +0.005 A 
ATOM     14  C   UNL     1       8.009  -0.977  -3.097  0.00  0.00    +0.047 A 
ENDBRANCH   3   6
BRANCH   5  15
ATOM     15  C   UNL     1       2.301  -1.671   3.363  0.00  0.00    +0.252 C 
ATOM     16  O   UNL     1       1.140  -1.487   3.682  0.00  0.00    -0.270 OA
ATOM     17  N   UNL     1       3.167  -2.206   4.247  0.00  0.00    -0.325 N 
ATOM     18  H   UNL     1       4.092  -2.352   3.992  0.00  0.00    +0.145 HD
ATOM     19  H   UNL     1       2.865  -2.445   5.137  0.00  0.00    +0.145 HD
ENDBRANCH   5  15
BRANCH   1  20
ATOM     20  O   UNL     1       0.693  -0.477   1.160  0.00  0.00    -0.483 OA
BRANCH  20  22
ATOM     21  C   UNL     1       0.186   1.500  -0.133  0.00  0.00    +0.057 C 
ATOM     22  C   UNL     1       0.000  -0.013  -0.000  0.00  0.00    +0.203 C 
BRANCH  22  23
ATOM     23  C   UNL     1      -1.468  -0.329   0.131  0.00  0.00    +0.028 A 
ATOM     24  C   UNL     1      -2.034  -0.476   1.384  0.00  0.00    +0.010 A 
ATOM     25  C   UNL     1      -3.380  -0.766   1.504  0.00  0.00    +0.002 A 
ATOM     26  C   UNL     1      -4.161  -0.909   0.373  0.00  0.00    -0.062 A 
ATOM     27  C   UNL     1      -3.598  -0.762  -0.880  0.00  0.00    +0.040 A 
ATOM     28  C   UNL     1      -2.251  -0.466  -1.002  0.00  0.00    +0.130 A 
ATOM     29  F   UNL     1      -1.700  -0.317  -2.227  0.00  0.00    -0.205 F 
BRANCH  26  30
ATOM     30  C   UNL     1      -5.628  -1.227   0.506  0.00  0.00    -0.046 C 
BRANCH  30  31
ATOM     31  N   UNL     1      -6.395   0.024   0.579  0.00  0.00    +0.385 N 
ATOM     32  H   UNL     1      -6.093   0.558   1.380  0.00  0.00    -0.085 HD
ATOM     33  H   UNL     1      -6.243   0.562  -0.261  0.00  0.00    -0.085 HD
BRANCH  31  34
ATOM     34  C   UNL     1      -7.826  -0.285   0.709  0.00  0.00    -0.077 C 
ATOM     35  C   UNL     1      -8.057  -1.100   1.983  0.00  0.00    -0.011 C 
ATOM     36  C   UNL     1      -8.624   1.018   0.785  0.00  0.00    -0.011 C 
ATOM     37  C   UNL     1      -8.285  -1.095  -0.505  0.00  0.00    -0.011 C 
ENDBRANCH  31  34
ENDBRANCH  30  31
ENDBRANCH  26  30
ENDBRANCH  22  23
ENDBRANCH  20  22
ENDBRANCH   1  20
TORSDOF 8
