REMARK  Name = ZINC11756804
REMARK  2 active torsions:
REMARK  status: ('A' for Active; 'I' for Inactive)
REMARK    1  A    between atoms: C_1  and  C_2
REMARK    2  A    between atoms: N_4  and  N_5
REMARK                            x       y       z     vdW  Elec       q    Type
REMARK                         _______ _______ _______ _____ _____    ______ ____
ROOT
ATOM      1  N   UNL     1       3.471  -0.866  -0.035  0.00  0.00    -0.248 N 
ATOM      2  C   UNL     1       2.312  -0.120  -0.020  0.00  0.00    +0.147 A 
ATOM      3  C   UNL     1       2.357   1.296  -0.013  0.00  0.00    +0.042 A 
ATOM      4  C   UNL     1       3.565   2.001  -0.021  0.00  0.00    +0.013 A 
ATOM      5  C   UNL     1       3.547   3.365  -0.013  0.00  0.00    +0.001 A 
ATOM      6  C   UNL     1       2.344   4.064   0.002  0.00  0.00    +0.002 A 
ATOM      7  C   UNL     1       1.149   3.406   0.009  0.00  0.00    +0.028 A 
ATOM      8  C   UNL     1       1.131   2.005   0.002  0.00  0.00    +0.078 A 
ATOM      9  N   UNL     1      -0.016   1.309   0.009  0.00  0.00    -0.217 NA
ATOM     10  C   UNL     1       0.002  -0.004   0.002  0.00  0.00    +0.225 A 
ATOM     11  N   UNL     1       1.124  -0.709  -0.012  0.00  0.00    -0.201 NA
ATOM     12 CL   UNL     1      -1.512  -0.854   0.012  0.00  0.00    -0.041 Cl
ATOM     13  H   UNL     1       4.333  -0.421  -0.041  0.00  0.00    +0.172 HD
ENDROOT
BRANCH   1  17
ATOM     14  C   UNL     1       4.466  -4.499  -0.064  0.00  0.00    +0.110 C 
ATOM     15  C   UNL     1       4.538  -2.994  -0.057  0.00  0.00    +0.226 C 
ATOM     16  O   UNL     1       5.616  -2.438  -0.064  0.00  0.00    -0.275 OA
ATOM     17  N   UNL     1       3.404  -2.265  -0.042  0.00  0.00    -0.236 N 
ATOM     18  H   UNL     1       2.542  -2.709  -0.036  0.00  0.00    +0.173 HD
ENDBRANCH   1  17
TORSDOF 1
