REMARK  Name = ZINC08991427
REMARK  6 active torsions:
REMARK  status: ('A' for Active; 'I' for Inactive)
REMARK    1  A    between atoms: C_1  and  C_2
REMARK    2  A    between atoms: C_2  and  C_31
REMARK    3  A    between atoms: C_4  and  N_10
REMARK    4  A    between atoms: C_6  and  C_8
REMARK    5  A    between atoms: C_6  and  C_9
REMARK    6  A    between atoms: C_11  and  C_13
REMARK                            x       y       z     vdW  Elec       q    Type
REMARK                         _______ _______ _______ _____ _____    ______ ____
ROOT
ATOM      1  C   UNL     1       4.301  -0.888  -4.441  0.00  0.00    +0.092 C 
ATOM      2  C   UNL     1       3.292  -0.616  -5.560  0.00  0.00    +0.016 C 
ATOM      3  C   UNL     1       3.833  -1.165  -6.882  0.00  0.00    +0.020 C 
ATOM      4  C   UNL     1       5.144  -0.451  -7.228  0.00  0.00    +0.106 C 
ATOM      5  N   UNL     1       6.069  -0.585  -6.095  0.00  0.00    -0.313 N 
ATOM      6  C   UNL     1       5.617  -0.171  -4.760  0.00  0.00    +0.119 C 
ATOM      7  C   UNL     1       7.343  -1.091  -6.281  0.00  0.00    +0.154 A 
ATOM      8  C   UNL     1       8.273  -1.105  -5.227  0.00  0.00    +0.148 A 
ATOM      9  C   UNL     1       9.551  -1.632  -5.476  0.00  0.00    +0.164 A 
ATOM     10  N   UNL     1      10.242  -1.523  -4.295  0.00  0.00    -0.329 N 
ATOM     11  H   UNL     1      11.158  -1.800  -4.139  0.00  0.00    +0.168 HD
ATOM     12  C   UNL     1       9.404  -0.954  -3.383  0.00  0.00    +0.198 A 
ATOM     13  N   UNL     1       8.249  -0.709  -3.931  0.00  0.00    -0.231 NA
ATOM     14  N   UNL     1       9.835  -2.094  -6.689  0.00  0.00    -0.198 NA
ATOM     15  C   UNL     1       8.932  -2.061  -7.648  0.00  0.00    +0.226 A 
ATOM     16  N   UNL     1       7.715  -1.581  -7.459  0.00  0.00    -0.200 NA
ATOM     17 CL   UNL     1       9.353  -2.678  -9.215  0.00  0.00    -0.041 Cl
ENDROOT
BRANCH   1  19
ATOM     18  N   UNL     1       2.593  -0.865  -2.652  0.00  0.00    -0.312 N 
ATOM     19  C   UNL     1       3.752  -0.376  -3.134  0.00  0.00    +0.218 C 
ATOM     20  O   UNL     1       4.354   0.477  -2.517  0.00  0.00    -0.275 OA
ATOM     21  H   UNL     1       2.112  -1.548  -3.146  0.00  0.00    +0.149 HD
BRANCH  18  25
ATOM     22  C   UNL     1      -0.052   1.446   0.005  0.00  0.00    -0.010 C 
ATOM     23  C   UNL     1      -0.035  -0.086  -0.028  0.00  0.00    -0.072 C 
ATOM     24  C   UNL     1       0.544  -0.567  -1.354  0.00  0.00    +0.009 C 
ATOM     25  C   UNL     1       2.059  -0.366  -1.378  0.00  0.00    +0.070 C 
ATOM     26  C   UNL     1       2.665  -1.171  -0.228  0.00  0.00    +0.009 C 
ATOM     27  C   UNL     1       2.102  -0.695   1.107  0.00  0.00    -0.072 C 
ATOM     28  N   UNL     1       0.651  -0.631   1.131  0.00  0.00    +0.386 N 
ATOM     29  C   UNL     1       2.725   0.654   1.481  0.00  0.00    -0.010 C 
ATOM     30  C   UNL     1       2.545  -1.712   2.184  0.00  0.00    -0.010 C 
ATOM     31  C   UNL     1      -1.506  -0.557   0.033  0.00  0.00    -0.010 C 
ATOM     32  H   UNL     1       0.367  -0.093   1.955  0.00  0.00    -0.084 HD
ATOM     33  H   UNL     1       0.292  -1.576   1.300  0.00  0.00    -0.084 HD
ENDBRANCH  18  25
ENDBRANCH   1  19
TORSDOF 2
