REMARK  Name = ZINC22843180
REMARK  8 active torsions:
REMARK  status: ('A' for Active; 'I' for Inactive)
REMARK    1  A    between atoms: C_1  and  C_2
REMARK    2  A    between atoms: C_4  and  C_29
REMARK    3  A    between atoms: C_7  and  N_8
REMARK    4  A    between atoms: N_8  and  C_9
REMARK    5  A    between atoms: C_9  and  N_11
REMARK    6  A    between atoms: C_12  and  C_14
REMARK    7  A    between atoms: C_16  and  N_26
REMARK    8  A    between atoms: C_19  and  N_20
REMARK                            x       y       z     vdW  Elec       q    Type
REMARK                         _______ _______ _______ _____ _____    ______ ____
ROOT
ATOM      1  C   UNL     1      -0.056  -0.687   3.577  0.00  0.00    +0.141 C 
ATOM      2  S   UNL     1      -0.034  -2.399   3.577  0.00  0.00    -0.018 S 
ENDROOT
BRANCH   1   3
ATOM      3  N   UNL     1      -0.155  -0.015   4.741  0.00  0.00    -0.264 N 
ATOM      4  C   UNL     1      -0.237  -0.690   5.905  0.00  0.00    +0.251 C 
ATOM      5  O   UNL     1      -0.221  -1.906   5.904  0.00  0.00    -0.270 OA
ATOM      6  H   UNL     1      -0.168   0.955   4.742  0.00  0.00    +0.157 HD
BRANCH   4   7
ATOM      7  C   UNL     1      -0.345   0.045   7.177  0.00  0.00    +0.060 A 
ATOM      8  C   UNL     1      -0.370   1.443   7.182  0.00  0.00    +0.047 A 
ATOM      9  C   UNL     1      -0.471   2.124   8.375  0.00  0.00    +0.127 A 
ATOM     10  C   UNL     1      -0.549   1.431   9.573  0.00  0.00    +0.034 A 
ATOM     11  C   UNL     1      -0.526   0.051   9.585  0.00  0.00    +0.026 A 
ATOM     12  C   UNL     1      -0.430  -0.654   8.392  0.00  0.00    +0.042 A 
BRANCH  12  13
ATOM     13  N   UNL     1      -0.413  -2.042   8.401  0.00  0.00    -0.325 N 
ATOM     14  C   UNL     1       0.854  -2.783   8.510  0.00  0.00    +0.133 C 
ATOM     15  C   UNL     1       0.713  -3.819   9.631  0.00  0.00    +0.178 C 
ATOM     16  O   UNL     1      -0.462  -4.601   9.405  0.00  0.00    -0.377 OA
ATOM     17  C   UNL     1      -1.679  -3.850   9.434  0.00  0.00    +0.178 C 
ATOM     18  C   UNL     1      -1.661  -2.816   8.308  0.00  0.00    +0.133 C 
ENDBRANCH  12  13
BRANCH   9  19
ATOM     19  N   UNL     1      -0.497   3.604   8.378  0.00  0.00    +0.056 N 
ATOM     20  O   UNL     1      -0.428   4.211   7.335  0.00  0.00    -0.126 OA
ATOM     21  O   UNL     1      -0.586   4.205   9.423  0.00  0.00    -0.126 OA
ENDBRANCH   9  19
ENDBRANCH   4   7
ENDBRANCH   1   3
BRANCH   1  22
ATOM     22  N   UNL     1       0.025  -0.012   2.414  0.00  0.00    -0.296 N 
ATOM     23  H   UNL     1       0.075   0.957   2.418  0.00  0.00    +0.154 HD
BRANCH  22  30
ATOM     24  C   UNL     1      -1.710   0.879   0.348  0.00  0.00    +0.045 C 
ATOM     25  C   UNL     1      -0.795  -0.304   0.165  0.00  0.00    -0.029 A 
ATOM     26  C   UNL     1      -0.781  -0.984  -1.033  0.00  0.00    +0.018 A 
ATOM     27  C   UNL     1       0.068  -2.081  -1.202  0.00  0.00    +0.037 A 
ATOM     28  C   UNL     1       0.899  -2.485  -0.154  0.00  0.00    +0.015 A 
ATOM     29  C   UNL     1       0.880  -1.801   1.040  0.00  0.00    +0.024 A 
ATOM     30  C   UNL     1       0.038  -0.706   1.204  0.00  0.00    +0.036 A 
BRANCH  27  31
ATOM     31  C   UNL     1       0.085  -2.812  -2.485  0.00  0.00    +0.230 A 
ATOM     32  N   UNL     1      -0.648  -2.514  -3.530  0.00  0.00    -0.189 NA
ATOM     33  C   UNL     1      -0.371  -3.394  -4.525  0.00  0.00    +0.199 A 
ATOM     34  C   UNL     1       0.600  -4.275  -4.019  0.00  0.00    +0.174 A 
ATOM     35  O   UNL     1       0.861  -3.878  -2.755  0.00  0.00    -0.434 OA
ATOM     36  C   UNL     1       1.080  -5.294  -4.829  0.00  0.00    +0.051 A 
ATOM     37  C   UNL     1       0.576  -5.402  -6.116  0.00  0.00    +0.023 A 
ATOM     38  C   UNL     1      -0.381  -4.500  -6.551  0.00  0.00    +0.113 A 
ATOM     39  N   UNL     1      -0.824  -3.540  -5.767  0.00  0.00    -0.233 NA
ENDBRANCH  27  31
ENDBRANCH  22  30
ENDBRANCH   1  22
TORSDOF 7
