REMARK  Name = ZINC04473497
REMARK  7 active torsions:
REMARK  status: ('A' for Active; 'I' for Inactive)
REMARK    1  A    between atoms: C_1  and  C_2
REMARK    2  A    between atoms: C_2  and  C_3
REMARK    3  A    between atoms: C_2  and  C_4
REMARK    4  A    between atoms: C_2  and  C_5
REMARK    5  A    between atoms: C_12  and  N_23
REMARK    6  A    between atoms: C_13  and  C_21
REMARK    7  A    between atoms: C_14  and  C_16
REMARK                            x       y       z     vdW  Elec       q    Type
REMARK                         _______ _______ _______ _____ _____    ______ ____
ROOT
ATOM      1  C   UNL     1       1.269  -0.367  -1.647  0.00  0.00    +0.076 A 
ATOM      2  C   UNL     1       1.093  -1.714  -1.933  0.00  0.00    +0.050 A 
ATOM      3  C   UNL     1       1.683  -1.971  -3.140  0.00  0.00    +0.223 A 
ATOM      4  N   UNL     1       2.209  -0.820  -3.588  0.00  0.00    -0.246 N 
ATOM      5  H   UNL     1       2.691  -0.698  -4.421  0.00  0.00    +0.192 HD
ATOM      6  N   UNL     1       1.933   0.177  -2.639  0.00  0.00    -0.175 NA
ATOM      7  O   UNL     1       1.683  -3.203  -3.707  0.00  0.00    -0.423 OA
ATOM      8  C   UNL     1       0.851  -4.129  -3.189  0.00  0.00    +0.200 C 
ATOM      9  C   UNL     1       0.221  -3.994  -2.001  0.00  0.00    +0.099 C 
ATOM     10  C   UNL     1       0.396  -2.778  -1.126  0.00  0.00    +0.108 C 
ENDROOT
BRANCH  10  11
ATOM     11  C   UNL     1       1.232  -3.133   0.077  0.00  0.00    +0.003 A 
ATOM     12  C   UNL     1       0.859  -3.232   1.377  0.00  0.00    +0.012 A 
ATOM     13  C   UNL     1       1.806  -3.576   2.322  0.00  0.00    +0.008 A 
ATOM     14  C   UNL     1       3.081  -3.805   1.921  0.00  0.00    +0.045 A 
ATOM     15  S   UNL     1       2.968  -3.540   0.160  0.00  0.00    -0.101 S 
ENDBRANCH  10  11
BRANCH   1  17
ATOM     16  C   UNL     1       0.965   1.856  -0.590  0.00  0.00    +0.017 C 
ATOM     17  C   UNL     1       0.777   0.347  -0.415  0.00  0.00    +0.007 C 
ATOM     18  C   UNL     1       1.573  -0.128   0.802  0.00  0.00    +0.017 C 
ATOM     19  C   UNL     1      -0.707   0.040  -0.205  0.00  0.00    +0.017 C 
ENDBRANCH   1  17
BRANCH   8  20
ATOM     20  N   UNL     1       0.631  -5.276  -3.911  0.00  0.00    -0.328 N 
ATOM     21  H   UNL     1       1.069  -5.402  -4.767  0.00  0.00    +0.145 HD
ATOM     22  H   UNL     1       0.037  -5.960  -3.564  0.00  0.00    +0.145 HD
ENDBRANCH   8  20
BRANCH   9  23
ATOM     23  C   UNL     1      -0.645  -5.045  -1.556  0.00  0.00    +0.101 C 
ATOM     24  N   UNL     1      -1.331  -5.878  -1.204  0.00  0.00    -0.191 NA
ENDBRANCH   9  23
TORSDOF 4
