REMARK  Name = ZINC56624813
REMARK  11 active torsions:
REMARK  status: ('A' for Active; 'I' for Inactive)
REMARK    1  A    between atoms: C_1  and  N_2
REMARK    2  A    between atoms: N_2  and  C_3
REMARK    3  A    between atoms: N_2  and  C_4
REMARK    4  A    between atoms: C_4  and  C_6
REMARK    5  A    between atoms: C_4  and  C_23
REMARK    6  A    between atoms: C_6  and  N_7
REMARK    7  A    between atoms: N_10  and  N_11
REMARK    8  A    between atoms: C_12  and  C_14
REMARK    9  A    between atoms: C_14  and  C_15
REMARK   10  A    between atoms: C_20  and  O_21
REMARK   11  A    between atoms: O_21  and  C_22
REMARK                            x       y       z     vdW  Elec       q    Type
REMARK                         _______ _______ _______ _____ _____    ______ ____
ROOT
ATOM      1  N   UNL     1      -1.766   1.531  -1.169  0.00  0.00    -0.299 N 
ATOM      2  C   UNL     1      -2.260   2.263  -2.188  0.00  0.00    +0.316 C 
ATOM      3  O   UNL     1      -2.936   1.731  -3.047  0.00  0.00    -0.251 OA
ATOM      4  N   UNL     1      -2.004   3.585  -2.254  0.00  0.00    -0.218 N 
ATOM      5  H   UNL     1      -1.227   1.956  -0.484  0.00  0.00    +0.150 HD
ATOM      6  H   UNL     1      -2.360   4.111  -2.987  0.00  0.00    +0.174 HD
ENDROOT
BRANCH   4   7
ATOM      7  N   UNL     1      -1.225   4.198  -1.264  0.00  0.00    -0.233 N 
ATOM      8  C   UNL     1      -0.969   5.519  -1.330  0.00  0.00    +0.234 C 
ATOM      9  O   UNL     1      -1.414   6.178  -2.247  0.00  0.00    -0.274 OA
ATOM     10  H   UNL     1      -0.870   3.671  -0.531  0.00  0.00    +0.173 HD
BRANCH   8  11
ATOM     11  C   UNL     1      -0.131   6.179  -0.266  0.00  0.00    +0.136 C 
BRANCH  11  12
ATOM     12  C   UNL     1       0.004   7.648  -0.571  0.00  0.00    +0.003 A 
ATOM     13  C   UNL     1       1.104   8.112  -1.266  0.00  0.00    +0.008 A 
ATOM     14  C   UNL     1       1.228   9.460  -1.546  0.00  0.00    +0.001 A 
ATOM     15  C   UNL     1       0.252  10.348  -1.131  0.00  0.00    +0.004 A 
ATOM     16  C   UNL     1      -0.850   9.889  -0.436  0.00  0.00    +0.046 A 
ATOM     17  C   UNL     1      -0.980   8.536  -0.158  0.00  0.00    +0.124 A 
BRANCH  17  18
ATOM     18  O   UNL     1      -2.065   8.081   0.521  0.00  0.00    -0.495 OA
ATOM     19  C   UNL     1      -3.038   9.052   0.914  0.00  0.00    +0.277 C 
ENDBRANCH  17  18
ENDBRANCH  11  12
ENDBRANCH   8  11
ENDBRANCH   4   7
BRANCH   1  20
ATOM     20  C   UNL     1      -2.044   0.095  -1.098  0.00  0.00    +0.095 C 
BRANCH  20  21
ATOM     21  C   UNL     1      -1.282  -0.514   0.081  0.00  0.00    -0.020 C 
BRANCH  21  22
ATOM     22  C   UNL     1      -1.799   0.071   1.370  0.00  0.00    -0.052 A 
ATOM     23  C   UNL     1      -1.113   1.091   2.003  0.00  0.00    +0.009 A 
ATOM     24  C   UNL     1      -1.605   1.595   3.161  0.00  0.00    +0.045 A 
ATOM     25  S   UNL     1      -3.083   0.619   3.389  0.00  0.00    -0.105 S 
ATOM     26  C   UNL     1      -2.947  -0.391   1.923  0.00  0.00    +0.047 A 
ENDBRANCH  21  22
BRANCH  21  28
ATOM     27  C   UNL     1      -0.983  -2.539  -1.170  0.00  0.00    -0.096 C 
ATOM     28  N   UNL     1      -1.477  -1.970   0.091  0.00  0.00    +0.382 N 
ATOM     29  C   UNL     1      -0.736  -2.556   1.216  0.00  0.00    -0.096 C 
ATOM     30  H   UNL     1      -2.460  -2.177   0.191  0.00  0.00    -0.082 HD
ENDBRANCH  21  28
ENDBRANCH  20  21
ENDBRANCH   1  20
TORSDOF 8
