REMARK  Name = ZINC37337953
REMARK  5 active torsions:
REMARK  status: ('A' for Active; 'I' for Inactive)
REMARK    1  A    between atoms: C_1  and  C_2
REMARK    2  A    between atoms: N_12  and  S_13
REMARK    3  A    between atoms: S_13  and  C_16
REMARK    4  A    between atoms: C_19  and  C_21
REMARK    5  A    between atoms: C_21  and  N_22
REMARK                            x       y       z     vdW  Elec       q    Type
REMARK                         _______ _______ _______ _____ _____    ______ ____
ROOT
ATOM      1  S   UNL     1       1.818   0.519   1.952  0.00  0.00    +0.081 S 
ATOM      2  O   UNL     1       1.266   1.824   1.842  0.00  0.00    -0.149 OA
ATOM      3  O   UNL     1       2.083  -0.094   3.207  0.00  0.00    -0.149 OA
ENDROOT
BRANCH   1  14
ATOM      4  C   UNL     1      -0.132   1.541   0.133  0.00  0.00    +0.030 C 
ATOM      5  C   UNL     1      -0.061   0.015   0.058  0.00  0.00    +0.095 C 
ATOM      6  C   UNL     1      -1.462  -0.580   0.250  0.00  0.00    +0.029 C 
ATOM      7  C   UNL     1      -1.378  -2.099   0.102  0.00  0.00    +0.039 C 
ATOM      8  C   UNL     1      -0.294  -2.655   0.987  0.00  0.00    -0.025 A 
ATOM      9  C   UNL     1      -0.333  -3.996   1.332  0.00  0.00    +0.005 A 
ATOM     10  C   UNL     1       0.649  -4.537   2.140  0.00  0.00    +0.000 A 
ATOM     11  C   UNL     1       1.678  -3.741   2.610  0.00  0.00    +0.002 A 
ATOM     12  C   UNL     1       1.723  -2.404   2.272  0.00  0.00    +0.025 A 
ATOM     13  C   UNL     1       0.736  -1.857   1.460  0.00  0.00    +0.055 A 
ATOM     14  N   UNL     1       0.797  -0.497   1.135  0.00  0.00    -0.200 N 
ENDBRANCH   1  14
BRANCH   1  15
ATOM     15  C   UNL     1       3.344   0.541   1.071  0.00  0.00    +0.146 A 
ATOM     16  C   UNL     1       3.740   1.367   0.072  0.00  0.00    +0.037 A 
ATOM     17  C   UNL     1       4.998   1.199  -0.477  0.00  0.00    +0.011 A 
ATOM     18  C   UNL     1       5.798   0.214   0.000  0.00  0.00    -0.026 A 
ATOM     19  S   UNL     1       4.772  -0.511   1.269  0.00  0.00    -0.075 S 
BRANCH  18  20
ATOM     20  C   UNL     1       7.192  -0.167  -0.426  0.00  0.00    -0.043 C 
BRANCH  20  21
ATOM     21  N   UNL     1       8.170   0.589   0.369  0.00  0.00    +0.381 N 
ATOM     22  H   UNL     1       8.031   1.577   0.222  0.00  0.00    -0.090 HD
ATOM     23  H   UNL     1       8.046   0.373   1.347  0.00  0.00    -0.090 HD
ATOM     24  H   UNL     1       9.104   0.334   0.084  0.00  0.00    -0.090 HD
ENDBRANCH  20  21
ENDBRANCH  18  20
ENDBRANCH   1  15
TORSDOF 4
