REMARK  Name = ZINC37972748
REMARK  7 active torsions:
REMARK  status: ('A' for Active; 'I' for Inactive)
REMARK    1  A    between atoms: C_1  and  C_2
REMARK    2  A    between atoms: C_2  and  O_3
REMARK    3  A    between atoms: O_3  and  C_4
REMARK    4  A    between atoms: C_4  and  C_6
REMARK    5  A    between atoms: C_6  and  C_8
REMARK    6  A    between atoms: C_6  and  N_15
REMARK    7  A    between atoms: N_15  and  C_16
REMARK                            x       y       z     vdW  Elec       q    Type
REMARK                         _______ _______ _______ _____ _____    ______ ____
ROOT
ATOM      1  C   UNL     1      -2.751  -2.519   0.128  0.00  0.00    +0.043 C 
ENDROOT
BRANCH   1   2
ATOM      2  C   UNL     1      -3.617  -2.058   1.301  0.00  0.00    -0.011 C 
ATOM      3  C   UNL     1      -3.552  -0.530   1.421  0.00  0.00    +0.007 C 
ATOM      4  C   UNL     1      -4.561  -0.084   2.482  0.00  0.00    +0.027 C 
ATOM      5  C   UNL     1      -4.390  -0.897   3.731  0.00  0.00    -0.031 C 
ATOM      6  C   UNL     1      -3.754  -2.023   3.782  0.00  0.00    -0.031 C 
ATOM      7  C   UNL     1      -3.092  -2.672   2.601  0.00  0.00    +0.029 C 
ENDBRANCH   1   2
BRANCH   1   8
ATOM      8  N   UNL     1      -2.906  -3.968  -0.056  0.00  0.00    +0.390 N 
ATOM      9  H   UNL     1      -2.512  -4.451   0.738  0.00  0.00    -0.084 HD
ATOM     10  H   UNL     1      -3.886  -4.194  -0.135  0.00  0.00    -0.084 HD
BRANCH   8  11
ATOM     11  C   UNL     1      -2.207  -4.384  -1.279  0.00  0.00    -0.071 C 
ATOM     12  C   UNL     1      -2.887  -3.720  -2.494  0.00  0.00    -0.016 C 
ATOM     13  C   UNL     1      -1.915  -3.714  -3.642  0.00  0.00    -0.002 C 
ATOM     14  C   UNL     1      -2.091  -4.931  -4.570  0.00  0.00    -0.000 C 
ATOM     15  C   UNL     1      -2.333  -6.242  -3.798  0.00  0.00    -0.000 C 
ATOM     16  C   UNL     1      -1.451  -6.367  -2.585  0.00  0.00    -0.002 C 
ATOM     17  C   UNL     1      -2.224  -5.838  -1.360  0.00  0.00    -0.016 C 
ENDBRANCH   8  11
ENDBRANCH   1   8
BRANCH   1  18
ATOM     18  C   UNL     1      -1.306  -2.201   0.414  0.00  0.00    +0.293 C 
ATOM     19  O   UNL     1      -0.489  -3.090   0.461  0.00  0.00    -0.253 OA
BRANCH  18  20
ATOM     20  O   UNL     1      -0.926  -0.929   0.618  0.00  0.00    -0.466 OA
BRANCH  20  22
ATOM     21  C   UNL     1       0.699   0.797   1.087  0.00  0.00    +0.048 C 
ATOM     22  C   UNL     1       0.459  -0.701   0.884  0.00  0.00    +0.228 C 
ENDBRANCH  20  22
ENDBRANCH  18  20
ENDBRANCH   1  18
TORSDOF 6
