REMARK  Name = ZINC57378874
REMARK  7 active torsions:
REMARK  status: ('A' for Active; 'I' for Inactive)
REMARK    1  A    between atoms: N_3  and  C_6
REMARK    2  A    between atoms: C_6  and  C_7
REMARK    3  A    between atoms: C_7  and  C_8
REMARK    4  A    between atoms: C_8  and  C_9
REMARK    5  A    between atoms: C_9  and  N_10
REMARK    6  A    between atoms: N_13  and  N_14
REMARK    7  A    between atoms: C_15  and  C_17
REMARK                            x       y       z     vdW  Elec       q    Type
REMARK                         _______ _______ _______ _____ _____    ______ ____
ROOT
ATOM      1  N   UNL     1       7.563   0.568   2.818  0.00  0.00    -0.298 N 
ATOM      2  C   UNL     1       8.248   0.553   3.979  0.00  0.00    +0.316 C 
ATOM      3  O   UNL     1       7.650   0.555   5.037  0.00  0.00    -0.251 OA
ATOM      4  N   UNL     1       9.595   0.535   3.966  0.00  0.00    -0.218 N 
ATOM      5  H   UNL     1       8.040   0.566   1.973  0.00  0.00    +0.150 HD
ATOM      6  H   UNL     1      10.088   0.523   4.801  0.00  0.00    +0.174 HD
ENDROOT
BRANCH   4   7
ATOM      7  N   UNL     1      10.284   0.532   2.746  0.00  0.00    -0.229 N 
ATOM      8  C   UNL     1      11.632   0.513   2.733  0.00  0.00    +0.267 C 
ATOM      9  O   UNL     1      12.250   0.499   3.781  0.00  0.00    -0.268 OA
ATOM     10  H   UNL     1       9.791   0.543   1.911  0.00  0.00    +0.173 HD
BRANCH   8  11
ATOM     11  C   UNL     1      12.352   0.510   1.456  0.00  0.00    +0.076 A 
ATOM     12  C   UNL     1      13.710   0.487   1.222  0.00  0.00    +0.024 A 
ATOM     13  C   UNL     1      14.124   0.517  -0.113  0.00  0.00    -0.036 A 
ATOM     14  C   UNL     1      13.160   0.607  -1.049  0.00  0.00    -0.006 A 
ATOM     15  S   UNL     1      11.706   0.527  -0.202  0.00  0.00    -0.088 S 
ATOM     16  C   UNL     1      13.207   0.821  -2.542  0.00  0.00    +0.043 C 
ATOM     17  C   UNL     1      14.636   0.979  -3.062  0.00  0.00    +0.005 C 
ATOM     18  C   UNL     1      15.314  -0.374  -3.204  0.00  0.00    +0.000 C 
ATOM     19  C   UNL     1      14.950  -1.335  -2.091  0.00  0.00    +0.000 C 
ATOM     20  C   UNL     1      15.885  -1.029  -0.916  0.00  0.00    +0.005 C 
ATOM     21  C   UNL     1      15.609   0.390  -0.421  0.00  0.00    +0.036 C 
ENDBRANCH   8  11
ENDBRANCH   4   7
BRANCH   1  22
ATOM     22  C   UNL     1       6.098   0.588   2.832  0.00  0.00    +0.106 C 
BRANCH  22  23
ATOM     23  C   UNL     1       5.574   0.603   1.395  0.00  0.00    +0.020 C 
BRANCH  23  24
ATOM     24  C   UNL     1       4.044   0.624   1.409  0.00  0.00    +0.023 C 
BRANCH  24  25
ATOM     25  C   UNL     1       3.521   0.638  -0.028  0.00  0.00    +0.123 C 
BRANCH  25  28
ATOM     26  C   UNL     1      -0.016   1.337   0.009  0.00  0.00    +0.101 A 
ATOM     27  C   UNL     1       1.259   1.771  -0.000  0.00  0.00    +0.104 A 
ATOM     28  N   UNL     1       2.056   0.658  -0.014  0.00  0.00    -0.338 N 
ATOM     29  C   UNL     1       1.240  -0.418  -0.012  0.00  0.00    +0.173 A 
ATOM     30  N   UNL     1       0.002  -0.004   0.002  0.00  0.00    -0.352 N 
ATOM     31  H   UNL     1      -0.781  -0.576   0.007  0.00  0.00    +0.166 HD
ENDBRANCH  25  28
ENDBRANCH  24  25
ENDBRANCH  23  24
ENDBRANCH  22  23
ENDBRANCH   1  22
TORSDOF 7
