REMARK  Name = ZINC43367315
REMARK  7 active torsions:
REMARK  status: ('A' for Active; 'I' for Inactive)
REMARK    1  A    between atoms: C_1  and  C_2
REMARK    2  A    between atoms: C_5  and  C_7
REMARK    3  A    between atoms: C_7  and  C_9
REMARK    4  A    between atoms: C_7  and  S_13
REMARK    5  A    between atoms: C_9  and  C_11
REMARK    6  A    between atoms: C_9  and  N_12
REMARK    7  A    between atoms: S_13  and  C_14
REMARK                            x       y       z     vdW  Elec       q    Type
REMARK                         _______ _______ _______ _____ _____    ______ ____
ROOT
ATOM      1  C   UNL     1       1.613  -3.282  -0.055  0.00  0.00    +0.105 C 
ENDROOT
BRANCH   1   6
ATOM      2  C   UNL     1      -0.372   1.335   0.376  0.00  0.00    +0.086 C 
ATOM      3  C   UNL     1      -0.258  -0.165   0.294  0.00  0.00    +0.102 A 
ATOM      4  C   UNL     1      -1.280  -1.037   0.366  0.00  0.00    +0.044 A 
ATOM      5  C   UNL     1      -0.723  -2.331   0.245  0.00  0.00    +0.046 A 
ATOM      6  C   UNL     1       0.606  -2.173   0.106  0.00  0.00    +0.117 A 
ATOM      7  O   UNL     1       0.881  -0.859   0.131  0.00  0.00    -0.464 OA
ENDBRANCH   1   6
BRANCH   1   8
ATOM      8  C   UNL     1       2.348  -3.113  -1.386  0.00  0.00    -0.057 C 
ATOM      9  C   UNL     1       3.300  -4.292  -1.597  0.00  0.00    -0.013 C 
BRANCH   8  10
ATOM     10  N   UNL     1       1.372  -3.070  -2.483  0.00  0.00    +0.381 N 
ATOM     11  H   UNL     1       0.744  -2.292  -2.344  0.00  0.00    -0.090 HD
ATOM     12  H   UNL     1       1.856  -2.959  -3.361  0.00  0.00    -0.090 HD
ATOM     13  H   UNL     1       0.844  -3.930  -2.497  0.00  0.00    -0.090 HD
ENDBRANCH   8  10
ENDBRANCH   1   8
BRANCH   1  14
ATOM     14  S   UNL     1       2.808  -3.216   1.308  0.00  0.00    -0.076 S 
BRANCH  14  15
ATOM     15  C   UNL     1       1.863  -3.666   2.725  0.00  0.00    +0.192 A 
ATOM     16  N   UNL     1       0.572  -3.910   2.761  0.00  0.00    -0.122 NA
ATOM     17  N   UNL     1       0.217  -4.217   3.960  0.00  0.00    -0.134 NA
ATOM     18  C   UNL     1       1.251  -4.190   4.748  0.00  0.00    +0.134 A 
ATOM     19  N   UNL     1       2.331  -3.832   3.993  0.00  0.00    -0.306 N 
ATOM     20  C   UNL     1       3.703  -3.652   4.466  0.00  0.00    +0.125 C 
ATOM     21  C   UNL     1       3.940  -4.547   5.685  0.00  0.00    +0.022 C 
ATOM     22  C   UNL     1       3.563  -3.794   6.960  0.00  0.00    +0.002 C 
ATOM     23  C   UNL     1       2.084  -3.421   6.946  0.00  0.00    +0.008 C 
ATOM     24  C   UNL     1       1.283  -4.501   6.223  0.00  0.00    +0.076 C 
ENDBRANCH  14  15
ENDBRANCH   1  14
TORSDOF 5
