REMARK  Name = ZINC64743930
REMARK  9 active torsions:
REMARK  status: ('A' for Active; 'I' for Inactive)
REMARK    1  A    between atoms: C_1  and  C_2
REMARK    2  A    between atoms: C_2  and  C_4
REMARK    3  A    between atoms: C_2  and  N_10
REMARK    4  A    between atoms: C_4  and  C_5
REMARK    5  A    between atoms: C_11  and  C_13
REMARK    6  A    between atoms: C_13  and  C_14
REMARK    7  A    between atoms: C_20  and  C_22
REMARK    8  A    between atoms: C_28  and  O_32
REMARK    9  A    between atoms: O_32  and  C_33
REMARK                            x       y       z     vdW  Elec       q    Type
REMARK                         _______ _______ _______ _____ _____    ______ ____
ROOT
ATOM      1  C   UNL     1       4.287  -1.129   2.114  0.00  0.00    +0.001 C 
ATOM      2  C   UNL     1       4.581  -2.155   1.017  0.00  0.00    +0.023 C 
ATOM      3  C   UNL     1       6.082  -2.157   0.715  0.00  0.00    +0.108 C 
ATOM      4  N   UNL     1       6.816  -2.385   1.967  0.00  0.00    -0.300 N 
ATOM      5  C   UNL     1       6.543  -1.510   3.116  0.00  0.00    +0.108 C 
ATOM      6  C   UNL     1       5.036  -1.516   3.391  0.00  0.00    +0.023 C 
ATOM      7  C   UNL     1       7.723  -3.377   2.061  0.00  0.00    +0.242 C 
ATOM      8  O   UNL     1       7.940  -4.092   1.105  0.00  0.00    -0.273 OA
ENDROOT
BRANCH   7   9
ATOM      9  C   UNL     1       8.468  -3.598   3.352  0.00  0.00    +0.190 C 
ATOM     10  C   UNL     1       9.305  -2.384   3.686  0.00  0.00    +0.016 C 
ATOM     11  C   UNL     1      10.587  -2.807   3.716  0.00  0.00    -0.003 A 
ATOM     12  C   UNL     1      11.855  -2.114   3.980  0.00  0.00    +0.013 A 
ATOM     13  C   UNL     1      13.008  -2.816   3.939  0.00  0.00    +0.046 A 
ATOM     14  C   UNL     1      13.023  -4.194   3.650  0.00  0.00    +0.122 A 
ATOM     15  C   UNL     1      11.891  -4.899   3.396  0.00  0.00    +0.071 A 
ATOM     16  C   UNL     1      10.628  -4.256   3.415  0.00  0.00    +0.047 A 
ATOM     17  N   UNL     1       9.413  -4.712   3.206  0.00  0.00    -0.370 N 
ATOM     18  H   UNL     1       9.179  -5.628   2.992  0.00  0.00    +0.161 HD
BRANCH  14  19
ATOM     19  O   UNL     1      14.214  -4.842   3.624  0.00  0.00    -0.495 OA
ATOM     20  C   UNL     1      15.382  -4.064   3.897  0.00  0.00    +0.277 C 
ENDBRANCH  14  19
ENDBRANCH   7   9
BRANCH   1  21
ATOM     21  C   UNL     1       2.783  -1.099   2.395  0.00  0.00    +0.099 C 
BRANCH  21  23
ATOM     22  N   UNL     1       0.711  -0.489   1.189  0.00  0.00    -0.312 N 
ATOM     23  C   UNL     1       2.054  -0.600   1.174  0.00  0.00    +0.214 C 
ATOM     24  O   UNL     1       2.676  -0.297   0.177  0.00  0.00    -0.276 OA
ATOM     25  H   UNL     1       0.213  -0.731   1.986  0.00  0.00    +0.149 HD
BRANCH  22  27
ATOM     26  C   UNL     1      -0.019   1.526   0.010  0.00  0.00    +0.028 C 
ATOM     27  C   UNL     1       0.002  -0.004   0.002  0.00  0.00    +0.077 C 
BRANCH  27  28
ATOM     28  C   UNL     1      -1.433  -0.534   0.013  0.00  0.00    +0.096 C 
BRANCH  28  29
ATOM     29  C   UNL     1      -1.416  -2.035  -0.119  0.00  0.00    +0.107 A 
ATOM     30  C   UNL     1      -1.369  -2.913   0.898  0.00  0.00    +0.045 A 
ATOM     31  C   UNL     1      -1.369  -4.205   0.324  0.00  0.00    +0.041 A 
ATOM     32  C   UNL     1      -1.417  -4.039  -1.010  0.00  0.00    +0.195 A 
ATOM     33  O   UNL     1      -1.451  -2.722  -1.272  0.00  0.00    -0.468 OA
ENDBRANCH  28  29
ENDBRANCH  27  28
ENDBRANCH  22  27
ENDBRANCH  21  23
ENDBRANCH   1  21
TORSDOF 7
