REMARK  Name = ZINC00234609
REMARK  8 active torsions:
REMARK  status: ('A' for Active; 'I' for Inactive)
REMARK    1  A    between atoms: C_1  and  C_2
REMARK    2  A    between atoms: C_2  and  C_4
REMARK    3  A    between atoms: C_2  and  N_17
REMARK    4  A    between atoms: N_6  and  N_7
REMARK    5  A    between atoms: C_8  and  C_9
REMARK    6  A    between atoms: C_12  and  O_16
REMARK    7  A    between atoms: C_14  and  O_15
REMARK    8  A    between atoms: N_17  and  C_18
REMARK                            x       y       z     vdW  Elec       q    Type
REMARK                         _______ _______ _______ _____ _____    ______ ____
ROOT
ATOM      1  C   UNL     1      -6.016   3.230   0.077  0.00  0.00    +0.252 C 
ATOM      2  O   UNL     1      -6.006   2.016   0.071  0.00  0.00    -0.272 OA
ATOM      3  N   UNL     1      -4.854   3.913   0.069  0.00  0.00    -0.205 N 
ATOM      4  H   UNL     1      -4.862   4.883   0.073  0.00  0.00    +0.177 HD
ENDROOT
BRANCH   1   6
ATOM      5  C   UNL     1      -7.403   4.846   1.347  0.00  0.00    +0.038 C 
ATOM      6  C   UNL     1      -7.327   3.973   0.093  0.00  0.00    +0.155 C 
BRANCH   6   7
ATOM      7  N   UNL     1      -8.433   3.012   0.099  0.00  0.00    -0.333 N 
ATOM      8  H   UNL     1      -8.296   2.118   0.448  0.00  0.00    +0.147 HD
BRANCH   7   9
ATOM      9  C   UNL     1      -9.680   3.383  -0.398  0.00  0.00    +0.035 A 
ATOM     10  C   UNL     1      -9.883   4.655  -0.891  0.00  0.00    +0.023 A 
ATOM     11  C   UNL     1     -11.124   5.034  -1.392  0.00  0.00    +0.002 A 
ATOM     12  C   UNL     1     -12.174   4.166  -1.402  0.00  0.00    +0.008 A 
ATOM     13  C   UNL     1     -12.011   2.862  -0.904  0.00  0.00    -0.016 A 
ATOM     14  C   UNL     1     -10.750   2.463  -0.395  0.00  0.00    +0.003 A 
ATOM     15  C   UNL     1     -10.590   1.161   0.103  0.00  0.00    +0.010 A 
ATOM     16  C   UNL     1     -11.644   0.299   0.090  0.00  0.00    +0.001 A 
ATOM     17  C   UNL     1     -12.884   0.691  -0.410  0.00  0.00    +0.001 A 
ATOM     18  C   UNL     1     -13.076   1.946  -0.901  0.00  0.00    +0.008 A 
ENDBRANCH   7   9
ENDBRANCH   6   7
ENDBRANCH   1   6
BRANCH   3  19
ATOM     19  N   UNL     1      -3.635   3.222   0.054  0.00  0.00    -0.188 NA
ATOM     20  C   UNL     1      -2.516   3.880   0.046  0.00  0.00    +0.142 C 
BRANCH  20  21
ATOM     21  C   UNL     1      -1.235   3.153   0.031  0.00  0.00    +0.036 A 
ATOM     22  C   UNL     1      -0.028   3.858   0.023  0.00  0.00    +0.016 A 
ATOM     23  C   UNL     1       1.168   3.175   0.007  0.00  0.00    +0.046 A 
ATOM     24  C   UNL     1       1.179   1.785   0.000  0.00  0.00    +0.120 A 
ATOM     25  C   UNL     1      -0.013   1.076   0.008  0.00  0.00    +0.091 A 
ATOM     26  C   UNL     1      -1.221   1.751   0.017  0.00  0.00    +0.129 A 
BRANCH  26  27
ATOM     27  O   UNL     1      -2.388   1.058   0.019  0.00  0.00    -0.506 OA
ATOM     28  H   UNL     1      -2.722   0.852   0.903  0.00  0.00    +0.292 HD
ENDBRANCH  26  27
BRANCH  24  29
ATOM     29  O   UNL     1       2.363   1.119  -0.015  0.00  0.00    -0.507 OA
ATOM     30  H   UNL     1       2.697   0.931  -0.902  0.00  0.00    +0.292 HD
ENDBRANCH  24  29
ENDBRANCH  20  21
ENDBRANCH   3  19
TORSDOF 7
