REMARK  Name = ZINC63647003
REMARK  6 active torsions:
REMARK  status: ('A' for Active; 'I' for Inactive)
REMARK    1  A    between atoms: C_1  and  C_2
REMARK    2  A    between atoms: C_5  and  C_8
REMARK    3  A    between atoms: C_10  and  S_13
REMARK    4  A    between atoms: S_13  and  C_14
REMARK    5  A    between atoms: C_14  and  C_15
REMARK    6  A    between atoms: C_23  and  C_26
REMARK                            x       y       z     vdW  Elec       q    Type
REMARK                         _______ _______ _______ _____ _____    ______ ____
ROOT
ATOM      1  C   UNL     1       0.147 -10.493   0.971  0.00  0.00    +0.060 A 
ATOM      2  C   UNL     1      -0.977 -11.266   1.017  0.00  0.00    +0.096 A 
ATOM      3  C   UNL     1      -0.933 -12.517   1.641  0.00  0.00    +0.272 A 
ATOM      4  O   UNL     1      -1.938 -13.207   1.694  0.00  0.00    -0.266 OA
ATOM      5  N   UNL     1       0.235 -12.967   2.193  0.00  0.00    -0.206 N 
ATOM      6  C   UNL     1       1.302 -12.108   2.136  0.00  0.00    +0.191 A 
ATOM      7  N   UNL     1       1.265 -10.946   1.536  0.00  0.00    -0.226 NA
ATOM      8  S   UNL     1       2.597 -12.950   3.030  0.00  0.00    -0.062 S 
ATOM      9  C   UNL     1       1.532 -14.278   3.740  0.00  0.00    +0.156 C 
ATOM     10  N   UNL     1       0.408 -14.193   2.772  0.00  0.00    -0.266 N 
ATOM     11  H   UNL     1      -0.452 -14.521   3.187  0.00  0.00    +0.168 HD
ENDROOT
BRANCH   9  12
ATOM     12  C   UNL     1       2.222 -15.643   3.686  0.00  0.00    +0.021 C 
ATOM     13  C   UNL     1       1.242 -16.728   4.136  0.00  0.00    +0.006 C 
ATOM     14  C   UNL     1       1.931 -18.093   4.081  0.00  0.00    +0.000 C 
ATOM     15  C   UNL     1       3.147 -18.087   5.011  0.00  0.00    +0.000 C 
ATOM     16  C   UNL     1       4.127 -17.002   4.561  0.00  0.00    +0.000 C 
ATOM     17  C   UNL     1       3.438 -15.637   4.615  0.00  0.00    +0.006 C 
ENDBRANCH   9  12
BRANCH   1  18
ATOM     18  C   UNL     1       0.125  -9.150   0.286  0.00  0.00    +0.133 C 
BRANCH  18  19
ATOM     19  S   UNL     1       0.116  -7.835   1.535  0.00  0.00    -0.078 S 
BRANCH  19  22
ATOM     20  C   UNL     1       0.060  -4.251  -0.021  0.00  0.00    +0.184 A 
ATOM     21  N   UNL     1       0.076  -5.075   1.081  0.00  0.00    -0.199 NA
ATOM     22  C   UNL     1       0.090  -6.349   0.588  0.00  0.00    +0.212 A 
ATOM     23  N   UNL     1       0.082  -6.260  -0.723  0.00  0.00    -0.120 NA
ATOM     24  N   UNL     1       0.059  -5.026  -1.081  0.00  0.00    -0.127 NA
BRANCH  20  29
ATOM     25  C   UNL     1      -0.018   1.503   0.010  0.00  0.00    +0.044 C 
ATOM     26  C   UNL     1       0.002  -0.004   0.002  0.00  0.00    -0.050 A 
ATOM     27  C   UNL     1       0.006  -0.686  -1.202  0.00  0.00    +0.004 A 
ATOM     28  C   UNL     1       0.024  -2.066  -1.216  0.00  0.00    +0.012 A 
ATOM     29  C   UNL     1       0.040  -2.773  -0.013  0.00  0.00    +0.021 A 
ATOM     30  C   UNL     1       0.037  -2.079   1.198  0.00  0.00    +0.012 A 
ATOM     31  C   UNL     1       0.023  -0.699   1.198  0.00  0.00    +0.004 A 
ENDBRANCH  20  29
ENDBRANCH  19  22
ENDBRANCH  18  19
ENDBRANCH   1  18
TORSDOF 5
