REMARK  Name = ZINC54060173
REMARK  4 active torsions:
REMARK  status: ('A' for Active; 'I' for Inactive)
REMARK    1  A    between atoms: C_3  and  N_19
REMARK    2  A    between atoms: C_6  and  C_7
REMARK    3  A    between atoms: C_7  and  N_8
REMARK    4  A    between atoms: C_12  and  C_15
REMARK                            x       y       z     vdW  Elec       q    Type
REMARK                         _______ _______ _______ _____ _____    ______ ____
ROOT
ATOM      1  C   UNL     1      -1.289  -0.781   0.030  0.00  0.00    +0.139 C 
ENDROOT
BRANCH   1   2
ATOM      2  N   UNL     1      -1.589  -1.267  -1.319  0.00  0.00    -0.324 N 
ATOM      3  C   UNL     1      -2.733  -2.012  -1.548  0.00  0.00    +0.137 A 
ATOM      4  C   UNL     1      -3.007  -2.474  -2.836  0.00  0.00    +0.081 A 
ATOM      5  C   UNL     1      -4.139  -3.212  -3.058  0.00  0.00    +0.038 A 
ATOM      6  C   UNL     1      -4.989  -3.476  -1.973  0.00  0.00    +0.056 A 
ATOM      7  C   UNL     1      -4.653  -2.982  -0.712  0.00  0.00    +0.126 A 
ATOM      8  N   UNL     1      -3.551  -2.281  -0.540  0.00  0.00    -0.238 NA
ATOM      9 CL   UNL     1      -1.923  -2.118  -4.144  0.00  0.00    -0.080 Cl
ATOM     10  H   UNL     1      -0.986  -1.066  -2.052  0.00  0.00    +0.148 HD
BRANCH   6  11
ATOM     11  C   UNL     1      -6.221  -4.266  -2.163  0.00  0.00    +0.243 C 
ATOM     12  O   UNL     1      -6.506  -4.692  -3.265  0.00  0.00    -0.270 OA
ATOM     13  N   UNL     1      -7.031  -4.514  -1.114  0.00  0.00    -0.325 N 
ATOM     14  H   UNL     1      -6.803  -4.174  -0.235  0.00  0.00    +0.145 HD
ATOM     15  H   UNL     1      -7.841  -5.033  -1.239  0.00  0.00    +0.145 HD
ENDBRANCH   6  11
ENDBRANCH   1   2
BRANCH   1  21
ATOM     16  C   UNL     1      -0.008   1.364  -0.228  0.00  0.00    +0.010 A 
ATOM     17  C   UNL     1       1.199   2.041  -0.238  0.00  0.00    +0.042 A 
ATOM     18  C   UNL     1       2.374   1.332  -0.013  0.00  0.00    +0.099 A 
ATOM     19  N   UNL     1       2.342   0.027   0.208  0.00  0.00    -0.349 N 
ATOM     20  C   UNL     1       1.206  -0.644   0.224  0.00  0.00    +0.089 A 
ATOM     21  C   UNL     1       0.002  -0.004   0.009  0.00  0.00    -0.014 A 
ATOM     22  H   UNL     1       3.174  -0.448   0.363  0.00  0.00    +0.167 HD
BRANCH  18  23
ATOM     23  N   UNL     1       3.594   1.999  -0.022  0.00  0.00    -0.317 N 
ATOM     24  C   UNL     1       3.594   3.441  -0.119  0.00  0.00    +0.106 C 
ATOM     25  C   UNL     1       3.619   3.861  -1.610  0.00  0.00    +0.019 C 
ATOM     26  C   UNL     1       4.936   3.575  -2.199  0.00  0.00    +0.002 C 
ATOM     27  C   UNL     1       5.308   2.095  -2.217  0.00  0.00    +0.002 C 
ATOM     28  C   UNL     1       5.923   1.718  -0.892  0.00  0.00    +0.019 C 
ATOM     29  C   UNL     1       4.835   1.206   0.075  0.00  0.00    +0.106 C 
ENDBRANCH  18  23
ENDBRANCH   1  21
TORSDOF 4
