REMARK  Name = ZINC39995310
REMARK  4 active torsions:
REMARK  status: ('A' for Active; 'I' for Inactive)
REMARK    1  A    between atoms: C_7  and  C_10
REMARK    2  A    between atoms: C_10  and  C_12
REMARK    3  A    between atoms: C_12  and  S_13
REMARK    4  A    between atoms: S_13  and  C_14
REMARK                            x       y       z     vdW  Elec       q    Type
REMARK                         _______ _______ _______ _____ _____    ______ ____
ROOT
ATOM      1  C   UNL     1       1.187  -4.547  -0.033  0.00  0.00    +0.156 C 
ENDROOT
BRANCH   1   2
ATOM      2  C   UNL     1       0.657  -3.136  -0.021  0.00  0.00    +0.172 C 
ATOM      3  O   UNL     1      -0.541  -2.938  -0.009  0.00  0.00    -0.291 OA
BRANCH   2  10
ATOM      4  C   UNL     1      -0.016   1.348   0.009  0.00  0.00    +0.001 A 
ATOM      5  C   UNL     1       1.158   2.117   0.002  0.00  0.00    +0.002 A 
ATOM      6  C   UNL     1       2.384   1.551  -0.012  0.00  0.00    +0.026 A 
ATOM      7  C   UNL     1       2.494   0.083  -0.021  0.00  0.00    +0.043 A 
ATOM      8  N   UNL     1       3.525  -0.712  -0.035  0.00  0.00    -0.380 N 
ATOM      9  C   UNL     1       3.065  -2.104  -0.039  0.00  0.00    +0.152 C 
ATOM     10  C   UNL     1       1.553  -2.046  -0.024  0.00  0.00    +0.024 C 
ATOM     11  C   UNL     1       1.234  -0.700  -0.013  0.00  0.00    +0.006 A 
ATOM     12  C   UNL     1       0.002  -0.004   0.002  0.00  0.00    +0.010 A 
ATOM     13  H   UNL     1       4.453  -0.428  -0.043  0.00  0.00    +0.160 HD
ENDBRANCH   2  10
ENDBRANCH   1   2
BRANCH   1  14
ATOM     14  S   UNL     1      -0.202  -5.714  -0.026  0.00  0.00    -0.078 S 
BRANCH  14  15
ATOM     15  C   UNL     1       0.572  -7.297  -0.042  0.00  0.00    +0.191 A 
ATOM     16  N   UNL     1      -0.181  -8.391  -0.046  0.00  0.00    -0.207 NA
ATOM     17  C   UNL     1       0.343  -9.605  -0.057  0.00  0.00    +0.129 A 
ATOM     18  C   UNL     1       1.758  -9.753  -0.065  0.00  0.00    +0.047 A 
ATOM     19  C   UNL     1       2.563 -10.963  -0.078  0.00  0.00    +0.021 A 
ATOM     20  C   UNL     1       3.900 -10.859  -0.085  0.00  0.00    +0.048 A 
ATOM     21  S   UNL     1       4.181  -9.098  -0.073  0.00  0.00    -0.077 S 
ATOM     22  C   UNL     1       2.495  -8.549  -0.060  0.00  0.00    +0.114 A 
ATOM     23  N   UNL     1       1.896  -7.374  -0.054  0.00  0.00    -0.215 NA
ATOM     24  N   UNL     1      -0.477 -10.719  -0.060  0.00  0.00    -0.343 N 
ATOM     25  H   UNL     1      -1.441 -10.612  -0.055  0.00  0.00    +0.144 HD
ATOM     26  H   UNL     1      -0.087 -11.607  -0.069  0.00  0.00    +0.144 HD
ENDBRANCH  14  15
ENDBRANCH   1  14
TORSDOF 4
