REMARK  Name = ZINC21846938
REMARK  4 active torsions:
REMARK  status: ('A' for Active; 'I' for Inactive)
REMARK    1  A    between atoms: C_10  and  C_12
REMARK    2  A    between atoms: C_12  and  N_13
REMARK    3  A    between atoms: N_16  and  C_19
REMARK    4  A    between atoms: C_24  and  O_25
REMARK                            x       y       z     vdW  Elec       q    Type
REMARK                         _______ _______ _______ _____ _____    ______ ____
ROOT
ATOM      1  N   UNL     1       4.730  -4.146  -0.064  0.00  0.00    +0.386 N 
ATOM      2  C   UNL     1       4.080  -4.545   1.191  0.00  0.00    -0.059 C 
ATOM      3  C   UNL     1       3.746  -6.039   1.140  0.00  0.00    +0.086 C 
ATOM      4  N   UNL     1       4.977  -6.782   0.831  0.00  0.00    -0.331 N 
ATOM      5  C   UNL     1       5.781  -6.344  -0.321  0.00  0.00    +0.086 C 
ATOM      6  C   UNL     1       6.019  -4.835  -0.200  0.00  0.00    -0.059 C 
ATOM      7  H   UNL     1       4.135  -4.392  -0.841  0.00  0.00    -0.081 HD
ENDROOT
BRANCH   4   8
ATOM      8  C   UNL     1       5.372  -7.876   1.610  0.00  0.00    +0.072 A 
ATOM      9  C   UNL     1       4.950  -9.155   1.279  0.00  0.00    +0.027 A 
ATOM     10  C   UNL     1       5.343 -10.233   2.050  0.00  0.00    +0.002 A 
ATOM     11  C   UNL     1       6.155 -10.040   3.151  0.00  0.00    +0.004 A 
ATOM     12  C   UNL     1       6.580  -8.768   3.488  0.00  0.00    +0.047 A 
ATOM     13  C   UNL     1       6.195  -7.683   2.718  0.00  0.00    +0.138 A 
BRANCH  13  14
ATOM     14  O   UNL     1       6.617  -6.432   3.045  0.00  0.00    -0.505 OA
ATOM     15  H   UNL     1       6.026  -5.963   3.650  0.00  0.00    +0.292 HD
ENDBRANCH  13  14
ENDBRANCH   4   8
BRANCH   1  16
ATOM     16  C   UNL     1       4.951  -2.694  -0.059  0.00  0.00    -0.003 C 
BRANCH  16  26
ATOM     17  C   UNL     1      -0.017   1.374   0.010  0.00  0.00    +0.001 A 
ATOM     18  C   UNL     1       1.170   2.094   0.002  0.00  0.00    +0.002 A 
ATOM     19  C   UNL     1       2.387   1.446  -0.013  0.00  0.00    +0.026 A 
ATOM     20  C   UNL     1       2.426   0.058  -0.021  0.00  0.00    +0.053 A 
ATOM     21  C   UNL     1       1.224  -0.672  -0.013  0.00  0.00    +0.065 A 
ATOM     22  C   UNL     1       0.002  -0.004   0.002  0.00  0.00    +0.015 A 
ATOM     23  C   UNL     1       1.312  -2.143  -0.022  0.00  0.00    +0.281 A 
ATOM     24  O   UNL     1       0.306  -2.832  -0.016  0.00  0.00    -0.265 OA
ATOM     25  N   UNL     1       2.536  -2.705  -0.036  0.00  0.00    -0.197 NA
ATOM     26  C   UNL     1       3.622  -1.984  -0.043  0.00  0.00    +0.095 A 
ATOM     27  N   UNL     1       3.618  -0.639  -0.036  0.00  0.00    -0.344 N 
ATOM     28  H   UNL     1       4.459  -0.155  -0.043  0.00  0.00    +0.167 HD
ENDBRANCH  16  26
ENDBRANCH   1  16
TORSDOF 4
