REMARK  Name = ZINC67604933
REMARK  5 active torsions:
REMARK  status: ('A' for Active; 'I' for Inactive)
REMARK    1  A    between atoms: C_5  and  N_9
REMARK    2  A    between atoms: C_12  and  C_15
REMARK    3  A    between atoms: C_15  and  N_16
REMARK    4  A    between atoms: C_17  and  C_19
REMARK    5  A    between atoms: C_19  and  C_20
REMARK                            x       y       z     vdW  Elec       q    Type
REMARK                         _______ _______ _______ _____ _____    ______ ____
ROOT
ATOM      1  N   UNL     1       0.373   1.251  -4.292  0.00  0.00    +0.382 N 
ATOM      2  C   UNL     1       0.409   2.675  -4.688  0.00  0.00    -0.078 C 
ATOM      3  C   UNL     1      -0.612   2.788  -5.848  0.00  0.00    -0.015 C 
ATOM      4  C   UNL     1      -1.724   1.813  -5.383  0.00  0.00    -0.012 C 
ATOM      5  C   UNL     1      -0.930   0.687  -4.687  0.00  0.00    -0.074 C 
ATOM      6  H   UNL     1       1.115   0.751  -4.758  0.00  0.00    -0.081 HD
ENDROOT
BRANCH   1  11
ATOM      7  C   UNL     1      -0.019   1.526   0.010  0.00  0.00    -0.000 C 
ATOM      8  C   UNL     1       1.416   2.056  -0.000  0.00  0.00    -0.000 C 
ATOM      9  C   UNL     1       2.245   1.265  -1.015  0.00  0.00    -0.002 C 
ATOM     10  C   UNL     1       1.893   1.726  -2.431  0.00  0.00    -0.015 C 
ATOM     11  C   UNL     1       0.539   1.139  -2.836  0.00  0.00    -0.069 C 
ATOM     12  C   UNL     1       0.478  -0.334  -2.428  0.00  0.00    -0.015 C 
ATOM     13  C   UNL     1      -0.566  -0.515  -1.324  0.00  0.00    -0.002 C 
ATOM     14  C   UNL     1       0.002  -0.004   0.002  0.00  0.00    -0.000 C 
ENDBRANCH   1  11
BRANCH   4  15
ATOM     15  C   UNL     1      -2.503   1.269  -6.582  0.00  0.00    +0.105 C 
BRANCH  15  16
ATOM     16  N   UNL     1      -3.247   2.360  -7.216  0.00  0.00    -0.315 N 
ATOM     17  C   UNL     1      -4.010   2.115  -8.300  0.00  0.00    +0.220 C 
ATOM     18  O   UNL     1      -4.081   0.991  -8.749  0.00  0.00    -0.275 OA
ATOM     19  H   UNL     1      -3.190   3.259  -6.856  0.00  0.00    +0.149 HD
BRANCH  17  20
ATOM     20  C   UNL     1      -4.775   3.238  -8.952  0.00  0.00    +0.171 C 
BRANCH  20  21
ATOM     21  C   UNL     1      -5.543   2.702 -10.133  0.00  0.00    +0.140 A 
ATOM     22  N   UNL     1      -6.346   3.442 -10.967  0.00  0.00    -0.293 N 
ATOM     23  H   UNL     1      -6.515   4.395 -10.894  0.00  0.00    +0.172 HD
ATOM     24  C   UNL     1      -6.859   2.619 -11.902  0.00  0.00    +0.342 A 
ATOM     25  O   UNL     1      -7.614   2.934 -12.805  0.00  0.00    -0.245 OA
ATOM     26  N   UNL     1      -6.382   1.381 -11.656  0.00  0.00    -0.227 N 
ATOM     27  H   UNL     1      -6.577   0.578 -12.163  0.00  0.00    +0.194 HD
ATOM     28  N   UNL     1      -5.549   1.471 -10.532  0.00  0.00    -0.156 NA
ENDBRANCH  20  21
ENDBRANCH  17  20
ENDBRANCH  15  16
ENDBRANCH   4  15
TORSDOF 5
