REMARK  Name = ZINC37318880
REMARK  8 active torsions:
REMARK  status: ('A' for Active; 'I' for Inactive)
REMARK    1  A    between atoms: C_1  and  C_2
REMARK    2  A    between atoms: C_2  and  C_4
REMARK    3  A    between atoms: C_2  and  N_10
REMARK    4  A    between atoms: N_10  and  C_11
REMARK    5  A    between atoms: C_17  and  C_19
REMARK    6  A    between atoms: C_19  and  C_20
REMARK    7  A    between atoms: C_19  and  C_21
REMARK    8  A    between atoms: C_19  and  C_22
REMARK                            x       y       z     vdW  Elec       q    Type
REMARK                         _______ _______ _______ _____ _____    ______ ____
ROOT
ATOM      1  C   UNL     1      -0.168   0.523   1.762  0.00  0.00    -0.069 C 
ATOM      2  C   UNL     1      -0.153   2.042   1.945  0.00  0.00    +0.003 C 
ATOM      3  C   UNL     1      -0.876   2.402   3.247  0.00  0.00    +0.106 C 
ATOM      4  N   UNL     1      -0.260   1.656   4.352  0.00  0.00    -0.301 N 
ATOM      5  C   UNL     1      -0.141   0.196   4.239  0.00  0.00    +0.106 C 
ATOM      6  C   UNL     1       0.574  -0.140   2.926  0.00  0.00    +0.003 C 
ATOM      7  C   UNL     1       0.189   2.298   5.449  0.00  0.00    +0.221 C 
ATOM      8  O   UNL     1       0.616   1.664   6.391  0.00  0.00    -0.275 OA
ENDROOT
BRANCH   7   9
ATOM      9  C   UNL     1       0.159   3.803   5.506  0.00  0.00    +0.039 C 
ATOM     10  C   UNL     1       0.737   4.275   6.842  0.00  0.00    +0.020 C 
ATOM     11  C   UNL     1       0.995   4.373   4.359  0.00  0.00    +0.020 C 
ATOM     12  C   UNL     1      -1.286   4.290   5.375  0.00  0.00    +0.020 C 
ENDBRANCH   7   9
BRANCH   1  13
ATOM     13  N   UNL     1       0.495   0.176   0.498  0.00  0.00    +0.383 N 
ATOM     14  H   UNL     1       1.475   0.408   0.557  0.00  0.00    -0.085 HD
ATOM     15  H   UNL     1       0.071   0.694  -0.257  0.00  0.00    -0.085 HD
BRANCH  13  17
ATOM     16  C   UNL     1      -1.128  -1.592   0.009  0.00  0.00    -0.013 C 
ATOM     17  C   UNL     1       0.347  -1.264   0.247  0.00  0.00    -0.071 C 
BRANCH  17  18
ATOM     18  C   UNL     1       1.162  -1.653  -0.988  0.00  0.00    -0.025 C 
ATOM     19  C   UNL     1       0.655  -0.869  -2.201  0.00  0.00    +0.002 C 
ATOM     20  C   UNL     1       1.470  -1.257  -3.436  0.00  0.00    +0.000 C 
ATOM     21  C   UNL     1       1.316  -2.757  -3.697  0.00  0.00    +0.000 C 
ATOM     22  C   UNL     1       1.823  -3.541  -2.485  0.00  0.00    +0.000 C 
ATOM     23  C   UNL     1       1.009  -3.152  -1.250  0.00  0.00    +0.002 C 
ENDBRANCH  17  18
ENDBRANCH  13  17
ENDBRANCH   1  13
TORSDOF 4
