REMARK  Name = ZINC51205284
REMARK  10 active torsions:
REMARK  status: ('A' for Active; 'I' for Inactive)
REMARK    1  A    between atoms: C_1  and  C_2
REMARK    2  A    between atoms: C_2  and  C_3
REMARK    3  A    between atoms: N_8  and  C_9
REMARK    4  A    between atoms: C_9  and  C_10
REMARK    5  A    between atoms: C_10  and  C_15
REMARK    6  A    between atoms: C_15  and  N_16
REMARK    7  A    between atoms: N_16  and  C_17
REMARK    8  A    between atoms: C_17  and  C_18
REMARK    9  A    between atoms: C_17  and  C_19
REMARK   10  A    between atoms: C_17  and  C_20
REMARK                            x       y       z     vdW  Elec       q    Type
REMARK                         _______ _______ _______ _____ _____    ______ ____
ROOT
ATOM      1  C   UNL     1       3.920   1.128  -2.216  0.00  0.00    -0.059 C 
ATOM      2  C   UNL     1       4.629  -0.238  -2.320  0.00  0.00    +0.003 C 
ATOM      3  C   UNL     1       5.861  -0.098  -1.391  0.00  0.00    +0.000 C 
ATOM      4  C   UNL     1       5.304   0.733  -0.208  0.00  0.00    +0.000 C 
ATOM      5  C   UNL     1       4.349   1.746  -0.874  0.00  0.00    +0.003 C 
ENDROOT
BRANCH   1   6
ATOM      6  C   UNL     1       2.403   0.934  -2.243  0.00  0.00    -0.073 C 
BRANCH   6  11
ATOM      7  C   UNL     1       0.674  -0.328  -3.342  0.00  0.00    -0.069 C 
ATOM      8  C   UNL     1      -0.242   0.343  -4.387  0.00  0.00    -0.017 C 
ATOM      9  C   UNL     1       0.490   1.677  -4.689  0.00  0.00    -0.020 C 
ATOM     10  C   UNL     1       1.975   1.246  -4.598  0.00  0.00    -0.078 C 
ATOM     11  N   UNL     1       2.017   0.263  -3.491  0.00  0.00    +0.382 N 
ATOM     12  H   UNL     1       2.685  -0.463  -3.705  0.00  0.00    -0.081 HD
BRANCH   7  14
ATOM     13  C   UNL     1       1.581  -2.501  -2.507  0.00  0.00    +0.002 C 
ATOM     14  C   UNL     1       0.737  -1.835  -3.596  0.00  0.00    -0.019 C 
ENDBRANCH   7  14
ENDBRANCH   6  11
ENDBRANCH   1   6
BRANCH   1  15
ATOM     15  C   UNL     1       4.353   2.033  -3.372  0.00  0.00    -0.077 C 
BRANCH  15  16
ATOM     16  N   UNL     1       5.789   2.321  -3.257  0.00  0.00    +0.383 N 
ATOM     17  H   UNL     1       5.970   2.786  -2.380  0.00  0.00    -0.085 HD
ATOM     18  H   UNL     1       6.309   1.457  -3.293  0.00  0.00    -0.085 HD
BRANCH  16  19
ATOM     19  C   UNL     1       6.205   3.190  -4.366  0.00  0.00    -0.077 C 
ATOM     20  C   UNL     1       5.416   4.500  -4.311  0.00  0.00    -0.011 C 
ATOM     21  C   UNL     1       7.700   3.489  -4.246  0.00  0.00    -0.011 C 
ATOM     22  C   UNL     1       5.931   2.485  -5.696  0.00  0.00    -0.011 C 
ENDBRANCH  16  19
ENDBRANCH  15  16
ENDBRANCH   1  15
TORSDOF 6
