REMARK  Name = ZINC51547826
REMARK  10 active torsions:
REMARK  status: ('A' for Active; 'I' for Inactive)
REMARK    1  A    between atoms: C_1  and  C_2
REMARK    2  A    between atoms: C_2  and  N_3
REMARK    3  A    between atoms: N_3  and  C_4
REMARK    4  A    between atoms: C_4  and  C_5
REMARK    5  A    between atoms: C_6  and  C_21
REMARK    6  A    between atoms: C_8  and  C_20
REMARK    7  A    between atoms: C_10  and  O_11
REMARK    8  A    between atoms: O_11  and  C_12
REMARK    9  A    between atoms: C_14  and  C_19
REMARK   10  A    between atoms: C_16  and  C_18
REMARK                            x       y       z     vdW  Elec       q    Type
REMARK                         _______ _______ _______ _____ _____    ______ ____
ROOT
ATOM      1  C   UNL     1      -2.751  -2.535   0.014  0.00  0.00    +0.000 A 
ATOM      2  C   UNL     1      -3.383  -2.815   1.214  0.00  0.00    -0.042 A 
ATOM      3  C   UNL     1      -4.670  -3.333   1.179  0.00  0.00    +0.026 A 
ATOM      4  C   UNL     1      -5.277  -3.553  -0.042  0.00  0.00    +0.042 A 
ATOM      5  N   UNL     1      -4.649  -3.276  -1.169  0.00  0.00    -0.218 NA
ATOM      6  C   UNL     1      -3.425  -2.775  -1.176  0.00  0.00    +0.222 A 
ATOM      7  C   UNL     1      -6.674  -4.116  -0.087  0.00  0.00    +0.066 C 
ATOM      8  C   UNL     1      -2.689  -2.563   2.527  0.00  0.00    +0.044 C 
ENDROOT
BRANCH   1   9
ATOM      9  C   UNL     1      -1.354  -1.971   0.001  0.00  0.00    -0.041 C 
BRANCH   9  10
ATOM     10  N   UNL     1      -1.418  -0.504   0.030  0.00  0.00    +0.382 N 
ATOM     11  H   UNL     1      -1.893  -0.204   0.868  0.00  0.00    -0.085 HD
ATOM     12  H   UNL     1      -1.922  -0.173  -0.779  0.00  0.00    -0.085 HD
BRANCH  10  14
ATOM     13  C   UNL     1      -0.122   1.574   0.047  0.00  0.00    -0.017 C 
ATOM     14  C   UNL     1      -0.056   0.046   0.017  0.00  0.00    -0.086 C 
ENDBRANCH  10  14
ENDBRANCH   9  10
ENDBRANCH   1   9
BRANCH   6  15
ATOM     15  O   UNL     1      -2.819  -2.500  -2.358  0.00  0.00    -0.438 OA
BRANCH  15  16
ATOM     16  C   UNL     1      -3.468  -2.841  -3.503  0.00  0.00    +0.131 A 
ATOM     17  C   UNL     1      -4.519  -2.061  -3.964  0.00  0.00    +0.049 A 
ATOM     18  C   UNL     1      -5.178  -2.410  -5.127  0.00  0.00    -0.047 A 
ATOM     19  C   UNL     1      -4.790  -3.535  -5.832  0.00  0.00    +0.007 A 
ATOM     20  C   UNL     1      -3.743  -4.313  -5.375  0.00  0.00    -0.047 A 
ATOM     21  C   UNL     1      -3.077  -3.965  -4.215  0.00  0.00    +0.049 A 
ATOM     22  C   UNL     1      -3.323  -5.538  -6.145  0.00  0.00    +0.044 C 
ATOM     23  C   UNL     1      -6.320  -1.564  -5.628  0.00  0.00    +0.044 C 
ENDBRANCH  15  16
ENDBRANCH   6  15
TORSDOF 5
