REMARK  Name = ZINC66704795
REMARK  8 active torsions:
REMARK  status: ('A' for Active; 'I' for Inactive)
REMARK    1  A    between atoms: C_1  and  C_2
REMARK    2  A    between atoms: C_2  and  C_3
REMARK    3  A    between atoms: C_3  and  C_4
REMARK    4  A    between atoms: C_4  and  N_5
REMARK    5  A    between atoms: C_10  and  C_12
REMARK    6  A    between atoms: C_12  and  N_13
REMARK    7  A    between atoms: N_16  and  C_17
REMARK    8  A    between atoms: C_26  and  O_28
REMARK                            x       y       z     vdW  Elec       q    Type
REMARK                         _______ _______ _______ _____ _____    ______ ____
ROOT
ATOM      1  N   UNL     1      -0.856  -3.453   3.594  0.00  0.00    -0.301 N 
ATOM      2  C   UNL     1      -2.160  -3.630   3.884  0.00  0.00    +0.300 C 
ATOM      3  O   UNL     1      -2.798  -4.493   3.312  0.00  0.00    -0.253 OA
ATOM      4  N   UNL     1      -2.757  -2.851   4.807  0.00  0.00    -0.290 N 
ATOM      5  H   UNL     1      -0.347  -2.764   4.050  0.00  0.00    +0.150 HD
ATOM      6  H   UNL     1      -2.248  -2.162   5.263  0.00  0.00    +0.151 HD
ENDROOT
BRANCH   4   7
ATOM      7  C   UNL     1      -4.175  -3.044   5.122  0.00  0.00    +0.134 C 
ATOM      8  C   UNL     1      -4.334  -4.084   6.210  0.00  0.00    -0.021 A 
ATOM      9  C   UNL     1      -3.716  -5.312   6.376  0.00  0.00    +0.006 A 
ATOM     10  C   UNL     1      -4.024  -6.104   7.464  0.00  0.00    +0.000 A 
ATOM     11  C   UNL     1      -4.953  -5.671   8.392  0.00  0.00    +0.000 A 
ATOM     12  C   UNL     1      -5.571  -4.447   8.228  0.00  0.00    +0.004 A 
ATOM     13  C   UNL     1      -5.263  -3.651   7.138  0.00  0.00    -0.040 A 
ATOM     14  C   UNL     1      -5.792  -2.291   6.736  0.00  0.00    +0.069 C 
ATOM     15  C   UNL     1      -4.775  -1.748   5.708  0.00  0.00    +0.143 C 
BRANCH  15  16
ATOM     16  O   UNL     1      -3.766  -0.968   6.354  0.00  0.00    -0.389 OA
ATOM     17  H   UNL     1      -4.093  -0.143   6.739  0.00  0.00    +0.210 HD
ENDBRANCH  15  16
ENDBRANCH   4   7
BRANCH   1  18
ATOM     18  C   UNL     1      -0.206  -4.300   2.590  0.00  0.00    +0.090 C 
BRANCH  18  24
ATOM     19  N   UNL     1       1.467  -2.536   2.308  0.00  0.00    +0.383 N 
ATOM     20  C   UNL     1       2.896  -2.226   2.181  0.00  0.00    -0.078 C 
ATOM     21  C   UNL     1       3.612  -2.553   3.493  0.00  0.00    -0.019 C 
ATOM     22  C   UNL     1       3.437  -4.042   3.807  0.00  0.00    -0.003 C 
ATOM     23  C   UNL     1       1.942  -4.369   3.864  0.00  0.00    -0.014 C 
ATOM     24  C   UNL     1       1.288  -3.975   2.538  0.00  0.00    -0.051 C 
ATOM     25  H   UNL     1       1.081  -2.022   3.086  0.00  0.00    -0.081 HD
BRANCH  19  26
ATOM     26  C   UNL     1       0.771  -2.148   1.074  0.00  0.00    -0.078 C 
BRANCH  26  27
ATOM     27  C   UNL     1       0.837  -0.629   0.907  0.00  0.00    -0.019 C 
BRANCH  27  29
ATOM     28  C   UNL     1       0.178   1.294  -0.546  0.00  0.00    +0.004 C 
ATOM     29  C   UNL     1       0.113  -0.225  -0.379  0.00  0.00    -0.005 C 
ENDBRANCH  27  29
ENDBRANCH  26  27
ENDBRANCH  19  26
ENDBRANCH  18  24
ENDBRANCH   1  18
TORSDOF 7
