REMARK  Name = ZINC48727886
REMARK  2 active torsions:
REMARK  status: ('A' for Active; 'I' for Inactive)
REMARK    1  A    between atoms: C_6  and  N_7
REMARK    2  A    between atoms: C_12  and  C_14
REMARK                            x       y       z     vdW  Elec       q    Type
REMARK                         _______ _______ _______ _____ _____    ______ ____
ROOT
ATOM      1  N   UNL     1      -1.206  -0.683   0.320  0.00  0.00    -0.302 N 
ATOM      2  C   UNL     1      -1.169  -2.151   0.374  0.00  0.00    +0.107 C 
ATOM      3  C   UNL     1      -1.747  -2.707  -0.932  0.00  0.00    +0.019 C 
ATOM      4  C   UNL     1      -3.143  -2.121  -1.157  0.00  0.00    +0.004 C 
ATOM      5  C   UNL     1      -3.045  -0.599  -1.281  0.00  0.00    +0.032 C 
ATOM      6  C   UNL     1      -2.483  -0.019   0.026  0.00  0.00    +0.160 C 
ENDROOT
BRANCH   1  12
ATOM      7  C   UNL     1       0.208   0.570   1.823  0.00  0.00    +0.048 A 
ATOM      8  C   UNL     1       1.368   1.307   2.000  0.00  0.00    +0.045 A 
ATOM      9  C   UNL     1       2.196   1.496   0.900  0.00  0.00    +0.152 A 
ATOM     10  N   UNL     1       1.868   0.980  -0.268  0.00  0.00    -0.136 NA
ATOM     11  N   UNL     1       0.795   0.296  -0.438  0.00  0.00    -0.133 NA
ATOM     12  C   UNL     1      -0.055   0.063   0.550  0.00  0.00    +0.144 A 
ATOM     13 CL   UNL     1       3.662   2.412   1.065  0.00  0.00    -0.060 Cl
ENDBRANCH   1  12
BRANCH   6  14
ATOM     14  C   UNL     1      -2.257   1.462  -0.132  0.00  0.00    +0.231 C 
ATOM     15  O   UNL     1      -1.256   1.868  -0.683  0.00  0.00    -0.274 OA
ATOM     16  N   UNL     1      -3.168   2.337   0.339  0.00  0.00    -0.328 N 
ATOM     17  H   UNL     1      -3.969   2.013   0.779  0.00  0.00    +0.145 HD
ATOM     18  H   UNL     1      -3.022   3.291   0.237  0.00  0.00    +0.145 HD
ENDBRANCH   6  14
TORSDOF 2
