REMARK  Name = ZINC62840261
REMARK  4 active torsions:
REMARK  status: ('A' for Active; 'I' for Inactive)
REMARK    1  A    between atoms: C_1  and  C_2
REMARK    2  A    between atoms: C_2  and  C_8
REMARK    3  A    between atoms: N_10  and  C_11
REMARK    4  A    between atoms: C_14  and  N_18
REMARK                            x       y       z     vdW  Elec       q    Type
REMARK                         _______ _______ _______ _____ _____    ______ ____
ROOT
ATOM      1  C   UNL     1       0.706  -0.489  -1.239  0.00  0.00    +0.223 C 
ATOM      2  O   UNL     1       1.698  -1.179  -1.143  0.00  0.00    -0.275 OA
ATOM      3  N   UNL     1       0.224  -0.167  -2.456  0.00  0.00    -0.284 N 
ATOM      4  H   UNL     1      -0.613   0.317  -2.534  0.00  0.00    +0.155 HD
ENDROOT
BRANCH   1   6
ATOM      5  C   UNL     1      -0.002   1.539   0.003  0.00  0.00    +0.021 C 
ATOM      6  C   UNL     1       0.010   0.009   0.002  0.00  0.00    +0.041 C 
ATOM      7  C   UNL     1      -1.429  -0.514   0.029  0.00  0.00    -0.003 C 
ATOM      8  C   UNL     1      -1.409  -2.042   0.108  0.00  0.00    -0.082 C 
ATOM      9  N   UNL     1      -0.710  -2.464   1.328  0.00  0.00    +0.379 N 
ATOM     10  C   UNL     1       0.691  -2.027   1.276  0.00  0.00    -0.082 C 
ATOM     11  C   UNL     1       0.751  -0.498   1.242  0.00  0.00    -0.003 C 
ATOM     12  H   UNL     1      -1.160  -2.052   2.132  0.00  0.00    -0.086 HD
ATOM     13  H   UNL     1      -0.745  -3.469   1.405  0.00  0.00    -0.086 HD
ENDBRANCH   1   6
BRANCH   3  14
ATOM     14  C   UNL     1       0.932  -0.530  -3.607  0.00  0.00    +0.048 A 
ATOM     15  C   UNL     1       2.304  -0.738  -3.544  0.00  0.00    +0.026 A 
ATOM     16  C   UNL     1       3.000  -1.096  -4.682  0.00  0.00    +0.034 A 
ATOM     17  C   UNL     1       2.333  -1.248  -5.884  0.00  0.00    +0.127 A 
ATOM     18  C   UNL     1       0.967  -1.043  -5.951  0.00  0.00    +0.049 A 
ATOM     19  C   UNL     1       0.264  -0.690  -4.815  0.00  0.00    +0.041 A 
ATOM     20 BR   UNL     1      -1.605  -0.416  -4.905  0.00  0.00    -0.048 Br
BRANCH  17  21
ATOM     21  N   UNL     1       3.082  -1.632  -7.101  0.00  0.00    +0.056 N 
ATOM     22  O   UNL     1       4.277  -1.812  -7.044  0.00  0.00    -0.126 OA
ATOM     23  O   UNL     1       2.500  -1.765  -8.152  0.00  0.00    -0.126 OA
ENDBRANCH  17  21
ENDBRANCH   3  14
TORSDOF 3
