REMARK  Name = ZINC67267472
REMARK  8 active torsions:
REMARK  status: ('A' for Active; 'I' for Inactive)
REMARK    1  A    between atoms: C_1  and  C_2
REMARK    2  A    between atoms: C_5  and  C_8
REMARK    3  A    between atoms: C_8  and  C_10
REMARK    4  A    between atoms: C_8  and  N_25
REMARK    5  A    between atoms: C_10  and  N_11
REMARK    6  A    between atoms: C_12  and  C_14
REMARK    7  A    between atoms: N_25  and  C_26
REMARK    8  A    between atoms: N_25  and  C_27
REMARK                            x       y       z     vdW  Elec       q    Type
REMARK                         _______ _______ _______ _____ _____    ______ ____
ROOT
ATOM      1  N   UNL     1       2.067  -4.864  -0.699  0.00  0.00    -0.312 N 
ATOM      2  C   UNL     1       3.267  -5.470  -0.602  0.00  0.00    +0.249 C 
ATOM      3  O   UNL     1       3.592  -6.014   0.436  0.00  0.00    -0.270 OA
ATOM      4  H   UNL     1       1.836  -4.371  -1.502  0.00  0.00    +0.149 HD
ENDROOT
BRANCH   2   5
ATOM      5  C   UNL     1       4.184  -5.473  -1.752  0.00  0.00    +0.101 A 
ATOM      6  C   UNL     1       5.372  -6.196  -1.711  0.00  0.00    +0.023 A 
ATOM      7  C   UNL     1       6.223  -6.180  -2.821  0.00  0.00    -0.027 A 
ATOM      8  C   UNL     1       5.886  -5.464  -3.925  0.00  0.00    +0.022 A 
ATOM      9  N   UNL     1       4.725  -4.758  -3.967  0.00  0.00    -0.325 N 
ATOM     10  H   UNL     1       4.506  -4.255  -4.767  0.00  0.00    +0.169 HD
ATOM     11  C   UNL     1       3.872  -4.745  -2.929  0.00  0.00    +0.261 A 
ATOM     12  O   UNL     1       2.836  -4.106  -2.997  0.00  0.00    -0.267 OA
ATOM     13  C   UNL     1       6.964  -5.607  -4.982  0.00  0.00    +0.054 C 
ATOM     14  C   UNL     1       8.200  -6.141  -4.227  0.00  0.00    +0.011 C 
ATOM     15  C   UNL     1       7.555  -6.870  -3.029  0.00  0.00    +0.037 C 
ENDBRANCH   2   5
BRANCH   1  16
ATOM     16  C   UNL     1       1.112  -4.949   0.409  0.00  0.00    +0.094 C 
BRANCH  16  17
ATOM     17  C   UNL     1      -0.204  -4.285  -0.000  0.00  0.00    -0.021 C 
BRANCH  17  22
ATOM     18  C   UNL     1       0.689   1.343  -0.961  0.00  0.00    +0.044 C 
ATOM     19  C   UNL     1       0.456  -0.125  -0.711  0.00  0.00    -0.050 A 
ATOM     20  C   UNL     1       0.385  -1.005  -1.774  0.00  0.00    +0.003 A 
ATOM     21  C   UNL     1       0.171  -2.351  -1.544  0.00  0.00    +0.002 A 
ATOM     22  C   UNL     1       0.030  -2.818  -0.251  0.00  0.00    -0.059 A 
ATOM     23  C   UNL     1       0.102  -1.938   0.813  0.00  0.00    +0.002 A 
ATOM     24  C   UNL     1       0.320  -0.592   0.583  0.00  0.00    +0.003 A 
ENDBRANCH  17  22
BRANCH  17  25
ATOM     25  N   UNL     1      -1.190  -4.447   1.077  0.00  0.00    +0.382 N 
ATOM     26  C   UNL     1      -2.478  -3.885   0.650  0.00  0.00    -0.096 C 
ATOM     27  C   UNL     1      -1.354  -5.875   1.379  0.00  0.00    -0.096 C 
ATOM     28  H   UNL     1      -0.869  -3.963   1.902  0.00  0.00    -0.082 HD
ENDBRANCH  17  25
ENDBRANCH  16  17
ENDBRANCH   1  16
TORSDOF 5
