REMARK  Name = ZINC63731022
REMARK  7 active torsions:
REMARK  status: ('A' for Active; 'I' for Inactive)
REMARK    1  A    between atoms: C_1  and  C_2
REMARK    2  A    between atoms: C_2  and  C_4
REMARK    3  A    between atoms: C_7  and  C_9
REMARK    4  A    between atoms: C_9  and  O_11
REMARK    5  A    between atoms: O_11  and  C_12
REMARK    6  A    between atoms: C_12  and  C_13
REMARK    7  A    between atoms: N_18  and  C_19
REMARK                            x       y       z     vdW  Elec       q    Type
REMARK                         _______ _______ _______ _____ _____    ______ ____
ROOT
ATOM      1  C   UNL     1      -0.014  -3.919  -7.566  0.00  0.00    +0.181 C 
ATOM      2  N   UNL     1       1.228  -4.633  -7.181  0.00  0.00    -0.326 NA
ATOM      3  N   UNL     1       0.786  -5.459  -6.044  0.00  0.00    +0.410 N 
ATOM      4  N   UNL     1      -0.581  -5.837  -6.427  0.00  0.00    -0.266 NA
ATOM      5  N   UNL     1      -1.124  -4.727  -7.033  0.00  0.00    -0.260 N 
ATOM      6  H   UNL     1       1.563  -5.210  -7.938  0.00  0.00    +0.106 HD
ATOM      7  H   UNL     1       1.369  -6.277  -5.948  0.00  0.00    -0.031 HD
ATOM      8  H   UNL     1      -0.575  -6.625  -7.056  0.00  0.00    +0.125 HD
ATOM      9  H   UNL     1       0.782  -4.920  -5.191  0.00  0.00    -0.031 HD
ENDROOT
BRANCH   5  10
ATOM     10  C   UNL     1      -2.483  -4.420  -7.125  0.00  0.00    +0.045 A 
ATOM     11  C   UNL     1      -2.904  -3.353  -7.909  0.00  0.00    +0.024 A 
ATOM     12  C   UNL     1      -4.249  -3.053  -7.998  0.00  0.00    +0.002 A 
ATOM     13  C   UNL     1      -5.177  -3.813  -7.309  0.00  0.00    +0.000 A 
ATOM     14  C   UNL     1      -4.761  -4.876  -6.529  0.00  0.00    +0.002 A 
ATOM     15  C   UNL     1      -3.418  -5.185  -6.439  0.00  0.00    +0.024 A 
ENDBRANCH   5  10
BRANCH   1  16
ATOM     16  C   UNL     1      -0.033  -2.521  -6.945  0.00  0.00    +0.270 C 
BRANCH  16  17
ATOM     17  O   UNL     1       0.040  -2.630  -5.522  0.00  0.00    -0.457 OA
BRANCH  17  18
ATOM     18  C   UNL     1       0.034  -1.481  -4.819  0.00  0.00    +0.354 C 
ATOM     19  O   UNL     1      -0.032  -0.415  -5.398  0.00  0.00    -0.244 OA
BRANCH  18  23
ATOM     20  C   UNL     1       0.200  -0.976  -1.037  0.00  0.00    +0.019 C 
ATOM     21  C   UNL     1       0.236  -2.310  -1.287  0.00  0.00    +0.118 C 
ATOM     22  N   UNL     1       0.181  -2.577  -2.593  0.00  0.00    -0.252 NA
ATOM     23  C   UNL     1       0.107  -1.517  -3.343  0.00  0.00    +0.129 C 
ATOM     24  C   UNL     1       0.104  -0.325  -2.405  0.00  0.00    +0.103 C 
BRANCH  20  26
ATOM     25  C   UNL     1       0.182   1.171   0.304  0.00  0.00    +0.091 C 
ATOM     26  C   UNL     1       0.238  -0.333   0.223  0.00  0.00    +0.158 C 
ATOM     27  O   UNL     1       0.317  -0.993   1.239  0.00  0.00    -0.293 OA
ENDBRANCH  20  26
ENDBRANCH  18  23
ENDBRANCH  17  18
ENDBRANCH  16  17
ENDBRANCH   1  16
TORSDOF 6
