REMARK  Name = ZINC13639762
REMARK  7 active torsions:
REMARK  status: ('A' for Active; 'I' for Inactive)
REMARK    1  A    between atoms: C_1  and  C_2
REMARK    2  A    between atoms: C_2  and  O_3
REMARK    3  A    between atoms: O_3  and  C_4
REMARK    4  A    between atoms: C_4  and  C_6
REMARK    5  A    between atoms: C_19  and  C_22
REMARK    6  A    between atoms: C_25  and  O_29
REMARK    7  A    between atoms: C_27  and  O_28
REMARK                            x       y       z     vdW  Elec       q    Type
REMARK                         _______ _______ _______ _____ _____    ______ ____
ROOT
ATOM      1  C   UNL     1      -1.237   3.133   0.029  0.00  0.00    +0.059 A 
ATOM      2  C   UNL     1      -1.207   1.735   0.017  0.00  0.00    +0.017 A 
ATOM      3  C   UNL     1      -0.013   1.076   0.008  0.00  0.00    +0.024 A 
ATOM      4  C   UNL     1       1.188   1.782   0.000  0.00  0.00    +0.031 A 
ATOM      5  C   UNL     1       1.163   3.185   0.023  0.00  0.00    -0.019 A 
ATOM      6  C   UNL     1      -0.037   3.851   0.029  0.00  0.00    +0.021 A 
ATOM      7  C   UNL     1       2.462   3.890   0.059  0.00  0.00    +0.049 C 
ATOM      8  C   UNL     1       2.623   5.274  -0.455  0.00  0.00    -0.023 C 
ATOM      9  C   UNL     1       3.858   5.412  -0.921  0.00  0.00    -0.030 C 
ATOM     10  C   UNL     1       4.620   4.093  -0.781  0.00  0.00    +0.033 C 
ATOM     11  C   UNL     1       3.475   3.071  -0.795  0.00  0.00    +0.029 C 
ATOM     12  C   UNL     1       3.693   1.776  -0.034  0.00  0.00    +0.108 C 
ATOM     13  N   UNL     1       2.390   1.077  -0.051  0.00  0.00    -0.336 N 
ATOM     14  H   UNL     1       2.371   0.109  -0.098  0.00  0.00    +0.147 HD
ENDROOT
BRANCH  12  15
ATOM     15  C   UNL     1       4.741   0.939  -0.721  0.00  0.00    +0.015 A 
ATOM     16  C   UNL     1       4.362  -0.048  -1.611  0.00  0.00    +0.012 A 
ATOM     17  C   UNL     1       5.320  -0.814  -2.246  0.00  0.00    +0.046 A 
ATOM     18  C   UNL     1       6.666  -0.601  -1.984  0.00  0.00    +0.120 A 
ATOM     19  C   UNL     1       7.049   0.385  -1.088  0.00  0.00    +0.091 A 
ATOM     20  C   UNL     1       6.085   1.156  -0.456  0.00  0.00    +0.125 A 
BRANCH  20  21
ATOM     21  O   UNL     1       6.458   2.123   0.422  0.00  0.00    -0.506 OA
ATOM     22  H   UNL     1       6.530   1.818   1.337  0.00  0.00    +0.292 HD
ENDBRANCH  20  21
BRANCH  18  23
ATOM     23  O   UNL     1       7.608  -1.358  -2.606  0.00  0.00    -0.507 OA
ATOM     24  H   UNL     1       7.846  -2.163  -2.126  0.00  0.00    +0.292 HD
ENDBRANCH  18  23
ENDBRANCH  12  15
BRANCH   1  25
ATOM     25  C   UNL     1      -2.527   3.846   0.036  0.00  0.00    +0.339 C 
ATOM     26  O   UNL     1      -2.550   5.061   0.043  0.00  0.00    -0.245 OA
BRANCH  25  27
ATOM     27  O   UNL     1      -3.682   3.150   0.036  0.00  0.00    -0.461 OA
BRANCH  27  29
ATOM     28  C   UNL     1      -6.110   2.963   0.042  0.00  0.00    +0.048 C 
ATOM     29  C   UNL     1      -4.914   3.918   0.043  0.00  0.00    +0.229 C 
ENDBRANCH  27  29
ENDBRANCH  25  27
ENDBRANCH   1  25
TORSDOF 6
