REMARK  Name = ZINC41707621
REMARK  7 active torsions:
REMARK  status: ('A' for Active; 'I' for Inactive)
REMARK    1  A    between atoms: C_1  and  C_2
REMARK    2  A    between atoms: C_5  and  C_24
REMARK    3  A    between atoms: C_10  and  C_12
REMARK    4  A    between atoms: C_12  and  C_22
REMARK    5  A    between atoms: C_13  and  C_14
REMARK    6  A    between atoms: C_17  and  O_21
REMARK    7  A    between atoms: C_18  and  O_20
REMARK                            x       y       z     vdW  Elec       q    Type
REMARK                         _______ _______ _______ _____ _____    ______ ____
ROOT
ATOM      1  C   UNL     1       4.198   0.813   2.129  0.00  0.00    +0.114 C 
ATOM      2  C   UNL     1       4.794   1.486   3.173  0.00  0.00    +0.032 C 
ENDROOT
BRANCH   1  10
ATOM      3  C   UNL     1      -0.393   1.489   0.640  0.00  0.00    +0.009 C 
ATOM      4  C   UNL     1      -0.148   0.042   0.209  0.00  0.00    +0.004 C 
ATOM      5  C   UNL     1       0.447   0.022  -1.200  0.00  0.00    +0.009 C 
ATOM      6  C   UNL     1       1.755   0.817  -1.215  0.00  0.00    +0.004 C 
ATOM      7  C   UNL     1       2.756   0.162  -0.259  0.00  0.00    +0.111 C 
ATOM      8  N   UNL     1       2.136   0.045   1.068  0.00  0.00    -0.296 N 
ATOM      9  C   UNL     1       0.832  -0.622   1.183  0.00  0.00    +0.111 C 
ATOM     10  C   UNL     1       2.752   0.541   2.160  0.00  0.00    +0.257 C 
ATOM     11  O   UNL     1       2.113   0.763   3.171  0.00  0.00    -0.269 OA
ATOM     12  C   UNL     1       2.332   0.824  -2.632  0.00  0.00    +0.009 C 
ENDBRANCH   1  10
BRANCH   2  13
ATOM     13  C   UNL     1       6.198   1.891   3.076  0.00  0.00    -0.020 A 
ATOM     14  C   UNL     1       6.981   2.000   4.235  0.00  0.00    +0.012 A 
ATOM     15  C   UNL     1       8.300   2.380   4.140  0.00  0.00    +0.050 A 
ATOM     16  C   UNL     1       8.860   2.657   2.899  0.00  0.00    +0.158 A 
ATOM     17  C   UNL     1       8.089   2.551   1.740  0.00  0.00    +0.159 A 
ATOM     18  C   UNL     1       6.767   2.165   1.824  0.00  0.00    +0.057 A 
BRANCH  17  19
ATOM     19  O   UNL     1       8.642   2.824   0.528  0.00  0.00    -0.503 OA
ATOM     20  H   UNL     1       9.040   2.056   0.097  0.00  0.00    +0.292 HD
ENDBRANCH  17  19
BRANCH  16  21
ATOM     21  O   UNL     1      10.162   3.033   2.812  0.00  0.00    -0.503 OA
ATOM     22  H   UNL     1      10.778   2.295   2.706  0.00  0.00    +0.292 HD
ENDBRANCH  16  21
ENDBRANCH   2  13
BRANCH   1  23
ATOM     23  C   UNL     1       4.984   0.379   1.014  0.00  0.00    +0.104 C 
ATOM     24  N   UNL     1       5.609   0.035   0.130  0.00  0.00    -0.191 NA
ENDBRANCH   1  23
TORSDOF 5
