REMARK  Name = ZINC63818583
REMARK  5 active torsions:
REMARK  status: ('A' for Active; 'I' for Inactive)
REMARK    1  A    between atoms: C_7  and  C_10
REMARK    2  A    between atoms: C_10  and  C_11
REMARK    3  A    between atoms: C_11  and  N_12
REMARK    4  A    between atoms: C_13  and  C_15
REMARK    5  A    between atoms: N_17  and  C_18
REMARK                            x       y       z     vdW  Elec       q    Type
REMARK                         _______ _______ _______ _____ _____    ______ ____
ROOT
ATOM      1  N   UNL     1      -0.690  -4.639  -1.472  0.00  0.00    -0.307 N 
ATOM      2  C   UNL     1      -0.927  -5.301  -2.623  0.00  0.00    +0.299 C 
ATOM      3  O   UNL     1      -0.383  -4.949  -3.648  0.00  0.00    -0.265 OA
ATOM      4  H   UNL     1      -1.125  -4.921  -0.652  0.00  0.00    +0.149 HD
ENDROOT
BRANCH   2   5
ATOM      5  C   UNL     1      -1.859  -6.467  -2.635  0.00  0.00    +0.303 C 
ATOM      6  O   UNL     1      -2.403  -6.820  -1.609  0.00  0.00    -0.265 OA
ATOM      7  N   UNL     1      -2.095  -7.129  -3.785  0.00  0.00    -0.277 N 
ATOM      8  H   UNL     1      -1.719  -6.804  -4.618  0.00  0.00    +0.155 HD
BRANCH   7   9
ATOM      9  C   UNL     1      -2.881  -8.280  -3.778  0.00  0.00    +0.039 C 
ATOM     10  C   UNL     1      -4.013  -8.407  -4.547  0.00  0.00    +0.023 C 
ATOM     11  C   UNL     1      -4.743  -9.617  -4.555  0.00  0.00    -0.000 C 
ATOM     12  C   UNL     1      -4.601 -10.576  -3.632  0.00  0.00    +0.004 C 
ATOM     13  C   UNL     1      -3.660 -10.350  -2.487  0.00  0.00    +0.160 C 
ATOM     14  C   UNL     1      -2.570  -9.407  -2.983  0.00  0.00    +0.003 C 
ATOM     15  C   UNL     1      -1.421  -9.929  -2.535  0.00  0.00    +0.027 C 
ATOM     16  C   UNL     1      -1.660 -11.236  -2.047  0.00  0.00    +0.106 C 
ATOM     17  N   UNL     1      -2.940 -11.527  -2.027  0.00  0.00    -0.279 NA
ENDBRANCH   7   9
ENDBRANCH   2   5
BRANCH   1  18
ATOM     18  C   UNL     1       0.224  -3.495  -1.460  0.00  0.00    +0.109 C 
BRANCH  18  19
ATOM     19  C   UNL     1       0.315  -2.930  -0.042  0.00  0.00    +0.052 C 
BRANCH  19  26
ATOM     20  C   UNL     1      -0.376   1.594  -0.388  0.00  0.00    +0.001 A 
ATOM     21  C   UNL     1       0.804   2.348  -0.328  0.00  0.00    +0.002 A 
ATOM     22  C   UNL     1       2.022   1.787  -0.182  0.00  0.00    +0.026 A 
ATOM     23  C   UNL     1       2.155   0.374  -0.081  0.00  0.00    +0.043 A 
ATOM     24  N   UNL     1       3.207  -0.396   0.062  0.00  0.00    -0.380 N 
ATOM     25  C   UNL     1       2.761  -1.792   0.109  0.00  0.00    +0.144 C 
ATOM     26  C   UNL     1       1.256  -1.752  -0.029  0.00  0.00    -0.040 C 
ATOM     27  C   UNL     1       0.924  -0.446  -0.141  0.00  0.00    -0.001 A 
ATOM     28  C   UNL     1      -0.361   0.244  -0.301  0.00  0.00    +0.010 A 
ATOM     29  H   UNL     1       4.126  -0.092   0.126  0.00  0.00    +0.160 HD
ENDBRANCH  19  26
ENDBRANCH  18  19
ENDBRANCH   1  18
TORSDOF 5
