REMARK  Name = ZINC63213153
REMARK  4 active torsions:
REMARK  status: ('A' for Active; 'I' for Inactive)
REMARK    1  A    between atoms: C_3  and  S_9
REMARK    2  A    between atoms: S_9  and  N_12
REMARK    3  A    between atoms: N_12  and  C_13
REMARK    4  A    between atoms: C_20  and  N_22
REMARK                            x       y       z     vdW  Elec       q    Type
REMARK                         _______ _______ _______ _____ _____    ______ ____
ROOT
ATOM      1  N   UNL     1       4.624   1.855   1.389  0.00  0.00    -0.188 NA
ATOM      2  H   UNL     1       4.688   2.481   2.127  0.00  0.00    +0.148 HD
ENDROOT
BRANCH   1   3
ATOM      3  C   UNL     1       5.100   0.479   1.551  0.00  0.00    +0.062 C 
ATOM      4  C   UNL     1       3.955  -0.380   2.120  0.00  0.00    +0.019 C 
ATOM      5  C   UNL     1       4.449  -1.708   2.726  0.00  0.00    +0.001 C 
ATOM      6  C   UNL     1       5.510  -2.365   1.885  0.00  0.00    -0.000 C 
ATOM      7  C   UNL     1       6.893  -1.938   2.420  0.00  0.00    -0.002 C 
ATOM      8  C   UNL     1       7.281  -0.614   1.958  0.00  0.00    -0.015 C 
ATOM      9  C   UNL     1       6.312   0.485   2.443  0.00  0.00    -0.056 C 
BRANCH   9  10
ATOM     10  N   UNL     1       6.973   1.795   2.368  0.00  0.00    +0.381 N 
ATOM     11  H   UNL     1       6.332   2.513   2.669  0.00  0.00    -0.090 HD
ATOM     12  H   UNL     1       7.785   1.796   2.967  0.00  0.00    -0.090 HD
ATOM     13  H   UNL     1       7.257   1.974   1.417  0.00  0.00    -0.090 HD
ENDBRANCH   9  10
ENDBRANCH   1   3
BRANCH   1  14
ATOM     14  S   UNL     1       3.977   2.342  -0.056  0.00  0.00    +0.060 S 
ATOM     15  O   UNL     1       3.626   3.711   0.097  0.00  0.00    -0.153 OA
ATOM     16  O   UNL     1       3.030   1.351  -0.431  0.00  0.00    -0.153 OA
BRANCH  14  19
ATOM     17  C   UNL     1       6.220   1.329  -3.231  0.00  0.00    +0.040 A 
ATOM     18  C   UNL     1       5.207   1.376  -2.292  0.00  0.00    +0.032 A 
ATOM     19  C   UNL     1       5.269   2.284  -1.252  0.00  0.00    +0.119 A 
ATOM     20  C   UNL     1       6.344   3.148  -1.150  0.00  0.00    +0.047 A 
ATOM     21  C   UNL     1       7.359   3.104  -2.089  0.00  0.00    +0.055 A 
ATOM     22  C   UNL     1       7.297   2.193  -3.130  0.00  0.00    +0.125 A 
ATOM     23  F   UNL     1       8.288   2.148  -4.048  0.00  0.00    -0.205 F 
ATOM     24 BR   UNL     1       6.427   4.391   0.272  0.00  0.00    -0.048 Br
ENDBRANCH  14  19
ENDBRANCH   1  14
TORSDOF 4
