REMARK  Name = ZINC61671733
REMARK  4 active torsions:
REMARK  status: ('A' for Active; 'I' for Inactive)
REMARK    1  A    between atoms: C_1  and  N_2
REMARK    2  A    between atoms: N_2  and  C_3
REMARK    3  A    between atoms: C_3  and  C_5
REMARK    4  A    between atoms: C_3  and  C_17
REMARK                            x       y       z     vdW  Elec       q    Type
REMARK                         _______ _______ _______ _____ _____    ______ ____
ROOT
ATOM      1  C   UNL     1      -1.520  -1.992   0.258  0.00  0.00    -0.039 A 
ATOM      2  C   UNL     1      -0.520  -2.859  -0.147  0.00  0.00    +0.052 A 
ATOM      3  C   UNL     1      -0.656  -4.218   0.080  0.00  0.00    +0.162 A 
ATOM      4  C   UNL     1      -1.791  -4.708   0.711  0.00  0.00    +0.163 A 
ATOM      5  C   UNL     1      -2.790  -3.839   1.115  0.00  0.00    +0.069 A 
ATOM      6  C   UNL     1      -2.649  -2.480   0.891  0.00  0.00    +0.046 A 
ATOM      7 CL   UNL     1      -3.895  -1.385   1.403  0.00  0.00    -0.083 Cl
ATOM      8  O   UNL     1      -1.914  -6.049   0.931  0.00  0.00    -0.488 OA
ATOM      9  C   UNL     1      -2.083  -6.860  -0.233  0.00  0.00    +0.232 C 
ATOM     10  C   UNL     1      -0.737  -7.199  -0.855  0.00  0.00    +0.082 C 
ATOM     11  C   UNL     1      -0.017  -5.968  -1.382  0.00  0.00    +0.232 C 
ATOM     12  O   UNL     1       0.324  -5.083  -0.313  0.00  0.00    -0.488 OA
ENDROOT
BRANCH   1  13
ATOM     13  C   UNL     1      -1.376  -0.512   0.012  0.00  0.00    -0.036 C 
BRANCH  13  14
ATOM     14  C   UNL     1      -1.972  -0.161  -1.352  0.00  0.00    -0.017 C 
ATOM     15  C   UNL     1      -1.260  -0.964  -2.445  0.00  0.00    +0.030 C 
ATOM     16  C   UNL     1      -1.915  -0.666  -3.796  0.00  0.00    +0.160 C 
ATOM     17  O   UNL     1      -3.306  -0.986  -3.730  0.00  0.00    -0.380 OA
ATOM     18  C   UNL     1      -4.033  -0.231  -2.758  0.00  0.00    +0.160 C 
ATOM     19  C   UNL     1      -3.463  -0.512  -1.366  0.00  0.00    +0.030 C 
ENDBRANCH  13  14
BRANCH  13  21
ATOM     20  C   UNL     1       0.182   1.309  -0.086  0.00  0.00    -0.100 C 
ATOM     21  N   UNL     1       0.047  -0.149   0.033  0.00  0.00    +0.382 N 
ATOM     22  H   UNL     1       0.519  -0.595  -0.739  0.00  0.00    -0.085 HD
ATOM     23  H   UNL     1       0.460  -0.455   0.902  0.00  0.00    -0.085 HD
ENDBRANCH  13  21
ENDBRANCH   1  13
TORSDOF 3
