REMARK  Name = ZINC41068827
REMARK  6 active torsions:
REMARK  status: ('A' for Active; 'I' for Inactive)
REMARK    1  A    between atoms: C_3  and  O_10
REMARK    2  A    between atoms: C_6  and  C_7
REMARK    3  A    between atoms: O_10  and  C_11
REMARK    4  A    between atoms: C_11  and  C_12
REMARK    5  A    between atoms: C_12  and  O_13
REMARK    6  A    between atoms: O_13  and  C_14
REMARK                            x       y       z     vdW  Elec       q    Type
REMARK                         _______ _______ _______ _____ _____    ______ ____
ROOT
ATOM      1  C   UNL     1      -0.017   1.392   0.010  0.00  0.00    +0.015 A 
ATOM      2  C   UNL     1       1.167   2.095   0.002  0.00  0.00    +0.046 A 
ATOM      3  C   UNL     1       2.380   1.417  -0.013  0.00  0.00    +0.121 A 
ATOM      4  C   UNL     1       2.403   0.028  -0.021  0.00  0.00    +0.046 A 
ATOM      5  C   UNL     1       1.223  -0.682  -0.014  0.00  0.00    +0.015 A 
ATOM      6  C   UNL     1       0.002  -0.004   0.002  0.00  0.00    +0.012 A 
ENDROOT
BRANCH   6   7
ATOM      7  C   UNL     1      -1.266  -0.762   0.011  0.00  0.00    +0.094 C 
ATOM      8  N   UNL     1      -1.246  -2.094   0.003  0.00  0.00    -0.387 N 
ATOM      9  N   UNL     1      -2.430  -0.113   0.026  0.00  0.00    -0.345 N 
ATOM     10  H   UNL     1      -0.399  -2.567  -0.008  0.00  0.00    +0.157 HD
ATOM     11  H   UNL     1      -2.445   0.857   0.031  0.00  0.00    +0.144 HD
ATOM     12  H   UNL     1      -3.263  -0.611   0.031  0.00  0.00    +0.144 HD
ATOM     13  H   UNL     1      -2.079  -2.592   0.009  0.00  0.00    +0.157 HD
ENDBRANCH   6   7
BRANCH   3  14
ATOM     14  O   UNL     1       3.545   2.113  -0.020  0.00  0.00    -0.489 OA
BRANCH  14  15
ATOM     15  C   UNL     1       4.755   1.353  -0.036  0.00  0.00    +0.270 C 
BRANCH  15  16
ATOM     16  C   UNL     1       5.955   2.303  -0.042  0.00  0.00    +0.270 C 
BRANCH  16  17
ATOM     17  O   UNL     1       5.986   3.039   1.182  0.00  0.00    -0.487 OA
BRANCH  17  18
ATOM     18  C   UNL     1       6.997   3.934   1.339  0.00  0.00    +0.139 A 
ATOM     19  C   UNL     1       7.936   4.104   0.332  0.00  0.00    +0.050 A 
ATOM     20  C   UNL     1       8.963   5.015   0.492  0.00  0.00    +0.042 A 
ATOM     21  C   UNL     1       9.056   5.757   1.657  0.00  0.00    +0.125 A 
ATOM     22  C   UNL     1       8.120   5.589   2.664  0.00  0.00    +0.062 A 
ATOM     23  C   UNL     1       7.088   4.683   2.504  0.00  0.00    +0.085 A 
ATOM     24 CL   UNL     1       5.911   4.476   3.764  0.00  0.00    -0.080 Cl
ATOM     25  F   UNL     1      10.061   6.647   1.812  0.00  0.00    -0.205 F 
ENDBRANCH  17  18
ENDBRANCH  16  17
ENDBRANCH  15  16
ENDBRANCH  14  15
ENDBRANCH   3  14
TORSDOF 6
