REMARK  Name = ZINC02513746
REMARK  9 active torsions:
REMARK  status: ('A' for Active; 'I' for Inactive)
REMARK    1  A    between atoms: C_1  and  C_2
REMARK    2  A    between atoms: C_2  and  C_3
REMARK    3  A    between atoms: C_2  and  C_4
REMARK    4  A    between atoms: C_2  and  O_5
REMARK    5  A    between atoms: O_5  and  C_6
REMARK    6  A    between atoms: C_6  and  C_8
REMARK    7  A    between atoms: N_11  and  S_14
REMARK    8  A    between atoms: S_14  and  C_17
REMARK    9  A    between atoms: C_20  and  N_23
REMARK                            x       y       z     vdW  Elec       q    Type
REMARK                         _______ _______ _______ _____ _____    ______ ____
ROOT
ATOM      1  C   UNL     1       2.729  -0.541  -2.571  0.00  0.00    +0.055 C 
ATOM      2  C   UNL     1       2.355   0.342  -3.766  0.00  0.00    +0.105 C 
ATOM      3  N   UNL     1       3.224  -0.013  -4.899  0.00  0.00    -0.179 NA
ATOM      4  C   UNL     1       4.677  -0.050  -4.676  0.00  0.00    +0.090 C 
ATOM      5  C   UNL     1       4.960  -0.917  -3.445  0.00  0.00    -0.064 C 
ATOM      6  N   UNL     1       4.175  -0.417  -2.299  0.00  0.00    +0.390 N 
ATOM      7  H   UNL     1       4.410  -0.966  -1.464  0.00  0.00    -0.085 HD
ATOM      8  H   UNL     1       4.405   0.570  -2.136  0.00  0.00    -0.085 HD
ENDROOT
BRANCH   3   9
ATOM      9  S   UNL     1       2.582  -0.361  -6.385  0.00  0.00    +0.061 S 
ATOM     10  O   UNL     1       3.535  -1.172  -7.059  0.00  0.00    -0.153 OA
ATOM     11  O   UNL     1       1.245  -0.785  -6.161  0.00  0.00    -0.153 OA
BRANCH   9  12
ATOM     12  C   UNL     1       2.488   1.154  -7.280  0.00  0.00    +0.106 A 
ATOM     13  C   UNL     1       1.346   1.931  -7.203  0.00  0.00    +0.030 A 
ATOM     14  C   UNL     1       1.271   3.121  -7.898  0.00  0.00    +0.024 A 
ATOM     15  C   UNL     1       2.339   3.533  -8.685  0.00  0.00    +0.025 A 
ATOM     16  C   UNL     1       3.482   2.748  -8.765  0.00  0.00    +0.024 A 
ATOM     17  C   UNL     1       3.553   1.561  -8.062  0.00  0.00    +0.030 A 
BRANCH  15  18
ATOM     18  N   UNL     1       2.264   4.734  -9.394  0.00  0.00    -0.358 N 
ATOM     19  H   UNL     1       3.011   5.021  -9.942  0.00  0.00    +0.142 HD
ATOM     20  H   UNL     1       1.465   5.282  -9.337  0.00  0.00    +0.142 HD
ENDBRANCH  15  18
ENDBRANCH   9  12
ENDBRANCH   3   9
BRANCH   1  21
ATOM     21  C   UNL     1       1.959  -0.093  -1.355  0.00  0.00    +0.295 C 
ATOM     22  O   UNL     1       2.492   0.606  -0.526  0.00  0.00    -0.253 OA
BRANCH  21  23
ATOM     23  O   UNL     1       0.682  -0.472  -1.193  0.00  0.00    -0.460 OA
BRANCH  23  25
ATOM     24  C   UNL     1      -0.019   1.526   0.010  0.00  0.00    +0.055 C 
ATOM     25  C   UNL     1       0.002  -0.004   0.002  0.00  0.00    +0.105 C 
ATOM     26  C   UNL     1       0.742  -0.511   1.242  0.00  0.00    +0.055 C 
ATOM     27  C   UNL     1      -1.433  -0.534   0.013  0.00  0.00    +0.055 C 
ENDBRANCH  23  25
ENDBRANCH  21  23
ENDBRANCH   1  21
TORSDOF 6
