REMARK  Name = ZINC42146847
REMARK  4 active torsions:
REMARK  status: ('A' for Active; 'I' for Inactive)
REMARK    1  A    between atoms: C_1  and  C_2
REMARK    2  A    between atoms: N_6  and  C_13
REMARK    3  A    between atoms: C_13  and  C_14
REMARK    4  A    between atoms: N_19  and  C_20
REMARK                            x       y       z     vdW  Elec       q    Type
REMARK                         _______ _______ _______ _____ _____    ______ ____
ROOT
ATOM      1  C   UNL     1      -0.019   1.526   0.010  0.00  0.00    +0.012 C 
ATOM      2  C   UNL     1       0.002  -0.004   0.002  0.00  0.00    +0.019 C 
ATOM      3  C   UNL     1      -1.434  -0.528   0.001  0.00  0.00    +0.027 C 
ATOM      4  C   UNL     1      -1.407  -2.048   0.206  0.00  0.00    +0.106 C 
ATOM      5  N   UNL     1      -0.832  -2.312   1.532  0.00  0.00    -0.321 N 
ATOM      6  C   UNL     1       0.314  -1.611   1.924  0.00  0.00    +0.034 A 
ATOM      7  C   UNL     1       0.742  -0.498   1.217  0.00  0.00    -0.023 A 
ATOM      8  C   UNL     1       1.876   0.179   1.632  0.00  0.00    +0.006 A 
ATOM      9  C   UNL     1       2.578  -0.251   2.741  0.00  0.00    +0.000 A 
ATOM     10  C   UNL     1       2.153  -1.363   3.445  0.00  0.00    +0.002 A 
ATOM     11  C   UNL     1       1.023  -2.042   3.039  0.00  0.00    +0.023 A 
ENDROOT
BRANCH   5  12
ATOM     12  C   UNL     1      -1.448  -3.293   2.429  0.00  0.00    +0.201 C 
BRANCH  12  13
ATOM     13  C   UNL     1      -0.843  -4.651   2.179  0.00  0.00    +0.238 C 
ATOM     14  O   UNL     1       0.017  -4.786   1.336  0.00  0.00    -0.274 OA
ATOM     15  N   UNL     1      -1.259  -5.715   2.894  0.00  0.00    -0.239 N 
ATOM     16  C   UNL     1      -0.718  -6.929   2.671  0.00  0.00    +0.306 C 
ATOM     17  O   UNL     1       0.144  -7.065   1.825  0.00  0.00    -0.252 OA
ATOM     18  N   UNL     1      -1.134  -7.994   3.385  0.00  0.00    -0.302 N 
ATOM     19  C   UNL     1      -0.546  -9.314   3.143  0.00  0.00    +0.129 C 
ATOM     20  H   UNL     1      -1.947  -5.607   3.569  0.00  0.00    +0.159 HD
ATOM     21  H   UNL     1      -1.822  -7.886   4.061  0.00  0.00    +0.150 HD
ENDBRANCH  12  13
ENDBRANCH   5  12
TORSDOF 2
