REMARK  Name = ZINC44075236
REMARK  17 active torsions:
REMARK  status: ('A' for Active; 'I' for Inactive)
REMARK    1  A    between atoms: C_1  and  C_2
REMARK    2  A    between atoms: C_2  and  C_3
REMARK    3  A    between atoms: C_3  and  C_4
REMARK    4  A    between atoms: C_4  and  C_5
REMARK    5  A    between atoms: C_5  and  C_6
REMARK    6  A    between atoms: C_6  and  C_7
REMARK    7  A    between atoms: C_9  and  O_38
REMARK    8  A    between atoms: C_11  and  C_37
REMARK    9  A    between atoms: C_16  and  N_24
REMARK   10  A    between atoms: C_18  and  C_23
REMARK   11  A    between atoms: C_25  and  C_27
REMARK   12  A    between atoms: C_31  and  N_34
REMARK   13  A    between atoms: C_32  and  O_33
REMARK   14  A    between atoms: O_38  and  C_39
REMARK   15  A    between atoms: C_39  and  C_41
REMARK   16  A    between atoms: C_41  and  C_42
REMARK   17  A    between atoms: C_42  and  C_43
REMARK                            x       y       z     vdW  Elec       q    Type
REMARK                         _______ _______ _______ _____ _____    ______ ____
ROOT
ATOM      1  C   UNL     1      -4.284  -4.662  -0.056  0.00  0.00    +0.142 C 
ATOM      2  C   UNL     1      -4.261  -6.187  -0.189  0.00  0.00    +0.230 C 
ATOM      3  C   UNL     1      -5.661  -6.798  -0.056  0.00  0.00    +0.215 C 
ATOM      4  O   UNL     1      -5.733  -7.620   1.109  0.00  0.00    -0.456 OA
ATOM      5  C   UNL     1      -5.466  -7.177   2.343  0.00  0.00    +0.332 C 
ATOM      6  O   UNL     1      -4.435  -7.613   2.850  0.00  0.00    -0.249 OA
ATOM      7  C   UNL     1      -6.295  -6.245   3.177  0.00  0.00    +0.223 C 
ATOM      8  C   UNL     1      -5.449  -4.987   3.465  0.00  0.00    +0.204 C 
ATOM      9  O   UNL     1      -4.556  -4.740   2.394  0.00  0.00    -0.459 OA
ATOM     10  C   UNL     1      -4.938  -4.213   1.233  0.00  0.00    +0.314 C 
ATOM     11  O   UNL     1      -5.779  -3.338   1.154  0.00  0.00    -0.250 OA
ATOM     12  C   UNL     1      -6.350  -3.803   3.799  0.00  0.00    +0.054 C 
ATOM     13  C   UNL     1      -6.807  -5.843  -0.251  0.00  0.00    +0.056 C 
ENDROOT
BRANCH   7  14
ATOM     14  N   UNL     1      -7.581  -5.902   2.594  0.00  0.00    -0.295 N 
ATOM     15  C   UNL     1      -8.642  -6.712   2.778  0.00  0.00    +0.248 C 
ATOM     16  O   UNL     1      -8.524  -7.730   3.433  0.00  0.00    -0.270 OA
ATOM     17  H   UNL     1      -7.676  -5.090   2.072  0.00  0.00    +0.150 HD
BRANCH  15  18
ATOM     18  C   UNL     1      -9.948  -6.364   2.186  0.00  0.00    +0.080 A 
ATOM     19  C   UNL     1     -10.087  -5.197   1.428  0.00  0.00    +0.017 A 
ATOM     20  C   UNL     1     -11.307  -4.874   0.877  0.00  0.00    +0.003 A 
ATOM     21  C   UNL     1     -12.402  -5.700   1.068  0.00  0.00    +0.027 A 
ATOM     22  C   UNL     1     -12.281  -6.861   1.816  0.00  0.00    +0.076 A 
ATOM     23  C   UNL     1     -11.052  -7.203   2.375  0.00  0.00    +0.150 A 
BRANCH  22  24
ATOM     24  N   UNL     1     -13.394  -7.692   2.006  0.00  0.00    -0.285 N 
ATOM     25  C   UNL     1     -14.624  -7.154   2.123  0.00  0.00    +0.330 C 
ATOM     26  O   UNL     1     -14.780  -5.960   1.984  0.00  0.00    -0.279 OA
ATOM     27  H   UNL     1     -13.278  -8.654   2.052  0.00  0.00    +0.155 HD
ENDBRANCH  22  24
BRANCH  23  28
ATOM     28  O   UNL     1     -10.928  -8.341   3.104  0.00  0.00    -0.504 OA
ATOM     29  H   UNL     1     -11.105  -8.225   4.048  0.00  0.00    +0.292 HD
ENDBRANCH  23  28
ENDBRANCH  15  18
ENDBRANCH   7  14
BRANCH   1  30
ATOM     30  C   UNL     1      -2.841  -4.130  -0.079  0.00  0.00    +0.018 C 
BRANCH  30  31
ATOM     31  C   UNL     1      -2.862  -2.600  -0.076  0.00  0.00    +0.001 C 
BRANCH  31  32
ATOM     32  C   UNL     1      -1.427  -2.071  -0.099  0.00  0.00    +0.000 C 
BRANCH  32  33
ATOM     33  C   UNL     1      -1.448  -0.541  -0.097  0.00  0.00    -0.000 C 
BRANCH  33  35
ATOM     34  C   UNL     1      -0.033   1.519  -0.117  0.00  0.00    +0.004 C 
ATOM     35  C   UNL     1      -0.013  -0.011  -0.119  0.00  0.00    -0.003 C 
ENDBRANCH  33  35
ENDBRANCH  32  33
ENDBRANCH  31  32
ENDBRANCH  30  31
ENDBRANCH   1  30
BRANCH   2  36
ATOM     36  O   UNL     1      -3.356  -6.761   0.755  0.00  0.00    -0.457 OA
BRANCH  36  37
ATOM     37  C   UNL     1      -2.757  -7.910   0.403  0.00  0.00    +0.307 C 
ATOM     38  O   UNL     1      -2.994  -8.411  -0.670  0.00  0.00    -0.251 OA
BRANCH  37  39
ATOM     39  C   UNL     1      -1.789  -8.575   1.348  0.00  0.00    +0.120 C 
BRANCH  39  40
ATOM     40  C   UNL     1      -1.254  -9.858   0.710  0.00  0.00    +0.008 C 
ATOM     41  C   UNL     1      -0.271 -10.533   1.669  0.00  0.00    +0.004 C 
ENDBRANCH  39  40
ENDBRANCH  37  39
ENDBRANCH  36  37
ENDBRANCH   2  36
TORSDOF 13
