REMARK  Name = ZINC13468990
REMARK  7 active torsions:
REMARK  status: ('A' for Active; 'I' for Inactive)
REMARK    1  A    between atoms: C_1  and  C_2
REMARK    2  A    between atoms: C_5  and  C_21
REMARK    3  A    between atoms: C_6  and  N_8
REMARK    4  A    between atoms: N_8  and  C_9
REMARK    5  A    between atoms: C_9  and  N_10
REMARK    6  A    between atoms: N_10  and  N_11
REMARK    7  A    between atoms: C_12  and  C_14
REMARK                            x       y       z     vdW  Elec       q    Type
REMARK                         _______ _______ _______ _____ _____    ______ ____
ROOT
ATOM      1  C   UNL     1       0.150  -2.135   3.562  0.00  0.00    +0.151 C 
ATOM      2  S   UNL     1       0.127  -0.423   3.580  0.00  0.00    -0.017 S 
ENDROOT
BRANCH   1   3
ATOM      3  N   UNL     1       0.052  -2.797   2.392  0.00  0.00    -0.296 N 
ATOM      4  H   UNL     1      -0.015  -3.765   2.387  0.00  0.00    +0.154 HD
BRANCH   3  10
ATOM      5  C   UNL     1       1.921   0.766  -0.431  0.00  0.00    +0.044 C 
ATOM      6  C   UNL     1       0.942  -0.357  -0.210  0.00  0.00    -0.049 A 
ATOM      7  C   UNL     1       0.036  -0.690  -1.201  0.00  0.00    +0.004 A 
ATOM      8  C   UNL     1      -0.864  -1.720  -1.002  0.00  0.00    +0.005 A 
ATOM      9  C   UNL     1      -0.861  -2.421   0.188  0.00  0.00    -0.029 A 
ATOM     10  C   UNL     1       0.047  -2.090   1.185  0.00  0.00    +0.036 A 
ATOM     11  C   UNL     1       0.953  -1.057   0.980  0.00  0.00    +0.027 A 
ATOM     12  C   UNL     1      -1.843  -3.544   0.405  0.00  0.00    +0.045 C 
ENDBRANCH   3  10
ENDBRANCH   1   3
BRANCH   1  13
ATOM     13  N   UNL     1       0.267  -2.819   4.717  0.00  0.00    -0.245 N 
ATOM     14  H   UNL     1       0.337  -2.342   5.558  0.00  0.00    +0.172 HD
BRANCH  13  15
ATOM     15  N   UNL     1       0.285  -4.220   4.702  0.00  0.00    -0.229 N 
ATOM     16  C   UNL     1       0.402  -4.905   5.857  0.00  0.00    +0.295 C 
ATOM     17  O   UNL     1       0.490  -4.306   6.913  0.00  0.00    -0.265 OA
ATOM     18  H   UNL     1       0.215  -4.697   3.860  0.00  0.00    +0.173 HD
BRANCH  16  19
ATOM     19  C   UNL     1       0.421  -6.370   5.841  0.00  0.00    +0.192 A 
ATOM     20  C   UNL     1       0.528  -7.183   6.934  0.00  0.00    +0.056 A 
ATOM     21  C   UNL     1       0.505  -8.503   6.459  0.00  0.00    +0.058 A 
ATOM     22  C   UNL     1       0.387  -8.440   5.112  0.00  0.00    +0.171 A 
ATOM     23  O   UNL     1       0.331  -7.153   4.745  0.00  0.00    -0.444 OA
ATOM     24 BR   UNL     1       0.306  -9.924   3.943  0.00  0.00    -0.008 Br
ENDBRANCH  16  19
ENDBRANCH  13  15
ENDBRANCH   1  13
TORSDOF 5
