REMARK  Name = ZINC50816859
REMARK  7 active torsions:
REMARK  status: ('A' for Active; 'I' for Inactive)
REMARK    1  A    between atoms: C_1  and  C_2
REMARK    2  A    between atoms: C_8  and  N_10
REMARK    3  A    between atoms: N_10  and  C_11
REMARK    4  A    between atoms: N_10  and  C_12
REMARK    5  A    between atoms: C_12  and  C_13
REMARK    6  A    between atoms: C_15  and  N_20
REMARK    7  A    between atoms: C_18  and  N_19
REMARK                            x       y       z     vdW  Elec       q    Type
REMARK                         _______ _______ _______ _____ _____    ______ ____
ROOT
ATOM      1  C   UNL     1       4.404  -0.521   2.306  0.00  0.00    -0.041 A 
ATOM      2  C   UNL     1       5.210  -1.455   1.685  0.00  0.00    +0.036 A 
ATOM      3  C   UNL     1       6.584  -1.298   1.690  0.00  0.00    +0.126 A 
ATOM      4  C   UNL     1       7.156  -0.205   2.316  0.00  0.00    +0.034 A 
ATOM      5  C   UNL     1       6.356   0.732   2.939  0.00  0.00    +0.025 A 
ATOM      6  C   UNL     1       4.975   0.580   2.931  0.00  0.00    +0.026 A 
ENDROOT
BRANCH   6   7
ATOM      7  N   UNL     1       4.163   1.529   3.556  0.00  0.00    -0.358 N 
ATOM      8  H   UNL     1       3.216   1.354   3.675  0.00  0.00    +0.142 HD
ATOM      9  H   UNL     1       4.545   2.363   3.870  0.00  0.00    +0.142 HD
ENDBRANCH   6   7
BRANCH   3  10
ATOM     10  N   UNL     1       7.445  -2.301   1.023  0.00  0.00    +0.056 N 
ATOM     11  O   UNL     1       6.946  -3.256   0.475  0.00  0.00    -0.126 OA
ATOM     12  O   UNL     1       8.646  -2.164   1.027  0.00  0.00    -0.126 OA
ENDBRANCH   3  10
BRANCH   1  13
ATOM     13  C   UNL     1       2.907  -0.694   2.300  0.00  0.00    -0.041 C 
BRANCH  13  14
ATOM     14  N   UNL     1       2.334   0.043   1.166  0.00  0.00    +0.383 N 
ATOM     15  C   UNL     1       2.524   1.485   1.373  0.00  0.00    -0.095 C 
ATOM     16  H   UNL     1       2.796  -0.239   0.314  0.00  0.00    -0.081 HD
BRANCH  14  23
ATOM     17  C   UNL     1       1.380  -2.013  -0.641  0.00  0.00    +0.006 C 
ATOM     18  C   UNL     1       0.705  -1.726   0.702  0.00  0.00    -0.028 C 
ATOM     19  C   UNL     1      -0.790  -2.034   0.598  0.00  0.00    +0.002 C 
ATOM     20  C   UNL     1      -1.465  -1.747   1.941  0.00  0.00    +0.000 C 
ATOM     21  C   UNL     1      -1.271  -0.274   2.304  0.00  0.00    -0.002 C 
ATOM     22  C   UNL     1       0.224   0.034   2.409  0.00  0.00    -0.015 C 
ATOM     23  C   UNL     1       0.898  -0.253   1.066  0.00  0.00    -0.066 C 
ENDBRANCH  14  23
ENDBRANCH  13  14
ENDBRANCH   1  13
TORSDOF 5
