REMARK  Name = ZINC63165474
REMARK  5 active torsions:
REMARK  status: ('A' for Active; 'I' for Inactive)
REMARK    1  A    between atoms: C_4  and  C_7
REMARK    2  A    between atoms: C_7  and  C_8
REMARK    3  A    between atoms: C_7  and  C_18
REMARK    4  A    between atoms: C_7  and  O_24
REMARK    5  A    between atoms: C_8  and  C_9
REMARK                            x       y       z     vdW  Elec       q    Type
REMARK                         _______ _______ _______ _____ _____    ______ ____
ROOT
ATOM      1  C   UNL     1       3.711  -0.707  -0.038  0.00  0.00    +0.119 C 
ENDROOT
BRANCH   1   5
ATOM      2  C   UNL     1      -0.017   1.378   0.010  0.00  0.00    +0.000 A 
ATOM      3  C   UNL     1       1.171   2.086   0.002  0.00  0.00    +0.000 A 
ATOM      4  C   UNL     1       2.377   1.411  -0.013  0.00  0.00    +0.007 A 
ATOM      5  C   UNL     1       2.396   0.029  -0.020  0.00  0.00    -0.012 A 
ATOM      6  C   UNL     1       1.208  -0.679  -0.012  0.00  0.00    +0.007 A 
ATOM      7  C   UNL     1       0.002  -0.004   0.002  0.00  0.00    +0.000 A 
ENDBRANCH   1   5
BRANCH   1   8
ATOM      8  C   UNL     1       4.135  -0.945  -1.464  0.00  0.00    -0.012 A 
ATOM      9  C   UNL     1       3.740  -2.097  -2.119  0.00  0.00    +0.007 A 
ATOM     10  C   UNL     1       4.128  -2.315  -3.428  0.00  0.00    +0.000 A 
ATOM     11  C   UNL     1       4.911  -1.382  -4.081  0.00  0.00    +0.000 A 
ATOM     12  C   UNL     1       5.305  -0.230  -3.426  0.00  0.00    +0.000 A 
ATOM     13  C   UNL     1       4.913  -0.010  -2.119  0.00  0.00    +0.007 A 
ENDBRANCH   1   8
BRANCH   1  14
ATOM     14  O   UNL     1       4.704   0.075   0.630  0.00  0.00    -0.379 OA
ATOM     15  H   UNL     1       5.577  -0.338   0.657  0.00  0.00    +0.211 HD
ENDBRANCH   1  14
BRANCH   1  16
ATOM     16  C   UNL     1       3.554  -2.050   0.679  0.00  0.00    +0.091 C 
BRANCH  16  17
ATOM     17  C   UNL     1       3.005  -1.815   2.087  0.00  0.00    +0.177 C 
ATOM     18  N   UNL     1       3.960  -1.027   2.876  0.00  0.00    -0.363 N 
ATOM     19  C   UNL     1       4.314  -1.750   3.898  0.00  0.00    +0.060 A 
ATOM     20  C   UNL     1       5.228  -1.510   5.023  0.00  0.00    +0.027 A 
ATOM     21  C   UNL     1       5.400  -2.468   5.956  0.00  0.00    +0.002 A 
ATOM     22  C   UNL     1       4.736  -3.706   5.903  0.00  0.00    +0.002 A 
ATOM     23  C   UNL     1       3.877  -4.029   4.915  0.00  0.00    +0.027 A 
ATOM     24  C   UNL     1       3.610  -3.061   3.842  0.00  0.00    +0.060 A 
ATOM     25  N   UNL     1       2.849  -3.097   2.787  0.00  0.00    -0.363 N 
ATOM     26  H   UNL     1       4.271  -0.131   2.672  0.00  0.00    +0.162 HD
ATOM     27  H   UNL     1       2.281  -3.835   2.514  0.00  0.00    +0.162 HD
ENDBRANCH  16  17
ENDBRANCH   1  16
TORSDOF 5
