REMARK  Name = ZINC50773716
REMARK  6 active torsions:
REMARK  status: ('A' for Active; 'I' for Inactive)
REMARK    1  A    between atoms: C_1  and  C_2
REMARK    2  A    between atoms: C_8  and  C_10
REMARK    3  A    between atoms: C_10  and  N_11
REMARK    4  A    between atoms: C_12  and  C_14
REMARK    5  A    between atoms: C_16  and  N_21
REMARK    6  A    between atoms: N_21  and  C_22
REMARK                            x       y       z     vdW  Elec       q    Type
REMARK                         _______ _______ _______ _____ _____    ______ ____
ROOT
ATOM      1  N   UNL     1       0.799  -0.401   3.684  0.00  0.00    -0.311 N 
ATOM      2  C   UNL     1       0.357  -0.070   4.914  0.00  0.00    +0.244 C 
ATOM      3  O   UNL     1      -0.682   0.546   5.040  0.00  0.00    -0.270 OA
ATOM      4  H   UNL     1       1.629  -0.893   3.583  0.00  0.00    +0.149 HD
ENDROOT
BRANCH   2   5
ATOM      5  C   UNL     1       1.139  -0.458   6.111  0.00  0.00    +0.043 A 
ATOM      6  C   UNL     1       0.696  -0.130   7.393  0.00  0.00    +0.056 A 
ATOM      7  C   UNL     1       1.461  -0.514   8.489  0.00  0.00    +0.121 A 
ATOM      8  N   UNL     1       2.593  -1.181   8.323  0.00  0.00    -0.221 NA
ATOM      9  C   UNL     1       3.042  -1.508   7.126  0.00  0.00    +0.132 A 
ATOM     10  C   UNL     1       2.339  -1.168   5.986  0.00  0.00    +0.053 A 
ATOM     11 CL   UNL     1       4.534  -2.383   6.982  0.00  0.00    -0.062 Cl
BRANCH   7  12
ATOM     12  N   UNL     1       1.033  -0.195   9.772  0.00  0.00    -0.332 N 
ATOM     13  C   UNL     1      -0.218   0.543   9.964  0.00  0.00    +0.127 C 
ATOM     14  H   UNL     1       1.562  -0.460  10.540  0.00  0.00    +0.147 HD
ENDBRANCH   7  12
ENDBRANCH   2   5
BRANCH   1  15
ATOM     15  C   UNL     1       0.026  -0.018   2.500  0.00  0.00    +0.108 C 
BRANCH  15  22
ATOM     16  C   UNL     1      -0.019   1.526   0.010  0.00  0.00    +0.008 C 
ATOM     17  C   UNL     1       0.002  -0.004   0.002  0.00  0.00    -0.010 C 
ATOM     18  C   UNL     1       0.718  -0.497  -1.257  0.00  0.00    +0.003 C 
ATOM     19  C   UNL     1       0.739  -2.027  -1.265  0.00  0.00    +0.000 C 
ATOM     20  C   UNL     1       1.479  -2.534  -0.026  0.00  0.00    +0.000 C 
ATOM     21  C   UNL     1       0.763  -2.041   1.233  0.00  0.00    +0.005 C 
ATOM     22  C   UNL     1       0.742  -0.511   1.242  0.00  0.00    +0.009 C 
ENDBRANCH  15  22
ENDBRANCH   1  15
TORSDOF 4
