REMARK  Name = ZINC65990371
REMARK  7 active torsions:
REMARK  status: ('A' for Active; 'I' for Inactive)
REMARK    1  A    between atoms: C_1  and  C_2
REMARK    2  A    between atoms: C_7  and  C_11
REMARK    3  A    between atoms: C_11  and  N_12
REMARK    4  A    between atoms: N_15  and  C_16
REMARK    5  A    between atoms: C_16  and  C_17
REMARK    6  A    between atoms: C_16  and  C_18
REMARK    7  A    between atoms: C_21  and  N_24
REMARK                            x       y       z     vdW  Elec       q    Type
REMARK                         _______ _______ _______ _____ _____    ______ ____
ROOT
ATOM      1  N   UNL     1       1.458  -5.960   2.526  0.00  0.00    -0.294 N 
ATOM      2  C   UNL     1       1.727  -7.128   3.142  0.00  0.00    +0.300 C 
ATOM      3  O   UNL     1       0.821  -7.799   3.596  0.00  0.00    -0.253 OA
ATOM      4  N   UNL     1       3.001  -7.552   3.256  0.00  0.00    -0.293 N 
ATOM      5  H   UNL     1       2.181  -5.425   2.163  0.00  0.00    +0.151 HD
ATOM      6  H   UNL     1       3.725  -7.017   2.893  0.00  0.00    +0.151 HD
ENDROOT
BRANCH   4   7
ATOM      7  C   UNL     1       3.294  -8.822   3.926  0.00  0.00    +0.102 C 
ATOM      8  C   UNL     1       3.155  -9.970   2.925  0.00  0.00    +0.033 C 
BRANCH   7   9
ATOM      9  C   UNL     1       4.701  -8.792   4.465  0.00  0.00    -0.027 A 
ATOM     10  C   UNL     1       5.713  -8.214   3.721  0.00  0.00    +0.007 A 
ATOM     11  C   UNL     1       7.004  -8.186   4.212  0.00  0.00    +0.024 A 
ATOM     12  C   UNL     1       7.284  -8.738   5.455  0.00  0.00    +0.036 A 
ATOM     13  C   UNL     1       6.265  -9.318   6.200  0.00  0.00    +0.024 A 
ATOM     14  C   UNL     1       4.976  -9.338   5.705  0.00  0.00    +0.007 A 
BRANCH  12  15
ATOM     15  N   UNL     1       8.591  -8.712   5.955  0.00  0.00    -0.271 N 
ATOM     16  C   UNL     1       8.972  -9.163   7.299  0.00  0.00    +0.114 C 
ATOM     17  C   UNL     1      10.504  -9.360   7.248  0.00  0.00    +0.029 C 
ATOM     18  C   UNL     1      10.908  -8.394   6.110  0.00  0.00    +0.098 C 
ATOM     19  C   UNL     1       9.658  -8.275   5.265  0.00  0.00    +0.220 C 
ATOM     20  O   UNL     1       9.624  -7.845   4.132  0.00  0.00    -0.275 OA
ENDBRANCH  12  15
ENDBRANCH   7   9
ENDBRANCH   4   7
BRANCH   1  21
ATOM     21  C   UNL     1       0.073  -5.499   2.403  0.00  0.00    +0.160 C 
BRANCH  21  28
ATOM     22  C   UNL     1      -0.065   1.533   0.131  0.00  0.00    +0.045 C 
ATOM     23  C   UNL     1      -0.038   0.026   0.105  0.00  0.00    -0.034 A 
ATOM     24  C   UNL     1      -0.031  -0.652  -1.125  0.00  0.00    +0.008 A 
ATOM     25  C   UNL     1      -0.006  -2.012  -1.145  0.00  0.00    +0.045 A 
ATOM     26  C   UNL     1       0.013  -2.720   0.074  0.00  0.00    +0.115 A 
ATOM     27  N   UNL     1       0.037  -4.015   0.353  0.00  0.00    -0.342 N 
ATOM     28  C   UNL     1       0.046  -4.177   1.679  0.00  0.00    +0.051 A 
ATOM     29  C   UNL     1       0.027  -2.959   2.263  0.00  0.00    +0.115 A 
ATOM     30  N   UNL     1       0.006  -2.030   1.258  0.00  0.00    -0.308 N 
ATOM     31  C   UNL     1      -0.014  -0.665   1.264  0.00  0.00    +0.096 A 
ATOM     32  H   UNL     1       0.047  -4.731  -0.300  0.00  0.00    +0.167 HD
ENDBRANCH  21  28
ENDBRANCH   1  21
TORSDOF 5
