REMARK  Name = ZINC37360668
REMARK  12 active torsions:
REMARK  status: ('A' for Active; 'I' for Inactive)
REMARK    1  A    between atoms: C_1  and  C_2
REMARK    2  A    between atoms: C_6  and  C_8
REMARK    3  A    between atoms: C_10  and  N_27
REMARK    4  A    between atoms: N_11  and  C_23
REMARK    5  A    between atoms: N_17  and  C_18
REMARK    6  A    between atoms: C_18  and  C_19
REMARK    7  A    between atoms: C_19  and  N_20
REMARK    8  A    between atoms: N_20  and  C_21
REMARK    9  A    between atoms: N_20  and  C_22
REMARK   10  A    between atoms: C_23  and  C_24
REMARK   11  A    between atoms: C_23  and  C_25
REMARK   12  A    between atoms: C_23  and  C_26
REMARK                            x       y       z     vdW  Elec       q    Type
REMARK                         _______ _______ _______ _____ _____    ______ ____
ROOT
ATOM      1  C   UNL     1      -0.352  -2.621   2.619  0.00  0.00    +0.089 A 
ATOM      2  C   UNL     1      -0.885  -3.928   2.685  0.00  0.00    +0.086 A 
ATOM      3  C   UNL     1      -1.563  -4.772   1.813  0.00  0.00    +0.126 A 
ATOM      4  N   UNL     1      -1.811  -5.918   2.471  0.00  0.00    -0.243 N 
ATOM      5  N   UNL     1      -1.304  -5.841   3.773  0.00  0.00    -0.149 NA
ATOM      6  C   UNL     1      -0.738  -4.668   3.951  0.00  0.00    +0.188 A 
ATOM      7  N   UNL     1      -0.105  -4.054   4.970  0.00  0.00    -0.193 NA
ATOM      8  C   UNL     1       0.362  -2.832   4.822  0.00  0.00    +0.218 A 
ATOM      9  N   UNL     1       0.254  -2.135   3.694  0.00  0.00    -0.214 NA
ATOM     10  N   UNL     1       1.005  -2.242   5.896  0.00  0.00    -0.315 N 
ATOM     11  H   UNL     1       1.359  -1.343   5.815  0.00  0.00    +0.149 HD
ENDROOT
BRANCH   1  17
ATOM     12  C   UNL     1       1.737   0.373  -0.785  0.00  0.00    +0.044 C 
ATOM     13  C   UNL     1       0.540  -0.378  -0.260  0.00  0.00    -0.050 A 
ATOM     14  C   UNL     1      -0.665  -0.316  -0.937  0.00  0.00    +0.003 A 
ATOM     15  C   UNL     1      -1.768  -1.002  -0.462  0.00  0.00    +0.001 A 
ATOM     16  C   UNL     1      -1.673  -1.753   0.692  0.00  0.00    +0.010 A 
ATOM     17  C   UNL     1      -0.461  -1.818   1.380  0.00  0.00    +0.002 A 
ATOM     18  C   UNL     1       0.650  -1.128   0.892  0.00  0.00    +0.013 A 
ENDBRANCH   1  17
BRANCH   4  19
ATOM     19  C   UNL     1      -2.511  -7.076   1.908  0.00  0.00    +0.057 C 
ATOM     20  C   UNL     1      -1.744  -7.592   0.690  0.00  0.00    +0.036 C 
ATOM     21  C   UNL     1      -2.598  -8.181   2.962  0.00  0.00    +0.036 C 
ATOM     22  C   UNL     1      -3.922  -6.663   1.485  0.00  0.00    +0.036 C 
ENDBRANCH   4  19
BRANCH   3  23
ATOM     23  N   UNL     1      -1.917  -4.486   0.508  0.00  0.00    -0.343 N 
ATOM     24  H   UNL     1      -1.500  -3.742   0.045  0.00  0.00    +0.144 HD
ATOM     25  H   UNL     1      -2.582  -5.028   0.056  0.00  0.00    +0.144 HD
ENDBRANCH   3  23
BRANCH  10  26
ATOM     26  C   UNL     1       1.150  -2.977   7.155  0.00  0.00    +0.086 C 
BRANCH  26  27
ATOM     27  C   UNL     1       1.892  -2.105   8.171  0.00  0.00    -0.061 C 
BRANCH  27  28
ATOM     28  N   UNL     1       2.038  -2.841   9.433  0.00  0.00    +0.377 N 
ATOM     29  C   UNL     1       2.853  -2.054  10.368  0.00  0.00    -0.097 C 
ATOM     30  C   UNL     1       0.712  -3.078  10.019  0.00  0.00    -0.097 C 
ATOM     31  H   UNL     1       2.490  -3.726   9.256  0.00  0.00    -0.083 HD
ENDBRANCH  27  28
ENDBRANCH  26  27
ENDBRANCH  10  26
TORSDOF 6
