REMARK  Name = ZINC67411374
REMARK  5 active torsions:
REMARK  status: ('A' for Active; 'I' for Inactive)
REMARK    1  A    between atoms: C_1  and  C_2
REMARK    2  A    between atoms: C_2  and  C_4
REMARK    3  A    between atoms: C_2  and  N_10
REMARK    4  A    between atoms: N_13  and  C_16
REMARK    5  A    between atoms: C_16  and  C_17
REMARK                            x       y       z     vdW  Elec       q    Type
REMARK                         _______ _______ _______ _____ _____    ______ ____
ROOT
ATOM      1  N   UNL     1       0.257  -0.576   1.331  0.00  0.00    -0.289 NA
ATOM      2  C   UNL     1       0.283  -2.044   1.277  0.00  0.00    +0.100 C 
ATOM      3  C   UNL     1       0.471  -2.601   2.690  0.00  0.00    +0.100 C 
ATOM      4  N   UNL     1       1.720  -2.075   3.258  0.00  0.00    -0.294 NA
ATOM      5  C   UNL     1       1.694  -0.607   3.313  0.00  0.00    +0.100 C 
ATOM      6  C   UNL     1       1.506  -0.050   1.899  0.00  0.00    +0.100 C 
ENDROOT
BRANCH   1   8
ATOM      7  C   UNL     1       1.273  -0.095  -0.844  0.00  0.00    +0.034 C 
ATOM      8  C   UNL     1       0.002  -0.004   0.002  0.00  0.00    +0.140 C 
BRANCH   8   9
ATOM      9  C   UNL     1      -0.404   1.440   0.146  0.00  0.00    +0.237 C 
ATOM     10  O   UNL     1      -0.218   2.021   1.194  0.00  0.00    -0.274 OA
ATOM     11  N   UNL     1      -0.973   2.086  -0.891  0.00  0.00    -0.239 N 
ATOM     12  C   UNL     1      -1.336   3.378  -0.762  0.00  0.00    +0.303 C 
ATOM     13  O   UNL     1      -1.150   3.960   0.288  0.00  0.00    -0.253 OA
ATOM     14  N   UNL     1      -1.905   4.024  -1.799  0.00  0.00    -0.313 N 
ATOM     15  H   UNL     1      -1.121   1.622  -1.730  0.00  0.00    +0.159 HD
ATOM     16  H   UNL     1      -2.054   3.560  -2.638  0.00  0.00    +0.146 HD
ATOM     17  H   UNL     1      -2.167   4.954  -1.707  0.00  0.00    +0.146 HD
ENDBRANCH   8   9
ENDBRANCH   1   8
BRANCH   4  18
ATOM     18  C   UNL     1       1.975  -2.647   4.587  0.00  0.00    +0.139 C 
BRANCH  18  19
ATOM     19  C   UNL     1       3.368  -2.283   5.032  0.00  0.00    +0.048 A 
ATOM     20  C   UNL     1       4.471  -3.049   4.875  0.00  0.00    +0.115 A 
ATOM     21  N   UNL     1       5.522  -2.357   5.412  0.00  0.00    -0.306 N 
ATOM     22  C   UNL     1       6.852  -2.644   5.530  0.00  0.00    +0.112 A 
ATOM     23  C   UNL     1       7.695  -1.766   6.116  0.00  0.00    +0.058 A 
ATOM     24  C   UNL     1       7.212  -0.543   6.612  0.00  0.00    +0.025 A 
ATOM     25  C   UNL     1       5.890  -0.246   6.500  0.00  0.00    +0.046 A 
ATOM     26  C   UNL     1       5.023  -1.172   5.886  0.00  0.00    +0.116 A 
ATOM     27  N   UNL     1       3.720  -1.149   5.641  0.00  0.00    -0.342 N 
ATOM     28 CL   UNL     1       9.382  -2.151   6.257  0.00  0.00    -0.082 Cl
ATOM     29  H   UNL     1       3.118  -0.423   5.870  0.00  0.00    +0.167 HD
ENDBRANCH  18  19
ENDBRANCH   4  18
TORSDOF 4
