REMARK  Name = ZINC66939676
REMARK  10 active torsions:
REMARK  status: ('A' for Active; 'I' for Inactive)
REMARK    1  A    between atoms: C_1  and  C_2
REMARK    2  A    between atoms: C_2  and  C_3
REMARK    3  A    between atoms: C_2  and  O_4
REMARK    4  A    between atoms: O_4  and  C_5
REMARK    5  A    between atoms: C_5  and  C_6
REMARK    6  A    between atoms: C_9  and  C_12
REMARK    7  A    between atoms: C_12  and  N_13
REMARK    8  A    between atoms: N_13  and  C_14
REMARK    9  A    between atoms: C_14  and  C_16
REMARK   10  A    between atoms: C_14  and  C_23
REMARK                            x       y       z     vdW  Elec       q    Type
REMARK                         _______ _______ _______ _____ _____    ______ ____
ROOT
ATOM      1  N   UNL     1      -7.813  -2.362   0.344  0.00  0.00    +0.392 N 
ATOM      2  H   UNL     1      -7.448  -2.257   1.278  0.00  0.00    -0.084 HD
ATOM      3  H   UNL     1      -7.745  -1.482  -0.145  0.00  0.00    -0.084 HD
ENDROOT
BRANCH   1   4
ATOM      4  C   UNL     1      -7.038  -3.382  -0.374  0.00  0.00    -0.045 C 
BRANCH   4   8
ATOM      5  C   UNL     1      -2.943  -2.181  -0.575  0.00  0.00    -0.022 A 
ATOM      6  C   UNL     1      -3.390  -2.937   0.492  0.00  0.00    +0.006 A 
ATOM      7  C   UNL     1      -4.715  -3.326   0.557  0.00  0.00    +0.002 A 
ATOM      8  C   UNL     1      -5.593  -2.958  -0.444  0.00  0.00    -0.064 A 
ATOM      9  C   UNL     1      -5.147  -2.200  -1.511  0.00  0.00    +0.002 A 
ATOM     10  C   UNL     1      -3.823  -1.808  -1.574  0.00  0.00    +0.006 A 
BRANCH   5  11
ATOM     11  C   UNL     1      -1.499  -1.757  -0.646  0.00  0.00    +0.195 C 
BRANCH  11  12
ATOM     12  O   UNL     1      -1.339  -0.499   0.012  0.00  0.00    -0.373 OA
BRANCH  12  14
ATOM     13  C   UNL     1      -0.019   1.526   0.010  0.00  0.00    +0.037 C 
ATOM     14  C   UNL     1       0.002  -0.004   0.002  0.00  0.00    +0.113 C 
ATOM     15  C   UNL     1       0.742  -0.511   1.242  0.00  0.00    +0.037 C 
ENDBRANCH  12  14
ENDBRANCH  11  12
ENDBRANCH   5  11
ENDBRANCH   4   8
ENDBRANCH   1   4
BRANCH   1  16
ATOM     16  C   UNL     1      -9.221  -2.775   0.413  0.00  0.00    +0.047 C 
BRANCH  16  17
ATOM     17  C   UNL     1      -9.994  -1.791   1.253  0.00  0.00    -0.053 A 
ATOM     18  C   UNL     1      -9.738  -0.437   1.141  0.00  0.00    +0.005 A 
ATOM     19  C   UNL     1     -10.446   0.466   1.911  0.00  0.00    +0.038 A 
ATOM     20  C   UNL     1     -11.412   0.014   2.795  0.00  0.00    +0.123 A 
ATOM     21  C   UNL     1     -11.666  -1.342   2.906  0.00  0.00    +0.038 A 
ATOM     22  C   UNL     1     -10.961  -2.243   2.132  0.00  0.00    +0.005 A 
ATOM     23  F   UNL     1     -12.104   0.896   3.548  0.00  0.00    -0.205 F 
ENDBRANCH  16  17
BRANCH  16  24
ATOM     24  C   UNL     1      -9.802  -2.813  -0.977  0.00  0.00    +0.201 C 
ATOM     25  O   UNL     1      -9.111  -2.524  -1.931  0.00  0.00    -0.277 OA
ATOM     26  N   UNL     1     -11.089  -3.169  -1.160  0.00  0.00    -0.330 N 
ATOM     27  H   UNL     1     -11.642  -3.400  -0.397  0.00  0.00    +0.145 HD
ATOM     28  H   UNL     1     -11.463  -3.193  -2.055  0.00  0.00    +0.145 HD
ENDBRANCH  16  24
ENDBRANCH   1  16
TORSDOF 8
