REMARK  Name = ZINC63265663
REMARK  7 active torsions:
REMARK  status: ('A' for Active; 'I' for Inactive)
REMARK    1  A    between atoms: C_1  and  C_2
REMARK    2  A    between atoms: C_6  and  C_8
REMARK    3  A    between atoms: C_8  and  C_14
REMARK    4  A    between atoms: N_16  and  N_17
REMARK    5  A    between atoms: N_20  and  C_21
REMARK    6  A    between atoms: C_21  and  C_22
REMARK    7  A    between atoms: C_21  and  C_23
REMARK                            x       y       z     vdW  Elec       q    Type
REMARK                         _______ _______ _______ _____ _____    ______ ____
ROOT
ATOM      1  C   UNL     1       0.054  -2.845   2.489  0.00  0.00    +0.073 C 
ATOM      2  C   UNL     1       1.352  -2.293   3.082  0.00  0.00    +0.021 C 
ATOM      3  C   UNL     1       1.531  -2.829   4.504  0.00  0.00    +0.001 C 
ATOM      4  C   UNL     1       1.594  -4.357   4.469  0.00  0.00    +0.000 C 
ATOM      5  C   UNL     1       0.296  -4.909   3.876  0.00  0.00    +0.001 C 
ATOM      6  C   UNL     1       0.118  -4.373   2.454  0.00  0.00    +0.021 C 
ENDROOT
BRANCH   1  12
ATOM      7  C   UNL     1       1.592   0.090  -1.262  0.00  0.00    +0.044 C 
ATOM      8  C   UNL     1       0.614  -0.912  -0.706  0.00  0.00    -0.050 A 
ATOM      9  C   UNL     1      -0.445  -1.348  -1.481  0.00  0.00    +0.003 A 
ATOM     10  C   UNL     1      -1.342  -2.268  -0.971  0.00  0.00    +0.001 A 
ATOM     11  C   UNL     1      -1.181  -2.752   0.314  0.00  0.00    +0.004 A 
ATOM     12  C   UNL     1      -0.122  -2.317   1.088  0.00  0.00    -0.032 A 
ATOM     13  C   UNL     1       0.778  -1.401   0.577  0.00  0.00    +0.008 A 
ENDBRANCH   1  12
BRANCH   1  14
ATOM     14  C   UNL     1      -1.111  -2.410   3.339  0.00  0.00    +0.240 C 
ATOM     15  O   UNL     1      -1.896  -3.233   3.760  0.00  0.00    -0.273 OA
ATOM     16  N   UNL     1      -1.282  -1.105   3.633  0.00  0.00    -0.232 N 
ATOM     17  H   UNL     1      -0.698  -0.439   3.238  0.00  0.00    +0.173 HD
BRANCH  16  18
ATOM     18  N   UNL     1      -2.302  -0.712   4.509  0.00  0.00    -0.218 N 
ATOM     19  C   UNL     1      -2.472   0.593   4.802  0.00  0.00    +0.316 C 
ATOM     20  O   UNL     1      -3.358   0.934   5.562  0.00  0.00    -0.251 OA
ATOM     21  N   UNL     1      -1.661   1.518   4.254  0.00  0.00    -0.296 N 
ATOM     22  H   UNL     1      -2.886  -1.378   4.904  0.00  0.00    +0.174 HD
ATOM     23  H   UNL     1      -0.954   1.246   3.647  0.00  0.00    +0.151 HD
BRANCH  21  24
ATOM     24  C   UNL     1      -1.846   2.936   4.573  0.00  0.00    +0.068 C 
ATOM     25  C   UNL     1      -0.523   3.680   4.376  0.00  0.00    +0.027 C 
ATOM     26  C   UNL     1      -2.909   3.533   3.648  0.00  0.00    +0.027 C 
ENDBRANCH  21  24
ENDBRANCH  16  18
ENDBRANCH   1  14
TORSDOF 4
