REMARK  Name = ZINC24056205
REMARK  2 active torsions:
REMARK  status: ('A' for Active; 'I' for Inactive)
REMARK    1  A    between atoms: C_1  and  C_2
REMARK    2  A    between atoms: C_7  and  C_10
REMARK                            x       y       z     vdW  Elec       q    Type
REMARK                         _______ _______ _______ _____ _____    ______ ____
ROOT
ATOM      1  C   UNL     1      -3.863  -5.300   2.312  0.00  0.00    +0.039 C 
ATOM      2  C   UNL     1      -3.748  -4.391   1.087  0.00  0.00    +0.133 C 
ATOM      3  C   UNL     1      -2.433  -3.610   1.150  0.00  0.00    +0.138 C 
ATOM      4  N   UNL     1      -2.364  -2.683   0.012  0.00  0.00    -0.310 N 
ATOM      5  C   UNL     1      -3.503  -1.753   0.027  0.00  0.00    +0.138 C 
ATOM      6  C   UNL     1      -4.808  -2.552  -0.024  0.00  0.00    +0.133 C 
ATOM      7  O   UNL     1      -4.843  -3.470   1.072  0.00  0.00    -0.371 OA
ATOM      8  C   UNL     1      -5.998  -1.595   0.073  0.00  0.00    +0.039 C 
ATOM      9  C   UNL     1      -1.162  -1.995   0.003  0.00  0.00    +0.128 A 
ATOM     10  C   UNL     1       0.050  -2.687  -0.012  0.00  0.00    +0.084 A 
ATOM     11  C   UNL     1       1.226  -1.959  -0.020  0.00  0.00    +0.136 A 
ATOM     12  N   UNL     1       1.167  -0.634  -0.013  0.00  0.00    -0.203 NA
ATOM     13  C   UNL     1       0.002  -0.004   0.002  0.00  0.00    +0.216 A 
ATOM     14  N   UNL     1      -1.146  -0.665   0.015  0.00  0.00    -0.200 NA
ATOM     15  N   UNL     1      -0.017   1.380   0.010  0.00  0.00    -0.327 N 
ATOM     16 CL   UNL     1       2.760  -2.770  -0.038  0.00  0.00    -0.062 Cl
ATOM     17  H   UNL     1      -0.977   1.917   0.022  0.00  0.00    +0.145 HD
ATOM     18  H   UNL     1       0.928   1.943   0.004  0.00  0.00    +0.145 HD
ENDROOT
TORSDOF 0
