REMARK  Name = ZINC36276538
REMARK  4 active torsions:
REMARK  status: ('A' for Active; 'I' for Inactive)
REMARK    1  A    between atoms: C_5  and  N_7
REMARK    2  A    between atoms: N_10  and  C_13
REMARK    3  A    between atoms: C_13  and  C_14
REMARK    4  A    between atoms: C_18  and  N_23
REMARK                            x       y       z     vdW  Elec       q    Type
REMARK                         _______ _______ _______ _____ _____    ______ ____
ROOT
ATOM      1  C   UNL     1      -0.659  -5.824  -0.034  0.00  0.00    +0.139 C 
ENDROOT
BRANCH   1   2
ATOM      2  C   UNL     1      -0.320  -6.762  -1.163  0.00  0.00    +0.048 A 
ATOM      3  C   UNL     1      -0.875  -6.748  -2.394  0.00  0.00    +0.115 A 
ATOM      4  N   UNL     1      -0.293  -7.756  -3.113  0.00  0.00    -0.306 N 
ATOM      5  C   UNL     1      -0.466  -8.195  -4.396  0.00  0.00    +0.115 A 
ATOM      6  C   UNL     1       0.257  -9.239  -4.869  0.00  0.00    +0.041 A 
ATOM      7  C   UNL     1       1.197  -9.883  -4.040  0.00  0.00    +0.028 A 
ATOM      8  C   UNL     1       1.375  -9.451  -2.763  0.00  0.00    +0.046 A 
ATOM      9  C   UNL     1       0.615  -8.364  -2.287  0.00  0.00    +0.116 A 
ATOM     10  N   UNL     1       0.585  -7.743  -1.115  0.00  0.00    -0.342 N 
ATOM     11  H   UNL     1       1.131  -7.967  -0.345  0.00  0.00    +0.167 HD
BRANCH   6  12
ATOM     12  N   UNL     1       0.070  -9.679  -6.186  0.00  0.00    -0.357 N 
ATOM     13  H   UNL     1      -0.577  -9.237  -6.758  0.00  0.00    +0.142 HD
ATOM     14  H   UNL     1       0.587 -10.426  -6.526  0.00  0.00    +0.142 HD
ENDBRANCH   6  12
ENDBRANCH   1   2
BRANCH   1  18
ATOM     15  N   UNL     1       1.236  -2.079  -0.021  0.00  0.00    -0.325 N 
ATOM     16  C   UNL     1       1.254  -2.841   1.237  0.00  0.00    +0.120 C 
ATOM     17  C   UNL     1       0.139  -3.890   1.186  0.00  0.00    +0.103 C 
ATOM     18  N   UNL     1       0.285  -4.698  -0.032  0.00  0.00    -0.294 NA
ATOM     19  C   UNL     1       0.127  -3.876  -1.239  0.00  0.00    +0.103 C 
ATOM     20  C   UNL     1       1.236  -2.827  -1.288  0.00  0.00    +0.120 C 
BRANCH  15  25
ATOM     21  C   UNL     1      -0.017   1.377   0.010  0.00  0.00    +0.002 A 
ATOM     22  C   UNL     1       1.170   2.087   0.002  0.00  0.00    +0.003 A 
ATOM     23  C   UNL     1       2.380   1.418  -0.013  0.00  0.00    +0.040 A 
ATOM     24  C   UNL     1       2.406   0.035  -0.021  0.00  0.00    +0.144 A 
ATOM     25  C   UNL     1       1.214  -0.681  -0.013  0.00  0.00    +0.065 A 
ATOM     26  C   UNL     1       0.002  -0.004   0.002  0.00  0.00    +0.026 A 
ATOM     27  F   UNL     1       3.588  -0.619  -0.036  0.00  0.00    -0.204 F 
ENDBRANCH  15  25
ENDBRANCH   1  18
TORSDOF 4
