REMARK  Name = ZINC63176873
REMARK  4 active torsions:
REMARK  status: ('A' for Active; 'I' for Inactive)
REMARK    1  A    between atoms: C_1  and  C_2
REMARK    2  A    between atoms: C_9  and  N_11
REMARK    3  A    between atoms: N_11  and  C_12
REMARK    4  A    between atoms: C_17  and  N_19
REMARK                            x       y       z     vdW  Elec       q    Type
REMARK                         _______ _______ _______ _____ _____    ______ ____
ROOT
ATOM      1  N   UNL     1       0.050  -2.771   2.395  0.00  0.00    -0.328 N 
ATOM      2  H   UNL     1       0.064  -3.740   2.393  0.00  0.00    +0.148 HD
ENDROOT
BRANCH   1  11
ATOM      3  C   UNL     1      -0.018   1.503   0.010  0.00  0.00    +0.044 C 
ATOM      4  C   UNL     1       0.002  -0.004   0.002  0.00  0.00    -0.044 A 
ATOM      5  C   UNL     1       0.006  -0.683  -1.182  0.00  0.00    +0.051 A 
ATOM      6  C   UNL     1       0.025  -2.087  -1.172  0.00  0.00    +0.158 A 
ATOM      7  N   UNL     1       0.033  -2.998  -2.140  0.00  0.00    -0.215 NA
ATOM      8  C   UNL     1       0.052  -4.213  -1.609  0.00  0.00    +0.246 A 
ATOM      9  N   UNL     1       0.057  -4.123  -0.301  0.00  0.00    -0.152 NA
ATOM     10  N   UNL     1       0.040  -2.758   0.019  0.00  0.00    -0.199 N 
ATOM     11  C   UNL     1       0.035  -2.076   1.199  0.00  0.00    +0.123 A 
ATOM     12  C   UNL     1       0.023  -0.712   1.207  0.00  0.00    +0.047 A 
ENDBRANCH   1  11
BRANCH   1  13
ATOM     13  C   UNL     1       0.046  -2.041   3.666  0.00  0.00    +0.057 C 
ATOM     14  C   UNL     1       1.491  -1.694   4.081  0.00  0.00    +0.020 C 
ATOM     15  C   UNL     1       1.493  -1.857   5.621  0.00  0.00    +0.000 C 
ATOM     16  C   UNL     1       0.584  -3.092   5.836  0.00  0.00    -0.014 C 
ATOM     17  C   UNL     1      -0.532  -2.930   4.781  0.00  0.00    -0.055 C 
BRANCH  17  18
ATOM     18  N   UNL     1      -0.905  -4.242   4.237  0.00  0.00    +0.381 N 
ATOM     19  H   UNL     1      -0.089  -4.689   3.846  0.00  0.00    -0.090 HD
ATOM     20  H   UNL     1      -1.283  -4.817   4.975  0.00  0.00    -0.090 HD
ATOM     21  H   UNL     1      -1.601  -4.121   3.515  0.00  0.00    -0.090 HD
ENDBRANCH  17  18
ENDBRANCH   1  13
TORSDOF 3
