REMARK  Name = ZINC41125316
REMARK  6 active torsions:
REMARK  status: ('A' for Active; 'I' for Inactive)
REMARK    1  A    between atoms: C_1  and  C_2
REMARK    2  A    between atoms: C_5  and  C_8
REMARK    3  A    between atoms: N_10  and  N_11
REMARK    4  A    between atoms: N_11  and  S_12
REMARK    5  A    between atoms: S_12  and  C_15
REMARK    6  A    between atoms: C_19  and  C_21
REMARK                            x       y       z     vdW  Elec       q    Type
REMARK                         _______ _______ _______ _____ _____    ______ ____
ROOT
ATOM      1  N   UNL     1       0.092  -6.332   1.134  0.00  0.00    -0.108 NA
ATOM      2  H   UNL     1      -0.592  -6.824   0.653  0.00  0.00    +0.172 HD
ENDROOT
BRANCH   1   5
ATOM      3  C   UNL     1       0.059  -4.251  -0.021  0.00  0.00    +0.259 C 
ATOM      4  O   UNL     1       0.062  -4.853  -1.077  0.00  0.00    -0.269 OA
ATOM      5  N   UNL     1       0.074  -4.931   1.142  0.00  0.00    -0.228 N 
ATOM      6  H   UNL     1       0.072  -4.451   1.985  0.00  0.00    +0.171 HD
BRANCH   3  11
ATOM      7  C   UNL     1      -0.018   1.503   0.010  0.00  0.00    +0.044 C 
ATOM      8  C   UNL     1       0.002  -0.004   0.002  0.00  0.00    -0.050 A 
ATOM      9  C   UNL     1       0.006  -0.686  -1.202  0.00  0.00    +0.004 A 
ATOM     10  C   UNL     1       0.024  -2.066  -1.216  0.00  0.00    +0.013 A 
ATOM     11  C   UNL     1       0.040  -2.773  -0.013  0.00  0.00    +0.038 A 
ATOM     12  C   UNL     1       0.036  -2.079   1.198  0.00  0.00    +0.013 A 
ATOM     13  C   UNL     1       0.023  -0.699   1.198  0.00  0.00    +0.004 A 
ENDBRANCH   3  11
ENDBRANCH   1   5
BRANCH   1  14
ATOM     14  S   UNL     1       1.282  -7.149   1.947  0.00  0.00    +0.074 S 
ATOM     15  O   UNL     1       0.950  -8.529   1.873  0.00  0.00    -0.152 OA
ATOM     16  O   UNL     1       2.521  -6.638   1.474  0.00  0.00    -0.152 OA
BRANCH  14  17
ATOM     17  C   UNL     1       1.163  -6.692   3.644  0.00  0.00    +0.108 A 
ATOM     18  C   UNL     1       1.868  -5.598   4.115  0.00  0.00    +0.030 A 
ATOM     19  C   UNL     1       1.781  -5.231   5.446  0.00  0.00    +0.018 A 
ATOM     20  C   UNL     1       0.988  -5.954   6.314  0.00  0.00    +0.032 A 
ATOM     21  C   UNL     1       0.272  -7.060   5.845  0.00  0.00    +0.079 A 
ATOM     22  C   UNL     1       0.362  -7.421   4.498  0.00  0.00    +0.044 A 
ATOM     23 BR   UNL     1       0.871  -5.452   8.134  0.00  0.00    -0.049 Br
BRANCH  21  24
ATOM     24  C   UNL     1      -0.577  -7.838   6.766  0.00  0.00    +0.388 C 
ATOM     25  O   UNL     1      -1.202  -8.805   6.352  0.00  0.00    -0.241 OA
ATOM     26  O   UNL     1      -0.656  -7.517   7.943  0.00  0.00    -0.241 OA
ENDBRANCH  21  24
ENDBRANCH  14  17
ENDBRANCH   1  14
TORSDOF 5
