REMARK  Name = ZINC50441950
REMARK  7 active torsions:
REMARK  status: ('A' for Active; 'I' for Inactive)
REMARK    1  A    between atoms: C_1  and  C_2
REMARK    2  A    between atoms: C_4  and  C_21
REMARK    3  A    between atoms: C_5  and  O_11
REMARK    4  A    between atoms: C_6  and  N_8
REMARK    5  A    between atoms: O_11  and  C_12
REMARK    6  A    between atoms: C_17  and  C_18
REMARK    7  A    between atoms: C_18  and  N_19
REMARK                            x       y       z     vdW  Elec       q    Type
REMARK                         _______ _______ _______ _____ _____    ______ ____
ROOT
ATOM      1  O   UNL     1       0.059  -4.129  -0.021  0.00  0.00    -0.453 OA
ENDROOT
BRANCH   1   6
ATOM      2  C   UNL     1      -0.018   1.503   0.010  0.00  0.00    +0.044 C 
ATOM      3  C   UNL     1       0.002  -0.004   0.002  0.00  0.00    -0.048 A 
ATOM      4  C   UNL     1       0.006  -0.688  -1.200  0.00  0.00    +0.010 A 
ATOM      5  C   UNL     1       0.025  -2.069  -1.210  0.00  0.00    -0.006 A 
ATOM      6  C   UNL     1       0.041  -2.770  -0.013  0.00  0.00    +0.161 A 
ATOM      7  C   UNL     1       0.037  -2.082   1.191  0.00  0.00    +0.169 A 
ATOM      8  C   UNL     1       0.023  -0.701   1.196  0.00  0.00    +0.040 A 
ATOM      9  C   UNL     1       0.029  -2.813  -2.521  0.00  0.00    +0.047 C 
BRANCH   7  10
ATOM     10  N   UNL     1       0.053  -2.827   2.470  0.00  0.00    +0.060 N 
ATOM     11  O   UNL     1       0.050  -2.227   3.520  0.00  0.00    -0.126 OA
ATOM     12  O   UNL     1       0.070  -4.036   2.466  0.00  0.00    -0.126 OA
ENDBRANCH   7  10
ENDBRANCH   1   6
BRANCH   1  13
ATOM     13  C   UNL     1       1.268  -4.751  -0.030  0.00  0.00    +0.130 A 
ATOM     14  C   UNL     1       2.435  -4.000  -0.026  0.00  0.00    +0.049 A 
ATOM     15  C   UNL     1       3.662  -4.633  -0.036  0.00  0.00    +0.042 A 
ATOM     16  C   UNL     1       3.728  -6.017  -0.049  0.00  0.00    +0.124 A 
ATOM     17  C   UNL     1       2.565  -6.767  -0.053  0.00  0.00    +0.043 A 
ATOM     18  C   UNL     1       1.336  -6.136  -0.038  0.00  0.00    -0.020 A 
ATOM     19  F   UNL     1       4.930  -6.635  -0.059  0.00  0.00    -0.205 F 
BRANCH  18  20
ATOM     20  C   UNL     1       0.069  -6.953  -0.036  0.00  0.00    -0.047 C 
BRANCH  20  21
ATOM     21  N   UNL     1      -0.480  -7.009  -1.398  0.00  0.00    +0.381 N 
ATOM     22  H   UNL     1      -0.683  -6.074  -1.717  0.00  0.00    -0.090 HD
ATOM     23  H   UNL     1       0.195  -7.436  -2.015  0.00  0.00    -0.090 HD
ATOM     24  H   UNL     1      -1.327  -7.556  -1.396  0.00  0.00    -0.090 HD
ENDBRANCH  20  21
ENDBRANCH  18  20
ENDBRANCH   1  13
TORSDOF 5
