REMARK  Name = ZINC39681249
REMARK  6 active torsions:
REMARK  status: ('A' for Active; 'I' for Inactive)
REMARK    1  A    between atoms: C_5  and  O_7
REMARK    2  A    between atoms: O_7  and  C_8
REMARK    3  A    between atoms: C_8  and  C_9
REMARK    4  A    between atoms: C_9  and  N_10
REMARK    5  A    between atoms: C_11  and  C_13
REMARK    6  A    between atoms: C_24  and  C_26
REMARK                            x       y       z     vdW  Elec       q    Type
REMARK                         _______ _______ _______ _____ _____    ______ ____
ROOT
ATOM      1  C   UNL     1       2.207  -6.295   2.118  0.00  0.00    +0.100 C 
ATOM      2  C   UNL     1       3.575  -5.698   2.517  0.00  0.00    +0.121 C 
ATOM      3  N   UNL     1       4.283  -6.807   3.199  0.00  0.00    -0.296 N 
ATOM      4  C   UNL     1       3.929  -8.011   2.410  0.00  0.00    +0.115 C 
ATOM      5  C   UNL     1       2.444  -7.813   2.048  0.00  0.00    -0.004 C 
ATOM      6  C   UNL     1       1.554  -8.533   3.056  0.00  0.00    -0.010 C 
ATOM      7  C   UNL     1       1.766 -10.044   2.928  0.00  0.00    -0.082 C 
ATOM      8  N   UNL     1       1.438 -10.472   1.563  0.00  0.00    +0.379 N 
ATOM      9  C   UNL     1       2.359  -9.845   0.607  0.00  0.00    -0.082 C 
ATOM     10  C   UNL     1       2.173  -8.326   0.637  0.00  0.00    -0.010 C 
ATOM     11  C   UNL     1       5.070  -6.737   4.291  0.00  0.00    +0.247 C 
ATOM     12  O   UNL     1       5.163  -5.693   4.907  0.00  0.00    -0.270 OA
ATOM     13  H   UNL     1       1.520 -11.476   1.498  0.00  0.00    -0.086 HD
ATOM     14  H   UNL     1       0.492 -10.200   1.345  0.00  0.00    -0.086 HD
ENDROOT
BRANCH  11  15
ATOM     15  C   UNL     1       5.820  -7.929   4.739  0.00  0.00    +0.038 A 
ATOM     16  C   UNL     1       6.074  -8.973   3.848  0.00  0.00    +0.013 A 
ATOM     17  C   UNL     1       6.775 -10.083   4.272  0.00  0.00    +0.002 A 
ATOM     18  C   UNL     1       7.225 -10.164   5.578  0.00  0.00    +0.015 A 
ATOM     19  C   UNL     1       6.976  -9.133   6.467  0.00  0.00    +0.019 A 
ATOM     20  C   UNL     1       6.282  -8.014   6.053  0.00  0.00    +0.028 A 
ATOM     21 BR   UNL     1       7.595  -9.254   8.250  0.00  0.00    -0.050 Br
ENDBRANCH  11  15
BRANCH   1  23
ATOM     22  N   UNL     1       0.467  -5.634   0.488  0.00  0.00    -0.312 N 
ATOM     23  C   UNL     1       1.778  -5.768   0.772  0.00  0.00    +0.218 C 
ATOM     24  O   UNL     1       2.611  -5.465  -0.054  0.00  0.00    -0.275 OA
ATOM     25  H   UNL     1      -0.200  -5.876   1.150  0.00  0.00    +0.149 HD
BRANCH  22  26
ATOM     26  C   UNL     1       0.050  -5.122  -0.819  0.00  0.00    +0.145 C 
BRANCH  26  27
ATOM     27  C   UNL     1      -1.478  -5.069  -0.882  0.00  0.00    +0.248 C 
BRANCH  27  28
ATOM     28  O   UNL     1      -1.962  -4.118   0.068  0.00  0.00    -0.489 OA
BRANCH  28  33
ATOM     29  C   UNL     1      -5.515  -4.505  -0.610  0.00  0.00    +0.004 A 
ATOM     30  C   UNL     1      -6.049  -3.600   0.289  0.00  0.00    +0.002 A 
ATOM     31  C   UNL     1      -5.216  -2.868   1.114  0.00  0.00    +0.023 A 
ATOM     32  C   UNL     1      -3.846  -3.039   1.042  0.00  0.00    +0.083 A 
ATOM     33  C   UNL     1      -3.308  -3.947   0.141  0.00  0.00    +0.139 A 
ATOM     34  C   UNL     1      -4.147  -4.680  -0.685  0.00  0.00    +0.047 A 
ATOM     35 CL   UNL     1      -2.800  -2.119   2.078  0.00  0.00    -0.080 Cl
ENDBRANCH  28  33
ENDBRANCH  27  28
ENDBRANCH  26  27
ENDBRANCH  22  26
ENDBRANCH   1  23
TORSDOF 6
