REMARK  Name = ZINC09135721
REMARK  8 active torsions:
REMARK  status: ('A' for Active; 'I' for Inactive)
REMARK    1  A    between atoms: C_1  and  N_2
REMARK    2  A    between atoms: C_10  and  C_12
REMARK    3  A    between atoms: C_12  and  C_14
REMARK    4  A    between atoms: C_12  and  N_63
REMARK    5  A    between atoms: C_14  and  N_15
REMARK    6  A    between atoms: C_16  and  C_18
REMARK    7  A    between atoms: N_20  and  C_21
REMARK    8  A    between atoms: C_26  and  C_27
REMARK                            x       y       z     vdW  Elec       q    Type
REMARK                         _______ _______ _______ _____ _____    ______ ____
ROOT
ATOM      1  C   UNL     1      -7.563   1.412  -0.662  0.00  0.00    +0.094 C 
ENDROOT
BRANCH   1   2
ATOM      2  N   UNL     1      -8.005   2.221  -1.801  0.00  0.00    -0.309 N 
ATOM      3  C   UNL     1      -7.320   3.329  -2.147  0.00  0.00    +0.299 C 
ATOM      4  O   UNL     1      -6.338   3.658  -1.515  0.00  0.00    -0.265 OA
ATOM      5  H   UNL     1      -8.790   1.958  -2.307  0.00  0.00    +0.149 HD
BRANCH   3   6
ATOM      6  C   UNL     1      -7.771   4.153  -3.308  0.00  0.00    +0.303 C 
ATOM      7  O   UNL     1      -8.753   3.825  -3.941  0.00  0.00    -0.265 OA
ATOM      8  N   UNL     1      -7.086   5.262  -3.654  0.00  0.00    -0.277 N 
ATOM      9  H   UNL     1      -6.258   5.482  -3.199  0.00  0.00    +0.155 HD
BRANCH   8  10
ATOM     10  C   UNL     1      -7.569   6.093  -4.668  0.00  0.00    +0.045 A 
ATOM     11  C   UNL     1      -8.908   6.038  -5.035  0.00  0.00    +0.024 A 
ATOM     12  C   UNL     1      -9.382   6.861  -6.037  0.00  0.00    +0.002 A 
ATOM     13  C   UNL     1      -8.525   7.741  -6.675  0.00  0.00    +0.001 A 
ATOM     14  C   UNL     1      -7.194   7.803  -6.307  0.00  0.00    +0.014 A 
ATOM     15  C   UNL     1      -6.712   6.978  -5.310  0.00  0.00    +0.076 A 
BRANCH  15  16
ATOM     16  C   UNL     1      -5.259   7.042  -4.915  0.00  0.00    +0.419 C 
ATOM     17  F   UNL     1      -4.605   7.999  -5.697  0.00  0.00    -0.166 F 
ATOM     18  F   UNL     1      -5.158   7.394  -3.564  0.00  0.00    -0.166 F 
ATOM     19  F   UNL     1      -4.666   5.791  -5.115  0.00  0.00    -0.166 F 
ENDBRANCH  15  16
ENDBRANCH   8  10
ENDBRANCH   3   6
ENDBRANCH   1   2
BRANCH   1  20
ATOM     20  C   UNL     1      -8.442   0.165  -0.551  0.00  0.00    -0.020 C 
BRANCH  20  30
ATOM     21  C   UNL     1     -13.719   2.682   1.843  0.00  0.00    +0.129 C 
ATOM     22  N   UNL     1     -13.749   1.693   0.758  0.00  0.00    -0.333 N 
ATOM     23  C   UNL     1     -14.555   2.172  -0.366  0.00  0.00    +0.105 C 
ATOM     24  C   UNL     1     -14.528   1.113  -1.476  0.00  0.00    +0.024 C 
ATOM     25  C   UNL     1     -13.108   1.064  -2.046  0.00  0.00    +0.038 C 
ATOM     26  C   UNL     1     -12.110   1.008  -0.917  0.00  0.00    -0.026 A 
ATOM     27  C   UNL     1     -12.458   1.319   0.386  0.00  0.00    +0.033 A 
ATOM     28  C   UNL     1     -11.487   1.259   1.387  0.00  0.00    +0.023 A 
ATOM     29  C   UNL     1     -10.196   0.882   1.086  0.00  0.00    +0.004 A 
ATOM     30  C   UNL     1      -9.854   0.573  -0.218  0.00  0.00    -0.059 A 
ATOM     31  C   UNL     1     -10.809   0.635  -1.213  0.00  0.00    +0.007 A 
ENDBRANCH  20  30
BRANCH  20  36
ATOM     32  C   UNL     1      -8.758  -1.926   0.656  0.00  0.00    -0.078 C 
ATOM     33  C   UNL     1      -7.815  -2.919   1.382  0.00  0.00    -0.020 C 
ATOM     34  C   UNL     1      -6.439  -2.616   0.747  0.00  0.00    -0.020 C 
ATOM     35  C   UNL     1      -6.562  -1.188   0.182  0.00  0.00    -0.078 C 
ATOM     36  N   UNL     1      -7.910  -0.731   0.520  0.00  0.00    +0.385 N 
ATOM     37  H   UNL     1      -7.889  -0.218   1.409  0.00  0.00    -0.081 HD
ENDBRANCH  20  36
ENDBRANCH   1  20
TORSDOF 7
