REMARK  Name = ZINC57792139
REMARK  9 active torsions:
REMARK  status: ('A' for Active; 'I' for Inactive)
REMARK    1  A    between atoms: C_1  and  C_2
REMARK    2  A    between atoms: N_8  and  C_9
REMARK    3  A    between atoms: C_9  and  C_10
REMARK    4  A    between atoms: C_10  and  N_11
REMARK    5  A    between atoms: C_12  and  C_14
REMARK    6  A    between atoms: C_14  and  C_16
REMARK    7  A    between atoms: C_14  and  N_27
REMARK    8  A    between atoms: C_16  and  C_17
REMARK    9  A    between atoms: C_28  and  C_30
REMARK                            x       y       z     vdW  Elec       q    Type
REMARK                         _______ _______ _______ _____ _____    ______ ____
ROOT
ATOM      1  C   UNL     1       0.112  -9.381  -3.030  0.00  0.00    +0.163 C 
ENDROOT
BRANCH   1   2
ATOM      2  N   UNL     1      -0.341 -10.737  -2.709  0.00  0.00    -0.304 N 
ATOM      3  C   UNL     1       0.340 -11.480  -1.815  0.00  0.00    +0.211 C 
ATOM      4  O   UNL     1       1.327 -11.027  -1.275  0.00  0.00    -0.276 OA
ATOM      5  C   UNL     1      -0.126 -12.875  -1.485  0.00  0.00    +0.109 C 
ATOM      6  H   UNL     1      -1.130 -11.099  -3.141  0.00  0.00    +0.149 HD
ENDBRANCH   1   2
BRANCH   1   8
ATOM      7  N   UNL     1       0.089  -7.196  -1.871  0.00  0.00    -0.312 N 
ATOM      8  C   UNL     1       0.107  -8.541  -1.779  0.00  0.00    +0.234 C 
ATOM      9  O   UNL     1       0.120  -9.074  -0.690  0.00  0.00    -0.274 OA
ATOM     10  H   UNL     1       0.079  -6.769  -2.741  0.00  0.00    +0.149 HD
BRANCH   7  11
ATOM     11  C   UNL     1       0.084  -6.379  -0.654  0.00  0.00    +0.123 C 
BRANCH  11  12
ATOM     12  C   UNL     1       0.063  -4.897  -1.035  0.00  0.00    +0.121 C 
BRANCH  12  20
ATOM     13  C   UNL     1      -0.018   1.503   0.010  0.00  0.00    +0.065 C 
ATOM     14  C   UNL     1       0.002  -0.004   0.002  0.00  0.00    +0.032 A 
ATOM     15  C   UNL     1       0.006  -0.691  -1.204  0.00  0.00    +0.026 A 
ATOM     16  C   UNL     1       0.025  -2.076  -1.164  0.00  0.00    +0.047 A 
ATOM     17  C   UNL     1       0.039  -2.693   0.086  0.00  0.00    +0.139 A 
ATOM     18  N   UNL     1       0.034  -1.952   1.184  0.00  0.00    -0.159 NA
ATOM     19  N   UNL     1       0.022  -0.669   1.140  0.00  0.00    -0.280 N 
ATOM     20  N   UNL     1       0.058  -4.081   0.181  0.00  0.00    -0.326 N 
ATOM     21  H   UNL     1       0.068  -4.507   1.052  0.00  0.00    +0.148 HD
ATOM     22  H   UNL     1       0.023  -0.172   1.973  0.00  0.00    +0.189 HD
ENDBRANCH  12  20
ENDBRANCH  11  12
ENDBRANCH   7  11
ENDBRANCH   1   8
BRANCH   1  23
ATOM     23  C   UNL     1       1.531  -9.439  -3.600  0.00  0.00    +0.069 C 
BRANCH  23  24
ATOM     24  C   UNL     1       1.515 -10.175  -4.915  0.00  0.00    -0.020 A 
ATOM     25  C   UNL     1       1.763 -11.481  -5.102  0.00  0.00    +0.087 A 
ATOM     26  N   UNL     1       1.656 -11.790  -6.430  0.00  0.00    -0.360 N 
ATOM     27  H   UNL     1       1.791 -12.673  -6.809  0.00  0.00    +0.165 HD
ATOM     28  C   UNL     1       1.327 -10.663  -7.149  0.00  0.00    +0.047 A 
ATOM     29  C   UNL     1       1.218  -9.603  -6.230  0.00  0.00    +0.003 A 
ATOM     30  C   UNL     1       0.886  -8.323  -6.679  0.00  0.00    +0.010 A 
ATOM     31  C   UNL     1       0.664  -8.108  -8.011  0.00  0.00    +0.001 A 
ATOM     32  C   UNL     1       0.766  -9.151  -8.920  0.00  0.00    +0.002 A 
ATOM     33  C   UNL     1       1.103 -10.420  -8.500  0.00  0.00    +0.026 A 
ENDBRANCH  23  24
ENDBRANCH   1  23
TORSDOF 7
