REMARK  Name = ZINC38091938
REMARK  10 active torsions:
REMARK  status: ('A' for Active; 'I' for Inactive)
REMARK    1  A    between atoms: C_1  and  C_2
REMARK    2  A    between atoms: C_2  and  C_3
REMARK    3  A    between atoms: C_3  and  C_4
REMARK    4  A    between atoms: C_3  and  C_5
REMARK    5  A    between atoms: C_3  and  N_6
REMARK    6  A    between atoms: C_7  and  C_9
REMARK    7  A    between atoms: C_9  and  C_11
REMARK    8  A    between atoms: C_9  and  N_12
REMARK    9  A    between atoms: N_12  and  C_13
REMARK   10  A    between atoms: C_16  and  C_19
REMARK                            x       y       z     vdW  Elec       q    Type
REMARK                         _______ _______ _______ _____ _____    ______ ____
ROOT
ATOM      1  N   UNL     1       2.029  -4.603  -3.502  0.00  0.00    +0.388 N 
ATOM      2  H   UNL     1       1.591  -4.202  -4.317  0.00  0.00    -0.084 HD
ATOM      3  H   UNL     1       2.998  -4.323  -3.469  0.00  0.00    -0.084 HD
ENDROOT
BRANCH   1   4
ATOM      4  C   UNL     1       1.945  -6.068  -3.571  0.00  0.00    -0.071 C 
ATOM      5  C   UNL     1       0.484  -6.487  -3.746  0.00  0.00    -0.015 C 
ATOM      6  C   UNL     1       0.396  -8.013  -3.817  0.00  0.00    +0.011 C 
ATOM      7  C   UNL     1       1.216  -8.516  -5.007  0.00  0.00    +0.075 C 
ATOM      8  C   UNL     1       2.678  -8.097  -4.832  0.00  0.00    +0.011 C 
ATOM      9  C   UNL     1       2.765  -6.571  -4.760  0.00  0.00    -0.015 C 
BRANCH   7  10
ATOM     10  C   UNL     1       1.130 -10.019  -5.078  0.00  0.00    +0.214 C 
ATOM     11  O   UNL     1       0.476 -10.628  -4.258  0.00  0.00    -0.276 OA
ATOM     12  N   UNL     1       1.779 -10.686  -6.052  0.00  0.00    -0.329 N 
ATOM     13  H   UNL     1       2.302 -10.199  -6.708  0.00  0.00    +0.145 HD
ATOM     14  H   UNL     1       1.723 -11.653  -6.098  0.00  0.00    +0.145 HD
ENDBRANCH   7  10
ENDBRANCH   1   4
BRANCH   1  15
ATOM     15  C   UNL     1       1.341  -4.130  -2.293  0.00  0.00    +0.013 C 
ATOM     16  C   UNL     1       2.082  -4.636  -1.054  0.00  0.00    -0.004 C 
BRANCH  15  18
ATOM     17  N   UNL     1       0.738  -1.962  -1.265  0.00  0.00    -0.312 N 
ATOM     18  C   UNL     1       1.321  -2.623  -2.285  0.00  0.00    +0.199 C 
ATOM     19  O   UNL     1       1.829  -2.004  -3.196  0.00  0.00    -0.278 OA
ATOM     20  H   UNL     1       0.332  -2.457  -0.536  0.00  0.00    +0.149 HD
BRANCH  17  21
ATOM     21  C   UNL     1       0.718  -0.497  -1.257  0.00  0.00    +0.029 C 
ATOM     22  C   UNL     1      -0.022   0.009  -2.496  0.00  0.00    +0.031 C 
ATOM     23  C   UNL     1       2.154   0.032  -1.268  0.00  0.00    +0.031 C 
BRANCH  21  25
ATOM     24  C   UNL     1      -0.019   1.526   0.010  0.00  0.00    +0.006 C 
ATOM     25  C   UNL     1       0.002  -0.004   0.002  0.00  0.00    +0.022 C 
ENDBRANCH  21  25
ENDBRANCH  17  21
ENDBRANCH  15  18
ENDBRANCH   1  15
TORSDOF 6
