REMARK  Name = ZINC39980872
REMARK  4 active torsions:
REMARK  status: ('A' for Active; 'I' for Inactive)
REMARK    1  A    between atoms: C_7  and  C_13
REMARK    2  A    between atoms: C_13  and  S_14
REMARK    3  A    between atoms: S_14  and  C_15
REMARK    4  A    between atoms: C_19  and  C_22
REMARK                            x       y       z     vdW  Elec       q    Type
REMARK                         _______ _______ _______ _____ _____    ______ ____
ROOT
ATOM      1  S   UNL     1      -0.578  -3.020   1.610  0.00  0.00    -0.108 S 
ENDROOT
BRANCH   1   2
ATOM      2  C   UNL     1      -2.100  -4.002   1.501  0.00  0.00    +0.263 C 
ATOM      3  N   UNL     1      -3.023  -3.417   0.493  0.00  0.00    -0.218 NA
ATOM      4  N   UNL     1      -3.845  -4.577   0.109  0.00  0.00    -0.226 NA
ATOM      5  C   UNL     1      -2.889  -5.708   0.141  0.00  0.00    +0.206 C 
ATOM      6  O   UNL     1      -1.810  -5.323   1.008  0.00  0.00    -0.332 OA
ATOM      7  H   UNL     1      -2.512  -3.057  -0.299  0.00  0.00    +0.144 HD
ATOM      8  H   UNL     1      -4.597  -4.721   0.766  0.00  0.00    +0.143 HD
BRANCH   5   9
ATOM      9  C   UNL     1      -3.580  -6.959   0.690  0.00  0.00    +0.034 C 
ATOM     10  C   UNL     1      -2.595  -8.130   0.684  0.00  0.00    +0.007 C 
ATOM     11  C   UNL     1      -3.286  -9.380   1.232  0.00  0.00    +0.000 C 
ATOM     12  C   UNL     1      -4.491  -9.723   0.354  0.00  0.00    +0.000 C 
ATOM     13  C   UNL     1      -5.476  -8.552   0.360  0.00  0.00    +0.000 C 
ATOM     14  C   UNL     1      -4.785  -7.302  -0.188  0.00  0.00    +0.007 C 
ENDBRANCH   5   9
ENDBRANCH   1   2
BRANCH   1  15
ATOM     15  C   UNL     1       0.068  -3.023  -0.085  0.00  0.00    +0.109 C 
BRANCH  15  22
ATOM     16  C   UNL     1       0.133   1.300   0.057  0.00  0.00    +0.001 A 
ATOM     17  C   UNL     1       1.333   1.997   0.009  0.00  0.00    +0.002 A 
ATOM     18  C   UNL     1       2.533   1.326  -0.085  0.00  0.00    +0.026 A 
ATOM     19  C   UNL     1       2.545  -0.064  -0.133  0.00  0.00    +0.049 A 
ATOM     20  C   UNL     1       1.326  -0.767  -0.084  0.00  0.00    +0.002 A 
ATOM     21  C   UNL     1       0.120  -0.065   0.011  0.00  0.00    +0.010 A 
ATOM     22  C   UNL     1       1.349  -2.230  -0.135  0.00  0.00    -0.023 A 
ATOM     23  C   UNL     1       2.548  -2.857  -0.228  0.00  0.00    +0.075 A 
ATOM     24  C   UNL     1       3.741  -2.104  -0.274  0.00  0.00    +0.249 A 
ATOM     25  O   UNL     1       4.809  -2.687  -0.357  0.00  0.00    -0.268 OA
ATOM     26  N   UNL     1       3.731  -0.761  -0.228  0.00  0.00    -0.322 N 
ATOM     27  H   UNL     1       4.569  -0.274  -0.262  0.00  0.00    +0.169 HD
ENDBRANCH  15  22
ENDBRANCH   1  15
TORSDOF 4
