REMARK  Name = ZINC35357266
REMARK  5 active torsions:
REMARK  status: ('A' for Active; 'I' for Inactive)
REMARK    1  A    between atoms: C_1  and  C_2
REMARK    2  A    between atoms: C_3  and  S_8
REMARK    3  A    between atoms: S_8  and  N_11
REMARK    4  A    between atoms: N_11  and  C_12
REMARK    5  A    between atoms: N_15  and  C_18
REMARK                            x       y       z     vdW  Elec       q    Type
REMARK                         _______ _______ _______ _____ _____    ______ ____
ROOT
ATOM      1  S   UNL     1      -0.011  -0.130  -2.823  0.00  0.00    +0.067 S 
ATOM      2  O   UNL     1      -1.367  -0.154  -3.248  0.00  0.00    -0.152 OA
ATOM      3  O   UNL     1       0.775   1.053  -2.851  0.00  0.00    -0.152 OA
ENDROOT
BRANCH   1   6
ATOM      4  C   UNL     1      -0.018   1.503   0.010  0.00  0.00    +0.068 C 
ATOM      5  C   UNL     1       0.002  -0.004   0.002  0.00  0.00    +0.074 A 
ATOM      6  C   UNL     1       0.006  -0.707  -1.159  0.00  0.00    +0.166 A 
ATOM      7  S   UNL     1       0.032  -2.379  -0.532  0.00  0.00    -0.036 S 
ATOM      8  C   UNL     1       0.036  -2.010   1.110  0.00  0.00    +0.169 A 
ATOM      9  N   UNL     1       0.023  -0.700   1.123  0.00  0.00    -0.231 NA
ATOM     10 CL   UNL     1       0.058  -3.101   2.461  0.00  0.00    -0.054 Cl
ENDBRANCH   1   6
BRANCH   1  11
ATOM     11  N   UNL     1       0.791  -1.253  -3.739  0.00  0.00    -0.186 NA
ATOM     12  H   UNL     1       1.624  -1.016  -4.176  0.00  0.00    +0.148 HD
BRANCH  11  13
ATOM     13  C   UNL     1       0.243  -2.603  -3.889  0.00  0.00    +0.073 C 
ATOM     14  C   UNL     1      -0.574  -2.684  -5.181  0.00  0.00    +0.002 C 
ATOM     15  C   UNL     1      -1.078  -4.116  -5.372  0.00  0.00    -0.078 C 
ATOM     16  N   UNL     1       0.066  -5.033  -5.456  0.00  0.00    +0.378 N 
ATOM     17  C   UNL     1       0.813  -5.014  -4.192  0.00  0.00    -0.078 C 
ATOM     18  C   UNL     1       1.389  -3.616  -3.957  0.00  0.00    +0.002 C 
ATOM     19  C   UNL     1      -0.419  -6.395  -5.716  0.00  0.00    -0.096 C 
ATOM     20  H   UNL     1       0.672  -4.744  -6.208  0.00  0.00    -0.082 HD
ENDBRANCH  11  13
ENDBRANCH   1  11
TORSDOF 3
