REMARK  Name = ZINC49075358
REMARK  6 active torsions:
REMARK  status: ('A' for Active; 'I' for Inactive)
REMARK    1  A    between atoms: C_1  and  C_2
REMARK    2  A    between atoms: C_2  and  C_4
REMARK    3  A    between atoms: C_2  and  N_13
REMARK    4  A    between atoms: N_13  and  C_14
REMARK    5  A    between atoms: C_14  and  C_15
REMARK    6  A    between atoms: C_15  and  N_16
REMARK                            x       y       z     vdW  Elec       q    Type
REMARK                         _______ _______ _______ _____ _____    ______ ____
ROOT
ATOM      1  C   UNL     1      -0.019   1.526   0.010  0.00  0.00    -0.009 C 
ATOM      2  C   UNL     1       0.002  -0.004   0.002  0.00  0.00    -0.043 C 
ENDROOT
BRANCH   2   3
ATOM      3  C   UNL     1       0.731  -0.503   1.223  0.00  0.00    -0.042 A 
ATOM      4  C   UNL     1       0.017  -0.951   2.319  0.00  0.00    +0.005 A 
ATOM      5  C   UNL     1       0.684  -1.409   3.439  0.00  0.00    +0.022 A 
ATOM      6  C   UNL     1       2.067  -1.420   3.465  0.00  0.00    +0.061 A 
ATOM      7  C   UNL     1       2.783  -0.972   2.368  0.00  0.00    +0.078 A 
ATOM      8  C   UNL     1       2.114  -0.519   1.244  0.00  0.00    +0.062 A 
ATOM      9 CL   UNL     1       3.010   0.036  -0.135  0.00  0.00    -0.082 Cl
ATOM     10 CL   UNL     1       4.519  -0.985   2.400  0.00  0.00    -0.081 Cl
ATOM     11 CL   UNL     1       2.905  -1.994   4.873  0.00  0.00    -0.082 Cl
ENDBRANCH   2   3
BRANCH   2  12
ATOM     12  N   UNL     1      -1.376  -0.512   0.012  0.00  0.00    +0.385 N 
ATOM     13  H   UNL     1      -1.363  -1.518   0.090  0.00  0.00    -0.085 HD
ATOM     14  H   UNL     1      -1.873  -0.121   0.799  0.00  0.00    -0.085 HD
BRANCH  12  15
ATOM     15  C   UNL     1      -2.050  -0.126  -1.234  0.00  0.00    -0.058 C 
BRANCH  15  16
ATOM     16  C   UNL     1      -3.485  -0.656  -1.224  0.00  0.00    +0.124 C 
BRANCH  16  17
ATOM     17  N   UNL     1      -4.157  -0.270  -2.467  0.00  0.00    -0.273 N 
ATOM     18  C   UNL     1      -4.771  -1.107  -3.330  0.00  0.00    +0.108 A 
ATOM     19  C   UNL     1      -5.263  -0.362  -4.347  0.00  0.00    +0.041 A 
ATOM     20  C   UNL     1      -4.940   0.975  -4.096  0.00  0.00    +0.134 A 
ATOM     21  N   UNL     1      -4.282   1.032  -2.967  0.00  0.00    -0.180 NA
ENDBRANCH  16  17
ENDBRANCH  15  16
ENDBRANCH  12  15
ENDBRANCH   2  12
TORSDOF 5
