REMARK  Name = ZINC31987842
REMARK  11 active torsions:
REMARK  status: ('A' for Active; 'I' for Inactive)
REMARK    1  A    between atoms: C_1  and  C_2
REMARK    2  A    between atoms: C_2  and  N_3
REMARK    3  A    between atoms: N_3  and  C_4
REMARK    4  A    between atoms: N_3  and  C_6
REMARK    5  A    between atoms: C_4  and  C_5
REMARK    6  A    between atoms: C_6  and  C_8
REMARK    7  A    between atoms: C_6  and  C_22
REMARK    8  A    between atoms: C_8  and  N_9
REMARK    9  A    between atoms: C_10  and  C_12
REMARK   10  A    between atoms: C_15  and  N_21
REMARK   11  A    between atoms: C_16  and  N_18
REMARK                            x       y       z     vdW  Elec       q    Type
REMARK                         _______ _______ _______ _____ _____    ______ ____
ROOT
ATOM      1  N   UNL     1       1.138  -4.756  -0.359  0.00  0.00    -0.313 N 
ATOM      2  C   UNL     1       0.107  -3.972  -0.733  0.00  0.00    +0.244 C 
ATOM      3  O   UNL     1      -0.781  -4.426  -1.429  0.00  0.00    -0.270 OA
ATOM      4  H   UNL     1       1.941  -4.345   0.271  0.00  0.00    +0.149 HD
ENDROOT
BRANCH   2   5
ATOM      5  C   UNL     1       0.055  -2.564  -0.297  0.00  0.00    +0.039 A 
ATOM      6  C   UNL     1       1.075  -2.040   0.503  0.00  0.00    +0.015 A 
ATOM      7  C   UNL     1       1.025  -0.726   0.907  0.00  0.00    +0.026 A 
ATOM      8  C   UNL     1      -0.041   0.083   0.519  0.00  0.00    +0.055 A 
ATOM      9  C   UNL     1      -1.061  -0.437  -0.273  0.00  0.00    +0.147 A 
ATOM     10  C   UNL     1      -1.013  -1.750  -0.684  0.00  0.00    +0.047 A 
BRANCH   9  11
ATOM     11  N   UNL     1      -2.194   0.424  -0.677  0.00  0.00    +0.058 N 
ATOM     12  O   UNL     1      -3.328  -0.022  -0.678  0.00  0.00    -0.126 OA
ATOM     13  O   UNL     1      -1.994   1.578  -1.010  0.00  0.00    -0.126 OA
ENDBRANCH   9  11
BRANCH   8  14
ATOM     14  N   UNL     1      -0.089   1.410   0.930  0.00  0.00    -0.356 N 
ATOM     15  H   UNL     1      -0.931   2.050   0.625  0.00  0.00    +0.142 HD
ATOM     16  H   UNL     1       0.713   1.821   1.560  0.00  0.00    +0.142 HD
ENDBRANCH   8  14
ENDBRANCH   2   5
BRANCH   1  17
ATOM     17  C   UNL     1       1.189  -6.155  -0.791  0.00  0.00    +0.094 C 
BRANCH  17  18
ATOM     18  C   UNL     1       2.452  -6.815  -0.234  0.00  0.00    -0.020 C 
BRANCH  18  19
ATOM     19  C   UNL     1       2.443  -8.283  -0.575  0.00  0.00    -0.052 A 
ATOM     20  C   UNL     1       1.368  -8.842  -1.240  0.00  0.00    +0.009 A 
ATOM     21  C   UNL     1       1.395 -10.165  -1.536  0.00  0.00    +0.045 A 
ATOM     22  S   UNL     1       2.968 -10.664  -0.856  0.00  0.00    -0.105 S 
ATOM     23  C   UNL     1       3.487  -9.075  -0.230  0.00  0.00    +0.047 A 
ENDBRANCH  18  19
BRANCH  18  24
ATOM     24  N   UNL     1       2.487  -6.651   1.225  0.00  0.00    +0.385 N 
ATOM     25  H   UNL     1       2.628  -5.582   1.442  0.00  0.00    -0.081 HD
BRANCH  24  27
ATOM     26  C   UNL     1       1.042  -8.581   1.657  0.00  0.00    -0.017 C 
ATOM     27  C   UNL     1       1.217  -7.071   1.833  0.00  0.00    -0.081 C 
ENDBRANCH  24  27
BRANCH  24  28
ATOM     28  C   UNL     1       3.618  -7.384   1.810  0.00  0.00    -0.081 C 
ATOM     29  C   UNL     1       3.865  -6.887   3.236  0.00  0.00    -0.017 C 
ENDBRANCH  24  28
ENDBRANCH  18  24
ENDBRANCH  17  18
ENDBRANCH   1  17
TORSDOF 9
