REMARK  Name = ZINC40802101
REMARK  4 active torsions:
REMARK  status: ('A' for Active; 'I' for Inactive)
REMARK    1  A    between atoms: C_3  and  N_8
REMARK    2  A    between atoms: C_10  and  N_23
REMARK    3  A    between atoms: C_11  and  O_15
REMARK    4  A    between atoms: O_15  and  C_16
REMARK                            x       y       z     vdW  Elec       q    Type
REMARK                         _______ _______ _______ _____ _____    ______ ____
ROOT
ATOM      1  N   UNL     1       3.552   2.007  -0.546  0.00  0.00    -0.295 N 
ATOM      2  C   UNL     1       3.632   3.391  -0.652  0.00  0.00    +0.151 A 
ATOM      3  C   UNL     1       4.856   4.046  -0.488  0.00  0.00    +0.128 A 
ATOM      4  C   UNL     1       4.880   5.435  -0.605  0.00  0.00    +0.246 A 
ATOM      5  N   UNL     1       3.746   6.079  -0.866  0.00  0.00    -0.199 NA
ATOM      6  C   UNL     1       2.613   5.425  -1.014  0.00  0.00    +0.227 A 
ATOM      7  N   UNL     1       2.546   4.112  -0.917  0.00  0.00    -0.218 NA
ATOM      8  H   UNL     1       4.361   1.480  -0.451  0.00  0.00    +0.154 HD
ENDROOT
BRANCH   1  11
ATOM      9  C   UNL     1      -0.063   1.404  -0.284  0.00  0.00    +0.022 A 
ATOM     10  C   UNL     1       1.150   2.074  -0.238  0.00  0.00    +0.028 A 
ATOM     11  C   UNL     1       2.305   1.375  -0.576  0.00  0.00    +0.070 A 
ATOM     12  C   UNL     1       2.201   0.037  -0.945  0.00  0.00    +0.150 A 
ATOM     13  N   UNL     1       1.026  -0.561  -0.975  0.00  0.00    -0.242 NA
ATOM     14  C   UNL     1      -0.086   0.074  -0.660  0.00  0.00    +0.112 A 
ATOM     15 CL   UNL     1       3.630  -0.851  -1.370  0.00  0.00    -0.060 Cl
ENDBRANCH   1  11
BRANCH   3  16
ATOM     16  N   UNL     1       6.028   3.325  -0.213  0.00  0.00    -0.351 N 
ATOM     17  H   UNL     1       5.996   2.359  -0.134  0.00  0.00    +0.143 HD
ATOM     18  H   UNL     1       6.870   3.793  -0.102  0.00  0.00    +0.143 HD
ENDBRANCH   3  16
BRANCH   4  19
ATOM     19  O   UNL     1       6.042   6.118  -0.455  0.00  0.00    -0.436 OA
BRANCH  19  20
ATOM     20  C   UNL     1       5.986   7.476  -0.440  0.00  0.00    +0.130 A 
ATOM     21  C   UNL     1       5.573   8.142   0.705  0.00  0.00    +0.047 A 
ATOM     22  C   UNL     1       5.517   9.522   0.717  0.00  0.00    +0.019 A 
ATOM     23  C   UNL     1       5.874  10.240  -0.410  0.00  0.00    +0.018 A 
ATOM     24  C   UNL     1       6.286   9.578  -1.553  0.00  0.00    +0.019 A 
ATOM     25  C   UNL     1       6.348   8.198  -1.568  0.00  0.00    +0.047 A 
ATOM     26 BR   UNL     1       5.797  12.130  -0.390  0.00  0.00    -0.050 Br
ENDBRANCH  19  20
ENDBRANCH   4  19
TORSDOF 4
