REMARK  Name = ZINC41142994
REMARK  8 active torsions:
REMARK  status: ('A' for Active; 'I' for Inactive)
REMARK    1  A    between atoms: C_1  and  O_2
REMARK    2  A    between atoms: O_2  and  C_3
REMARK    3  A    between atoms: C_6  and  N_9
REMARK    4  A    between atoms: C_10  and  C_16
REMARK    5  A    between atoms: C_12  and  C_14
REMARK    6  A    between atoms: C_14  and  N_15
REMARK    7  A    between atoms: C_21  and  O_22
REMARK    8  A    between atoms: O_22  and  C_23
REMARK                            x       y       z     vdW  Elec       q    Type
REMARK                         _______ _______ _______ _____ _____    ______ ____
ROOT
ATOM      1  N   UNL     1      -4.882  -2.597   0.057  0.00  0.00    -0.232 N 
ATOM      2  C   UNL     1      -5.213  -3.706  -0.668  0.00  0.00    +0.078 A 
ATOM      3  C   UNL     1      -6.522  -3.993  -0.396  0.00  0.00    +0.051 A 
ATOM      4  C   UNL     1      -6.990  -3.040   0.509  0.00  0.00    +0.047 A 
ATOM      5  N   UNL     1      -6.015  -2.211   0.784  0.00  0.00    -0.173 NA
ENDROOT
BRANCH   1   9
ATOM      6  C   UNL     1      -1.163  -0.712   0.107  0.00  0.00    +0.120 A 
ATOM      7  C   UNL     1      -1.859  -0.903   1.291  0.00  0.00    +0.048 A 
ATOM      8  C   UNL     1      -3.091  -1.527   1.275  0.00  0.00    +0.031 A 
ATOM      9  C   UNL     1      -3.632  -1.963   0.073  0.00  0.00    +0.066 A 
ATOM     10  C   UNL     1      -2.934  -1.772  -1.112  0.00  0.00    +0.031 A 
ATOM     11  C   UNL     1      -1.706  -1.142  -1.095  0.00  0.00    +0.048 A 
BRANCH   6  13
ATOM     12  C   UNL     1       0.548   0.320   1.396  0.00  0.00    +0.277 C 
ATOM     13  O   UNL     1       0.050  -0.097   0.123  0.00  0.00    -0.495 OA
ENDBRANCH   6  13
ENDBRANCH   1   9
BRANCH   2  14
ATOM     14  C   UNL     1      -4.322  -4.458  -1.577  0.00  0.00    +0.042 A 
ATOM     15  C   UNL     1      -3.049  -4.839  -1.154  0.00  0.00    +0.013 A 
ATOM     16  C   UNL     1      -2.221  -5.540  -2.007  0.00  0.00    +0.001 A 
ATOM     17  C   UNL     1      -2.649  -5.866  -3.282  0.00  0.00    +0.004 A 
ATOM     18  C   UNL     1      -3.908  -5.493  -3.713  0.00  0.00    +0.046 A 
ATOM     19  C   UNL     1      -4.753  -4.795  -2.865  0.00  0.00    +0.129 A 
BRANCH  19  20
ATOM     20  O   UNL     1      -5.994  -4.434  -3.285  0.00  0.00    -0.494 OA
ATOM     21  C   UNL     1      -6.365  -4.812  -4.612  0.00  0.00    +0.277 C 
ENDBRANCH  19  20
ENDBRANCH   2  14
BRANCH   4  22
ATOM     22  C   UNL     1      -8.384  -2.979   1.078  0.00  0.00    -0.028 C 
BRANCH  22  23
ATOM     23  N   UNL     1      -8.413  -3.664   2.377  0.00  0.00    +0.382 N 
ATOM     24  H   UNL     1      -9.346  -3.623   2.758  0.00  0.00    -0.090 HD
ATOM     25  H   UNL     1      -8.142  -4.629   2.254  0.00  0.00    -0.090 HD
ATOM     26  H   UNL     1      -7.771  -3.213   3.010  0.00  0.00    -0.090 HD
ENDBRANCH  22  23
ENDBRANCH   4  22
TORSDOF 6
