REMARK  Name = ZINC64885814
REMARK  9 active torsions:
REMARK  status: ('A' for Active; 'I' for Inactive)
REMARK    1  A    between atoms: C_1  and  C_2
REMARK    2  A    between atoms: C_2  and  C_3
REMARK    3  A    between atoms: C_2  and  C_4
REMARK    4  A    between atoms: C_2  and  C_11
REMARK    5  A    between atoms: N_13  and  N_14
REMARK    6  A    between atoms: N_17  and  C_18
REMARK    7  A    between atoms: C_18  and  C_19
REMARK    8  A    between atoms: C_19  and  C_20
REMARK    9  A    between atoms: C_20  and  N_21
REMARK                            x       y       z     vdW  Elec       q    Type
REMARK                         _______ _______ _______ _____ _____    ______ ____
ROOT
ATOM      1  N   UNL     1       2.927  -0.516  -2.316  0.00  0.00    -0.218 N 
ATOM      2  C   UNL     1       4.236  -0.198  -2.363  0.00  0.00    +0.316 C 
ATOM      3  O   UNL     1       4.912  -0.545  -3.312  0.00  0.00    -0.251 OA
ATOM      4  N   UNL     1       4.796   0.504  -1.358  0.00  0.00    -0.298 N 
ATOM      5  H   UNL     1       2.525  -1.021  -3.039  0.00  0.00    +0.174 HD
ATOM      6  H   UNL     1       4.257   0.781  -0.601  0.00  0.00    +0.150 HD
ENDROOT
BRANCH   1   9
ATOM      7  C   UNL     1       0.840  -0.434  -1.175  0.00  0.00    +0.239 C 
ATOM      8  O   UNL     1       0.336  -1.066  -2.079  0.00  0.00    -0.273 OA
ATOM      9  N   UNL     1       2.149  -0.116  -1.222  0.00  0.00    -0.232 N 
ATOM     10  H   UNL     1       2.552   0.389  -0.498  0.00  0.00    +0.173 HD
BRANCH   7  12
ATOM     11  C   UNL     1      -0.075   1.524   0.043  0.00  0.00    +0.025 C 
ATOM     12  C   UNL     1       0.002  -0.004   0.002  0.00  0.00    +0.068 C 
ATOM     13  C   UNL     1       0.638  -0.517   1.295  0.00  0.00    +0.025 C 
BRANCH  12  14
ATOM     14  C   UNL     1      -1.387  -0.573  -0.135  0.00  0.00    -0.033 A 
ATOM     15  C   UNL     1      -1.842  -1.510   0.773  0.00  0.00    +0.006 A 
ATOM     16  C   UNL     1      -3.115  -2.033   0.648  0.00  0.00    +0.020 A 
ATOM     17  C   UNL     1      -3.934  -1.618  -0.387  0.00  0.00    +0.041 A 
ATOM     18  C   UNL     1      -3.478  -0.680  -1.296  0.00  0.00    +0.020 A 
ATOM     19  C   UNL     1      -2.206  -0.154  -1.166  0.00  0.00    +0.006 A 
ATOM     20 CL   UNL     1      -5.534  -2.274  -0.545  0.00  0.00    -0.084 Cl
ENDBRANCH  12  14
ENDBRANCH   7  12
ENDBRANCH   1   9
BRANCH   4  21
ATOM     21  C   UNL     1       6.219   0.849  -1.409  0.00  0.00    +0.107 C 
BRANCH  21  22
ATOM     22  C   UNL     1       6.597   1.641  -0.156  0.00  0.00    +0.040 C 
BRANCH  22  23
ATOM     23  C   UNL     1       8.083   2.001  -0.209  0.00  0.00    +0.124 C 
BRANCH  23  24
ATOM     24  N   UNL     1       8.445   2.759   0.991  0.00  0.00    -0.338 N 
ATOM     25  C   UNL     1       8.394   4.119   1.139  0.00  0.00    +0.104 A 
ATOM     26  C   UNL     1       8.810   4.391   2.391  0.00  0.00    +0.101 A 
ATOM     27  N   UNL     1       9.108   3.228   2.990  0.00  0.00    -0.352 N 
ATOM     28  C   UNL     1       8.887   2.246   2.159  0.00  0.00    +0.173 A 
ATOM     29  H   UNL     1       9.433   3.132   3.899  0.00  0.00    +0.166 HD
ENDBRANCH  23  24
ENDBRANCH  22  23
ENDBRANCH  21  22
ENDBRANCH   4  21
TORSDOF 7
