REMARK  Name = ZINC64430540
REMARK  5 active torsions:
REMARK  status: ('A' for Active; 'I' for Inactive)
REMARK    1  A    between atoms: C_6  and  N_7
REMARK    2  A    between atoms: C_8  and  C_10
REMARK    3  A    between atoms: C_10  and  O_11
REMARK    4  A    between atoms: O_11  and  N_12
REMARK    5  A    between atoms: C_13  and  C_14
REMARK                            x       y       z     vdW  Elec       q    Type
REMARK                         _______ _______ _______ _____ _____    ______ ____
ROOT
ATOM      1  N   UNL     1      -3.527  -5.365  -0.867  0.00  0.00    -0.069 NA
ATOM      2  C   UNL     1      -3.350  -6.565  -0.400  0.00  0.00    +0.163 C 
ATOM      3  N   UNL     1      -4.436  -7.307   0.034  0.00  0.00    -0.340 N 
ATOM      4  H   UNL     1      -5.329  -6.931  -0.011  0.00  0.00    +0.144 HD
ATOM      5  H   UNL     1      -4.304  -8.202   0.383  0.00  0.00    +0.144 HD
ENDROOT
BRANCH   2   6
ATOM      6  C   UNL     1      -1.986  -7.139  -0.332  0.00  0.00    +0.022 A 
ATOM      7  C   UNL     1      -0.860  -6.310  -0.256  0.00  0.00    +0.029 A 
ATOM      8  C   UNL     1       0.393  -6.881  -0.193  0.00  0.00    +0.085 A 
ATOM      9  N   UNL     1       0.543  -8.193  -0.205  0.00  0.00    -0.350 N 
ATOM     10  C   UNL     1      -0.492  -9.015  -0.276  0.00  0.00    +0.099 A 
ATOM     11  C   UNL     1      -1.790  -8.520  -0.336  0.00  0.00    +0.053 A 
ATOM     12  N   UNL     1      -0.279 -10.389  -0.285  0.00  0.00    -0.317 N 
ATOM     13  C   UNL     1       1.066 -10.940  -0.072  0.00  0.00    +0.106 C 
ATOM     14  C   UNL     1       1.007 -11.960   1.069  0.00  0.00    +0.019 C 
ATOM     15  C   UNL     1      -0.059 -13.011   0.753  0.00  0.00    +0.003 C 
ATOM     16  C   UNL     1      -1.427 -12.335   0.639  0.00  0.00    +0.019 C 
ATOM     17  C   UNL     1      -1.397 -11.319  -0.501  0.00  0.00    +0.106 C 
ATOM     18  H   UNL     1       1.438  -8.565  -0.160  0.00  0.00    +0.166 HD
ENDBRANCH   2   6
BRANCH   1  19
ATOM     19  O   UNL     1      -2.442  -4.661  -1.442  0.00  0.00    -0.383 OA
BRANCH  19  20
ATOM     20  C   UNL     1      -2.780  -3.355  -1.914  0.00  0.00    +0.358 C 
BRANCH  20  22
ATOM     21  N   UNL     1      -1.637  -1.457  -3.013  0.00  0.00    -0.283 N 
ATOM     22  C   UNL     1      -1.556  -2.702  -2.503  0.00  0.00    +0.258 C 
ATOM     23  O   UNL     1      -0.499  -3.296  -2.517  0.00  0.00    -0.272 OA
ATOM     24  H   UNL     1      -2.462  -0.953  -2.933  0.00  0.00    +0.155 HD
BRANCH  21  30
ATOM     25  C   UNL     1       0.338  -1.698  -4.383  0.00  0.00    +0.025 A 
ATOM     26  C   UNL     1       1.429  -1.138  -5.019  0.00  0.00    +0.022 A 
ATOM     27  C   UNL     1       1.656   0.225  -4.935  0.00  0.00    +0.041 A 
ATOM     28  C   UNL     1       0.791   1.030  -4.214  0.00  0.00    +0.022 A 
ATOM     29  C   UNL     1      -0.301   0.475  -3.576  0.00  0.00    +0.025 A 
ATOM     30  C   UNL     1      -0.531  -0.892  -3.659  0.00  0.00    +0.034 A 
ATOM     31 CL   UNL     1       3.028   0.925  -5.735  0.00  0.00    -0.084 Cl
ENDBRANCH  21  30
ENDBRANCH  20  22
ENDBRANCH  19  20
ENDBRANCH   1  19
TORSDOF 5
