REMARK  Name = ZINC06650740
REMARK  6 active torsions:
REMARK  status: ('A' for Active; 'I' for Inactive)
REMARK    1  A    between atoms: C_3  and  S_22
REMARK    2  A    between atoms: C_6  and  C_7
REMARK    3  A    between atoms: C_7  and  C_8
REMARK    4  A    between atoms: C_8  and  N_9
REMARK    5  A    between atoms: C_10  and  C_12
REMARK    6  A    between atoms: S_22  and  N_25
REMARK                            x       y       z     vdW  Elec       q    Type
REMARK                         _______ _______ _______ _____ _____    ______ ____
ROOT
ATOM      1  C   UNL     1      -6.159   0.259  -0.113  0.00  0.00    +0.109 C 
ENDROOT
BRANCH   1   2
ATOM      2  N   UNL     1      -4.753   0.669  -0.077  0.00  0.00    -0.311 N 
ATOM      3  C   UNL     1      -3.779  -0.263  -0.080  0.00  0.00    +0.251 C 
ATOM      4  O   UNL     1      -4.068  -1.445  -0.113  0.00  0.00    -0.270 OA
ATOM      5  H   UNL     1      -4.522   1.611  -0.051  0.00  0.00    +0.149 HD
BRANCH   3   6
ATOM      6  C   UNL     1      -2.372   0.146  -0.045  0.00  0.00    +0.074 A 
ATOM      7  C   UNL     1      -1.234  -0.640  -0.041  0.00  0.00    +0.024 A 
ATOM      8  C   UNL     1       0.002  -0.004   0.002  0.00  0.00    -0.036 A 
ATOM      9  C   UNL     1      -0.016   1.348   0.009  0.00  0.00    -0.006 A 
ATOM     10  S   UNL     1      -1.678   1.791   0.005  0.00  0.00    -0.088 S 
ATOM     11  C   UNL     1       1.189   2.263   0.003  0.00  0.00    +0.043 C 
ATOM     12  C   UNL     1       1.901   2.086   1.355  0.00  0.00    +0.005 C 
ATOM     13  C   UNL     1       2.734   0.827   1.351  0.00  0.00    +0.001 C 
ATOM     14  C   UNL     1       1.980  -0.478   1.400  0.00  0.00    +0.005 C 
ATOM     15  C   UNL     1       1.309  -0.801   0.064  0.00  0.00    +0.036 C 
ENDBRANCH   3   6
ENDBRANCH   1   2
BRANCH   1  16
ATOM     16  C   UNL     1      -7.052   1.502  -0.101  0.00  0.00    +0.054 C 
BRANCH  16  22
ATOM     17  C   UNL     1      -9.141   0.920  -1.351  0.00  0.00    +0.005 A 
ATOM     18  C   UNL     1     -10.467   0.530  -1.385  0.00  0.00    +0.029 A 
ATOM     19  C   UNL     1     -11.152   0.308  -0.205  0.00  0.00    +0.105 A 
ATOM     20  C   UNL     1     -10.511   0.474   1.008  0.00  0.00    +0.029 A 
ATOM     21  C   UNL     1      -9.184   0.860   1.042  0.00  0.00    +0.005 A 
ATOM     22  C   UNL     1      -8.498   1.081  -0.138  0.00  0.00    -0.046 A 
BRANCH  19  23
ATOM     23  S   UNL     1     -12.843  -0.185  -0.248  0.00  0.00    +0.056 S 
ATOM     24  O   UNL     1     -13.056  -0.798  -1.512  0.00  0.00    -0.153 OA
ATOM     25  O   UNL     1     -13.101  -0.857   0.977  0.00  0.00    -0.153 OA
BRANCH  23  26
ATOM     26  N   UNL     1     -13.757   1.196  -0.232  0.00  0.00    -0.204 NA
ATOM     27  H   UNL     1     -14.623   1.209  -0.668  0.00  0.00    +0.144 HD
ATOM     28  H   UNL     1     -13.426   1.992   0.213  0.00  0.00    +0.144 HD
ENDBRANCH  23  26
ENDBRANCH  19  23
ENDBRANCH  16  22
ENDBRANCH   1  16
TORSDOF 6
