REMARK  Name = ZINC62700908
REMARK  7 active torsions:
REMARK  status: ('A' for Active; 'I' for Inactive)
REMARK    1  A    between atoms: C_1  and  C_2
REMARK    2  A    between atoms: C_2  and  C_4
REMARK    3  A    between atoms: C_2  and  O_10
REMARK    4  A    between atoms: O_10  and  C_11
REMARK    5  A    between atoms: C_14  and  C_18
REMARK    6  A    between atoms: C_18  and  N_19
REMARK    7  A    between atoms: N_19  and  C_20
REMARK                            x       y       z     vdW  Elec       q    Type
REMARK                         _______ _______ _______ _____ _____    ______ ____
ROOT
ATOM      1  O   UNL     1       0.671  -0.465  -1.174  0.00  0.00    -0.479 OA
ENDROOT
BRANCH   1   2
ATOM      2  C   UNL     1       2.026  -0.553  -1.118  0.00  0.00    +0.136 A 
ATOM      3  C   UNL     1       2.689  -0.308   0.076  0.00  0.00    +0.047 A 
ATOM      4  C   UNL     1       4.067  -0.399   0.130  0.00  0.00    +0.005 A 
ATOM      5  C   UNL     1       4.785  -0.732  -1.004  0.00  0.00    -0.063 A 
ATOM      6  C   UNL     1       4.127  -0.976  -2.195  0.00  0.00    +0.020 A 
ATOM      7  C   UNL     1       2.748  -0.893  -2.253  0.00  0.00    +0.060 A 
ATOM      8 BR   UNL     1       1.848  -1.235  -3.880  0.00  0.00    -0.047 Br
BRANCH   5   9
ATOM      9  C   UNL     1       6.287  -0.829  -0.941  0.00  0.00    -0.047 C 
BRANCH   9  10
ATOM     10  N   UNL     1       6.676  -2.201  -0.590  0.00  0.00    +0.380 N 
ATOM     11  C   UNL     1       8.140  -2.296  -0.529  0.00  0.00    -0.100 C 
ATOM     12  H   UNL     1       6.285  -2.442   0.309  0.00  0.00    -0.086 HD
ATOM     13  H   UNL     1       6.326  -2.839  -1.289  0.00  0.00    -0.086 HD
ENDBRANCH   9  10
ENDBRANCH   5   9
ENDBRANCH   1   2
BRANCH   1  15
ATOM     14  C   UNL     1      -0.050   1.266   0.352  0.00  0.00    +0.062 C 
ATOM     15  C   UNL     1      -0.016  -0.236   0.058  0.00  0.00    +0.256 C 
BRANCH  15  16
ATOM     16  C   UNL     1      -1.425  -0.759  -0.047  0.00  0.00    +0.261 C 
ATOM     17  O   UNL     1      -1.833  -1.195  -1.103  0.00  0.00    -0.271 OA
ATOM     18  N   UNL     1      -2.232  -0.743   1.032  0.00  0.00    -0.237 N 
ATOM     19  C   UNL     1      -3.493  -1.212   0.938  0.00  0.00    +0.303 C 
ATOM     20  O   UNL     1      -3.901  -1.648  -0.120  0.00  0.00    -0.253 OA
ATOM     21  N   UNL     1      -4.300  -1.196   2.017  0.00  0.00    -0.313 N 
ATOM     22  H   UNL     1      -1.906  -0.395   1.877  0.00  0.00    +0.159 HD
ATOM     23  H   UNL     1      -3.974  -0.847   2.861  0.00  0.00    +0.146 HD
ATOM     24  H   UNL     1      -5.207  -1.533   1.949  0.00  0.00    +0.146 HD
ENDBRANCH  15  16
ENDBRANCH   1  15
TORSDOF 5
