REMARK  Name = ZINC52831050
REMARK  10 active torsions:
REMARK  status: ('A' for Active; 'I' for Inactive)
REMARK    1  A    between atoms: C_1  and  C_2
REMARK    2  A    between atoms: C_5  and  N_21
REMARK    3  A    between atoms: C_6  and  N_9
REMARK    4  A    between atoms: C_7  and  C_8
REMARK    5  A    between atoms: C_10  and  C_12
REMARK    6  A    between atoms: C_12  and  C_14
REMARK    7  A    between atoms: C_12  and  N_15
REMARK    8  A    between atoms: N_15  and  C_16
REMARK    9  A    between atoms: N_15  and  C_17
REMARK   10  A    between atoms: C_17  and  C_18
REMARK                            x       y       z     vdW  Elec       q    Type
REMARK                         _______ _______ _______ _____ _____    ______ ____
ROOT
ATOM      1  N   UNL     1       0.163  -2.595   2.581  0.00  0.00    -0.285 N 
ATOM      2  C   UNL     1       0.041  -3.936   2.616  0.00  0.00    +0.203 C 
ATOM      3  O   UNL     1       0.046  -4.573   1.584  0.00  0.00    -0.277 OA
ATOM      4  H   UNL     1       0.079  -2.078   3.397  0.00  0.00    +0.155 HD
ENDROOT
BRANCH   1  10
ATOM      5  C   UNL     1      -1.088  -1.762  -2.101  0.00  0.00    +0.044 C 
ATOM      6  C   UNL     1      -0.182  -1.524  -0.920  0.00  0.00    -0.046 A 
ATOM      7  C   UNL     1       0.895  -0.665  -1.038  0.00  0.00    +0.006 A 
ATOM      8  C   UNL     1       1.730  -0.445   0.042  0.00  0.00    +0.035 A 
ATOM      9  C   UNL     1       1.489  -1.083   1.243  0.00  0.00    +0.148 A 
ATOM     10  C   UNL     1       0.409  -1.946   1.365  0.00  0.00    +0.067 A 
ATOM     11  C   UNL     1      -0.430  -2.161   0.279  0.00  0.00    -0.024 A 
ATOM     12  C   UNL     1      -1.608  -3.093   0.409  0.00  0.00    +0.046 C 
BRANCH   9  13
ATOM     13  N   UNL     1       2.383  -0.848   2.399  0.00  0.00    +0.058 N 
ATOM     14  O   UNL     1       3.376  -0.170   2.268  0.00  0.00    -0.126 OA
ATOM     15  O   UNL     1       2.121  -1.333   3.475  0.00  0.00    -0.126 OA
ENDBRANCH   9  13
ENDBRANCH   1  10
BRANCH   2  16
ATOM     16  C   UNL     1      -0.100  -4.645   3.938  0.00  0.00    +0.017 C 
ATOM     17  C   UNL     1      -1.578  -4.702   4.331  0.00  0.00    -0.004 C 
BRANCH  16  18
ATOM     18  N   UNL     1       0.428  -6.011   3.821  0.00  0.00    +0.391 N 
ATOM     19  C   UNL     1       0.217  -6.728   5.085  0.00  0.00    -0.094 C 
ATOM     20  H   UNL     1      -0.051  -6.494   3.076  0.00  0.00    -0.080 HD
BRANCH  18  21
ATOM     21  C   UNL     1       1.866  -5.956   3.523  0.00  0.00    +0.019 C 
BRANCH  21  22
ATOM     22  C   UNL     1       2.373  -7.346   3.237  0.00  0.00    +0.194 C 
ATOM     23  O   UNL     1       1.612  -8.289   3.276  0.00  0.00    -0.278 OA
ATOM     24  N   UNL     1       3.672  -7.540   2.937  0.00  0.00    -0.331 N 
ATOM     25  H   UNL     1       4.281  -6.786   2.905  0.00  0.00    +0.145 HD
ATOM     26  H   UNL     1       3.999  -8.435   2.752  0.00  0.00    +0.145 HD
ENDBRANCH  21  22
ENDBRANCH  18  21
ENDBRANCH  16  18
ENDBRANCH   2  16
TORSDOF 6
