REMARK  Name = ZINC58633985
REMARK  4 active torsions:
REMARK  status: ('A' for Active; 'I' for Inactive)
REMARK    1  A    between atoms: C_5  and  C_7
REMARK    2  A    between atoms: C_7  and  N_8
REMARK    3  A    between atoms: N_8  and  C_9
REMARK    4  A    between atoms: C_14  and  N_15
REMARK                            x       y       z     vdW  Elec       q    Type
REMARK                         _______ _______ _______ _____ _____    ______ ____
ROOT
ATOM      1  C   UNL     1       1.554  -4.053   1.576  0.00  0.00    +0.049 A 
ATOM      2  C   UNL     1       1.378  -4.952   0.533  0.00  0.00    +0.048 A 
ATOM      3  C   UNL     1       1.444  -6.315   0.779  0.00  0.00    +0.038 A 
ATOM      4  C   UNL     1       1.685  -6.777   2.067  0.00  0.00    -0.024 A 
ATOM      5  C   UNL     1       1.859  -5.880   3.103  0.00  0.00    +0.028 A 
ATOM      6  C   UNL     1       1.800  -4.521   2.861  0.00  0.00    +0.030 A 
ATOM      7  C   UNL     1       1.757  -8.259   2.330  0.00  0.00    +0.046 C 
ATOM      8  C   UNL     1       0.783  -8.990   1.406  0.00  0.00    +0.101 C 
ATOM      9  C   UNL     1       0.962  -8.511  -0.009  0.00  0.00    +0.218 C 
ATOM     10  O   UNL     1       0.827  -9.291  -0.928  0.00  0.00    -0.275 OA
ATOM     11  N   UNL     1       1.268  -7.226  -0.268  0.00  0.00    -0.285 N 
ATOM     12  H   UNL     1       1.369  -6.930  -1.186  0.00  0.00    +0.155 HD
ENDROOT
BRANCH   6  13
ATOM     13  N   UNL     1       1.983  -3.616   3.910  0.00  0.00    -0.415 NA
ATOM     14  H   UNL     1       1.091  -3.412   4.337  0.00  0.00    +0.121 HD
ATOM     15  H   UNL     1       2.600  -4.019   4.599  0.00  0.00    +0.121 HD
ATOM     16  H   UNL     1       2.388  -2.764   3.553  0.00  0.00    +0.121 HD
ENDBRANCH   6  13
BRANCH   1  17
ATOM     17  N   UNL     1       1.488  -2.679   1.333  0.00  0.00    -0.338 N 
ATOM     18  H   UNL     1       1.615  -2.051   2.062  0.00  0.00    +0.146 HD
BRANCH  17  19
ATOM     19  C   UNL     1       1.229  -2.186  -0.022  0.00  0.00    +0.138 C 
BRANCH  19  24
ATOM     20  C   UNL     1      -0.017   1.378   0.010  0.00  0.00    +0.000 A 
ATOM     21  C   UNL     1       1.171   2.086   0.002  0.00  0.00    +0.001 A 
ATOM     22  C   UNL     1       2.377   1.412  -0.013  0.00  0.00    +0.015 A 
ATOM     23  C   UNL     1       2.397   0.029  -0.021  0.00  0.00    +0.023 A 
ATOM     24  C   UNL     1       1.208  -0.679  -0.013  0.00  0.00    -0.016 A 
ATOM     25  C   UNL     1       0.002  -0.004   0.002  0.00  0.00    +0.006 A 
ATOM     26 BR   UNL     1       4.047  -0.894  -0.042  0.00  0.00    -0.050 Br
ENDBRANCH  19  24
ENDBRANCH  17  19
ENDBRANCH   1  17
TORSDOF 4
