REMARK  Name = ZINC48910491
REMARK  4 active torsions:
REMARK  status: ('A' for Active; 'I' for Inactive)
REMARK    1  A    between atoms: C_1  and  N_2
REMARK    2  A    between atoms: N_2  and  C_3
REMARK    3  A    between atoms: C_3  and  C_4
REMARK    4  A    between atoms: C_12  and  C_14
REMARK                            x       y       z     vdW  Elec       q    Type
REMARK                         _______ _______ _______ _____ _____    ______ ____
ROOT
ATOM      1  C   UNL     1       0.170  -0.744   1.257  0.00  0.00    +0.203 C 
ENDROOT
BRANCH   1   2
ATOM      2  C   UNL     1      -1.189  -1.024   1.845  0.00  0.00    +0.236 C 
ATOM      3  O   UNL     1      -2.188  -0.644   1.272  0.00  0.00    -0.274 OA
ATOM      4  N   UNL     1      -1.295  -1.697   3.008  0.00  0.00    -0.263 N 
ATOM      5  C   UNL     1      -2.548  -1.955   3.550  0.00  0.00    +0.164 A 
ATOM      6  N   UNL     1      -3.729  -1.629   3.072  0.00  0.00    -0.233 NA
ATOM      7  C   UNL     1      -4.838  -1.950   3.712  0.00  0.00    +0.120 A 
ATOM      8  C   UNL     1      -4.701  -2.628   4.879  0.00  0.00    +0.068 A 
ATOM      9  S   UNL     1      -2.924  -2.768   4.976  0.00  0.00    -0.061 S 
ATOM     10  H   UNL     1      -0.496  -2.000   3.467  0.00  0.00    +0.157 HD
ENDBRANCH   1   2
BRANCH   1  12
ATOM     11  C   UNL     1      -0.012   1.460   0.011  0.00  0.00    +0.133 C 
ATOM     12  N   UNL     1       0.015  -0.005   0.001  0.00  0.00    -0.292 N 
ATOM     13  C   UNL     1      -0.102  -0.673  -1.163  0.00  0.00    +0.247 C 
ATOM     14  O   UNL     1      -0.189  -1.886  -1.163  0.00  0.00    -0.270 OA
BRANCH  13  15
ATOM     15  C   UNL     1      -0.124   0.066  -2.436  0.00  0.00    +0.044 A 
ATOM     16  C   UNL     1      -0.924  -0.378  -3.553  0.00  0.00    +0.020 A 
ATOM     17  C   UNL     1      -0.857   0.387  -4.661  0.00  0.00    +0.046 A 
ATOM     18  S   UNL     1       0.271   1.681  -4.191  0.00  0.00    -0.104 S 
ATOM     19  C   UNL     1       0.613   1.215  -2.616  0.00  0.00    +0.058 A 
ENDBRANCH  13  15
ENDBRANCH   1  12
TORSDOF 3
