REMARK  Name = ZINC51545695
REMARK  7 active torsions:
REMARK  status: ('A' for Active; 'I' for Inactive)
REMARK    1  A    between atoms: C_1  and  C_2
REMARK    2  A    between atoms: C_6  and  C_19
REMARK    3  A    between atoms: C_7  and  O_8
REMARK    4  A    between atoms: O_8  and  C_9
REMARK    5  A    between atoms: C_12  and  C_15
REMARK    6  A    between atoms: C_15  and  N_16
REMARK    7  A    between atoms: N_16  and  C_17
REMARK                            x       y       z     vdW  Elec       q    Type
REMARK                         _______ _______ _______ _____ _____    ______ ____
ROOT
ATOM      1  C   UNL     1      -1.173   0.265   2.946  0.00  0.00    +0.239 A 
ATOM      2  C   UNL     1      -1.212   0.957   4.152  0.00  0.00    +0.103 A 
ATOM      3  C   UNL     1      -2.441   1.254   4.717  0.00  0.00    +0.028 A 
ATOM      4  C   UNL     1      -3.591   0.848   4.053  0.00  0.00    -0.045 A 
ATOM      5  C   UNL     1      -3.476   0.165   2.859  0.00  0.00    +0.116 A 
ATOM      6  N   UNL     1      -2.291  -0.100   2.342  0.00  0.00    -0.220 NA
ATOM      7 CL   UNL     1       0.258   1.440   4.938  0.00  0.00    -0.078 Cl
ENDROOT
BRANCH   1   8
ATOM      8  O   UNL     1       0.025  -0.033   2.381  0.00  0.00    -0.436 OA
BRANCH   8  15
ATOM      9  C   UNL     1      -0.018   1.503   0.010  0.00  0.00    +0.047 C 
ATOM     10  C   UNL     1       0.002  -0.004   0.002  0.00  0.00    -0.006 A 
ATOM     11  C   UNL     1       0.006  -0.689  -1.198  0.00  0.00    +0.027 A 
ATOM     12  C   UNL     1       0.025  -2.072  -1.206  0.00  0.00    +0.042 A 
ATOM     13  C   UNL     1       0.041  -2.773  -0.013  0.00  0.00    +0.027 A 
ATOM     14  C   UNL     1       0.036  -2.092   1.189  0.00  0.00    -0.006 A 
ATOM     15  C   UNL     1       0.023  -0.705   1.199  0.00  0.00    +0.136 A 
ATOM     16  C   UNL     1       0.053  -2.856   2.488  0.00  0.00    +0.047 C 
ATOM     17 CL   UNL     1       0.029  -2.930  -2.715  0.00  0.00    -0.084 Cl
ENDBRANCH   8  15
ENDBRANCH   1   8
BRANCH   4  18
ATOM     18  C   UNL     1      -4.949   1.150   4.631  0.00  0.00    -0.046 C 
BRANCH  18  19
ATOM     19  N   UNL     1      -5.418   2.449   4.129  0.00  0.00    +0.380 N 
ATOM     20  C   UNL     1      -6.742   2.742   4.692  0.00  0.00    -0.100 C 
ATOM     21  H   UNL     1      -4.768   3.170   4.405  0.00  0.00    -0.086 HD
ATOM     22  H   UNL     1      -5.479   2.418   3.123  0.00  0.00    -0.086 HD
ENDBRANCH  18  19
ENDBRANCH   4  18
TORSDOF 4
