REMARK  Name = ZINC22055732
REMARK  10 active torsions:
REMARK  status: ('A' for Active; 'I' for Inactive)
REMARK    1  A    between atoms: C_1  and  C_2
REMARK    2  A    between atoms: C_2  and  C_3
REMARK    3  A    between atoms: C_3  and  C_5
REMARK    4  A    between atoms: C_3  and  C_6
REMARK    5  A    between atoms: C_6  and  O_7
REMARK    6  A    between atoms: O_7  and  C_8
REMARK    7  A    between atoms: N_14  and  C_18
REMARK    8  A    between atoms: C_20  and  O_29
REMARK    9  A    between atoms: C_22  and  O_28
REMARK   10  A    between atoms: C_24  and  C_27
REMARK                            x       y       z     vdW  Elec       q    Type
REMARK                         _______ _______ _______ _____ _____    ______ ____
ROOT
ATOM      1  C   UNL     1      -0.016   1.342   0.009  0.00  0.00    +0.406 C 
ATOM      2  O   UNL     1       1.028   1.964   0.003  0.00  0.00    -0.226 OA
ATOM      3  N   UNL     1      -1.192   2.000   0.019  0.00  0.00    -0.233 N 
ATOM      4  C   UNL     1      -1.211   3.382   0.026  0.00  0.00    +0.170 A 
ATOM      5  C   UNL     1      -2.439   4.074   0.036  0.00  0.00    +0.180 A 
ATOM      6  C   UNL     1      -2.429   5.430   0.043  0.00  0.00    +0.135 A 
ATOM      7  N   UNL     1      -1.234   6.087   0.041  0.00  0.00    -0.267 N 
ATOM      8  C   UNL     1      -0.079   5.396   0.032  0.00  0.00    +0.352 A 
ATOM      9  O   UNL     1       0.981   6.000   0.031  0.00  0.00    -0.244 OA
ATOM     10  N   UNL     1      -0.075   4.064   0.030  0.00  0.00    -0.175 NA
ATOM     11  F   UNL     1      -3.609   3.397   0.037  0.00  0.00    -0.200 F 
ATOM     12  H   UNL     1      -2.138   1.437   0.020  0.00  0.00    +0.160 HD
ENDROOT
BRANCH   7  13
ATOM     13  C   UNL     1      -1.207   7.552   0.049  0.00  0.00    +0.255 C 
ATOM     14  C   UNL     1      -0.507   8.070   1.325  0.00  0.00    +0.195 C 
ATOM     15  C   UNL     1       0.282   9.308   0.844  0.00  0.00    +0.176 C 
ATOM     16  C   UNL     1      -0.034   9.392  -0.666  0.00  0.00    +0.149 C 
ATOM     17  O   UNL     1      -0.398   8.046  -1.042  0.00  0.00    -0.348 OA
ATOM     18  C   UNL     1       1.202   9.846  -1.444  0.00  0.00    +0.041 C 
BRANCH  15  19
ATOM     19  O   UNL     1       1.683   9.121   1.053  0.00  0.00    -0.387 OA
ATOM     20  H   UNL     1       2.393   9.911   0.764  0.00  0.00    +0.210 HD
ENDBRANCH  15  19
BRANCH  14  21
ATOM     21  O   UNL     1      -1.474   8.443   2.309  0.00  0.00    -0.385 OA
ATOM     22  H   UNL     1      -1.144   8.835   3.283  0.00  0.00    +0.210 HD
ENDBRANCH  14  21
ENDBRANCH   7  13
BRANCH   1  23
ATOM     23  O   UNL     1       0.002  -0.004   0.002  0.00  0.00    -0.450 OA
BRANCH  23  24
ATOM     24  C   UNL     1       1.305  -0.646  -0.014  0.00  0.00    +0.237 C 
BRANCH  24  25
ATOM     25  C   UNL     1       1.125  -2.165  -0.020  0.00  0.00    +0.023 C 
ATOM     26  C   UNL     1       0.472  -2.607   1.291  0.00  0.00    +0.011 C 
BRANCH  25  28
ATOM     27  C   UNL     1       2.301  -4.352  -0.294  0.00  0.00    +0.004 C 
ATOM     28  C   UNL     1       2.490  -2.840  -0.163  0.00  0.00    +0.003 C 
ENDBRANCH  25  28
ENDBRANCH  24  25
ENDBRANCH  23  24
ENDBRANCH   1  23
TORSDOF 7
