REMARK  Name = ZINC16921336
REMARK  6 active torsions:
REMARK  status: ('A' for Active; 'I' for Inactive)
REMARK    1  A    between atoms: C_1  and  C_2
REMARK    2  A    between atoms: C_2  and  C_3
REMARK    3  A    between atoms: C_4  and  C_5
REMARK    4  A    between atoms: C_5  and  C_14
REMARK    5  A    between atoms: C_14  and  C_15
REMARK    6  A    between atoms: C_14  and  C_16
REMARK                            x       y       z     vdW  Elec       q    Type
REMARK                         _______ _______ _______ _____ _____    ______ ____
ROOT
ATOM      1  C   UNL     1      -0.298   4.448   0.446  0.00  0.00    +0.144 C 
ATOM      2  C   UNL     1       0.848   3.522   0.086  0.00  0.00    +0.240 C 
ATOM      3  O   UNL     1       1.947   3.956  -0.184  0.00  0.00    -0.274 OA
ATOM      4  N   UNL     1       0.598   2.195   0.078  0.00  0.00    -0.239 N 
ATOM      5  C   UNL     1      -0.609   1.699   0.374  0.00  0.00    +0.312 C 
ATOM      6  O   UNL     1      -0.745   0.492   0.342  0.00  0.00    -0.252 OA
ATOM      7  N   UNL     1      -1.678   2.436   0.697  0.00  0.00    -0.239 N 
ATOM      8  C   UNL     1      -1.624   3.783   0.764  0.00  0.00    +0.240 C 
ATOM      9  O   UNL     1      -2.600   4.437   1.062  0.00  0.00    -0.274 OA
ATOM     10  H   UNL     1       1.316   1.583  -0.149  0.00  0.00    +0.159 HD
ATOM     11  H   UNL     1      -2.516   1.988   0.892  0.00  0.00    +0.159 HD
ENDROOT
BRANCH   1  12
ATOM     12  C   UNL     1      -0.521   5.407  -0.726  0.00  0.00    +0.011 C 
ATOM     13  C   UNL     1       0.698   6.320  -0.876  0.00  0.00    +0.009 C 
ATOM     14  C   UNL     1      -0.718   4.604  -2.013  0.00  0.00    +0.009 C 
ENDBRANCH   1  12
BRANCH   1  16
ATOM     15  C   UNL     1       0.247   4.689   2.813  0.00  0.00    -0.030 C 
ATOM     16  C   UNL     1       0.116   5.264   1.643  0.00  0.00    -0.006 C 
BRANCH  15  18
ATOM     17  C   UNL     1       1.366   2.629   3.619  0.00  0.00    +0.008 C 
ATOM     18  C   UNL     1       0.119   3.193   2.937  0.00  0.00    +0.023 C 
ENDBRANCH  15  18
ENDBRANCH   1  16
TORSDOF 3
