REMARK  Name = ZINC52694352
REMARK  6 active torsions:
REMARK  status: ('A' for Active; 'I' for Inactive)
REMARK    1  A    between atoms: C_1  and  C_2
REMARK    2  A    between atoms: C_3  and  C_9
REMARK    3  A    between atoms: C_5  and  C_7
REMARK    4  A    between atoms: C_7  and  N_8
REMARK    5  A    between atoms: C_9  and  O_10
REMARK    6  A    between atoms: O_10  and  C_11
REMARK                            x       y       z     vdW  Elec       q    Type
REMARK                         _______ _______ _______ _____ _____    ______ ____
ROOT
ATOM      1  C   UNL     1      -0.018   1.503   0.010  0.00  0.00    +0.086 C 
ATOM      2  C   UNL     1       0.002  -0.004   0.002  0.00  0.00    +0.108 A 
ATOM      3  C   UNL     1      -1.078  -0.805   0.003  0.00  0.00    +0.030 A 
ATOM      4  C   UNL     1      -0.601  -2.136  -0.007  0.00  0.00    +0.050 A 
ATOM      5  C   UNL     1       0.742  -2.069  -0.013  0.00  0.00    +0.088 A 
ATOM      6  O   UNL     1       1.102  -0.775  -0.013  0.00  0.00    -0.466 OA
ENDROOT
BRANCH   5   7
ATOM      7  C   UNL     1       1.684  -3.245  -0.023  0.00  0.00    -0.011 C 
BRANCH   7   8
ATOM      8  N   UNL     1       1.984  -3.621  -1.411  0.00  0.00    +0.383 N 
ATOM      9  H   UNL     1       1.128  -3.871  -1.884  0.00  0.00    -0.089 HD
ATOM     10  H   UNL     1       2.414  -2.841  -1.885  0.00  0.00    -0.089 HD
ATOM     11  H   UNL     1       2.614  -4.408  -1.417  0.00  0.00    -0.089 HD
ENDBRANCH   7   8
ENDBRANCH   5   7
BRANCH   3  12
ATOM     12  C   UNL     1      -2.521  -0.369   0.012  0.00  0.00    +0.268 C 
BRANCH  12  13
ATOM     13  O   UNL     1      -3.367  -1.520   0.010  0.00  0.00    -0.486 OA
BRANCH  13  14
ATOM     14  C   UNL     1      -4.708  -1.300   0.018  0.00  0.00    +0.139 A 
ATOM     15  C   UNL     1      -5.199  -0.002   0.022  0.00  0.00    +0.048 A 
ATOM     16  C   UNL     1      -6.563   0.220   0.030  0.00  0.00    +0.019 A 
ATOM     17  C   UNL     1      -7.439  -0.851   0.033  0.00  0.00    +0.019 A 
ATOM     18  C   UNL     1      -6.953  -2.146   0.029  0.00  0.00    +0.039 A 
ATOM     19  C   UNL     1      -5.589  -2.373   0.016  0.00  0.00    +0.084 A 
ATOM     20 CL   UNL     1      -4.979  -3.998   0.004  0.00  0.00    -0.080 Cl
ATOM     21 BR   UNL     1      -9.305  -0.544   0.044  0.00  0.00    -0.050 Br
ENDBRANCH  13  14
ENDBRANCH  12  13
ENDBRANCH   3  12
TORSDOF 5
