REMARK  Name = ZINC21038132
REMARK  8 active torsions:
REMARK  status: ('A' for Active; 'I' for Inactive)
REMARK    1  A    between atoms: C_4  and  N_28
REMARK    2  A    between atoms: C_5  and  N_7
REMARK    3  A    between atoms: C_8  and  C_10
REMARK    4  A    between atoms: C_10  and  C_11
REMARK    5  A    between atoms: C_11  and  S_12
REMARK    6  A    between atoms: S_12  and  C_13
REMARK    7  A    between atoms: N_18  and  N_19
REMARK    8  A    between atoms: C_20  and  C_21
REMARK                            x       y       z     vdW  Elec       q    Type
REMARK                         _______ _______ _______ _____ _____    ______ ____
ROOT
ATOM      1  C   UNL     1       4.252   9.465   0.073  0.00  0.00    +0.210 A 
ATOM      2  N   UNL     1       4.701   8.175   0.079  0.00  0.00    -0.186 NA
ATOM      3  C   UNL     1       3.612   7.348   0.077  0.00  0.00    +0.232 A 
ATOM      4  N   UNL     1       2.536   8.096   0.065  0.00  0.00    -0.245 N 
ATOM      5  N   UNL     1       2.941   9.438   0.068  0.00  0.00    -0.144 NA
ATOM      6  N   UNL     1       3.642   5.961   0.081  0.00  0.00    -0.205 N 
ATOM      7  H   UNL     1       4.606   5.432   0.086  0.00  0.00    +0.177 HD
ATOM      8  H   UNL     1       1.541   7.628   0.055  0.00  0.00    +0.192 HD
ENDROOT
BRANCH   6   9
ATOM      9  N   UNL     1       2.443   5.235   0.077  0.00  0.00    -0.188 NA
ATOM     10  C   UNL     1       2.471   3.937   0.081  0.00  0.00    +0.138 C 
BRANCH  10  11
ATOM     11  C   UNL     1       1.210   3.173   0.078  0.00  0.00    -0.004 A 
ATOM     12  C   UNL     1       1.236   1.776   0.081  0.00  0.00    +0.009 A 
ATOM     13  C   UNL     1       0.053   1.067   0.078  0.00  0.00    +0.002 A 
ATOM     14  C   UNL     1      -1.159   1.736   0.065  0.00  0.00    +0.015 A 
ATOM     15  C   UNL     1      -1.192   3.120   0.067  0.00  0.00    +0.018 A 
ATOM     16  C   UNL     1      -0.016   3.842   0.071  0.00  0.00    +0.024 A 
ATOM     17 BR   UNL     1      -2.854   4.024   0.057  0.00  0.00    -0.050 Br
ENDBRANCH  10  11
ENDBRANCH   6   9
BRANCH   1  18
ATOM     18  S   UNL     1       5.258  10.912   0.073  0.00  0.00    -0.084 S 
BRANCH  18  19
ATOM     19  C   UNL     1       4.063  12.277   0.064  0.00  0.00    +0.086 C 
BRANCH  19  20
ATOM     20  C   UNL     1       4.812  13.611   0.063  0.00  0.00    +0.107 C 
BRANCH  20  22
ATOM     21  N   UNL     1       4.254  16.020   0.053  0.00  0.00    -0.284 N 
ATOM     22  C   UNL     1       3.819  14.745   0.056  0.00  0.00    +0.218 C 
ATOM     23  O   UNL     1       2.630  14.509   0.052  0.00  0.00    -0.275 OA
ATOM     24  H   UNL     1       5.330  16.235   0.131  0.00  0.00    +0.155 HD
BRANCH  21  29
ATOM     25  C   UNL     1       1.187  18.009   0.460  0.00  0.00    +0.002 A 
ATOM     26  C   UNL     1       1.521  19.151  -0.245  0.00  0.00    +0.002 A 
ATOM     27  C   UNL     1       2.759  19.256  -0.851  0.00  0.00    +0.034 A 
ATOM     28  C   UNL     1       3.667  18.220  -0.754  0.00  0.00    +0.147 A 
ATOM     29  C   UNL     1       3.336  17.072  -0.047  0.00  0.00    +0.064 A 
ATOM     30  C   UNL     1       2.089  16.967   0.556  0.00  0.00    +0.025 A 
BRANCH  28  31
ATOM     31  N   UNL     1       4.992  18.333  -1.404  0.00  0.00    +0.058 N 
ATOM     32  O   UNL     1       5.321  19.377  -1.939  0.00  0.00    -0.126 OA
ATOM     33  O   UNL     1       5.754  17.382  -1.403  0.00  0.00    -0.126 OA
ENDBRANCH  28  31
ENDBRANCH  21  29
ENDBRANCH  20  22
ENDBRANCH  19  20
ENDBRANCH  18  19
ENDBRANCH   1  18
TORSDOF 8
