REMARK  Name = ZINC62330892
REMARK  7 active torsions:
REMARK  status: ('A' for Active; 'I' for Inactive)
REMARK    1  A    between atoms: C_1  and  N_2
REMARK    2  A    between atoms: C_6  and  C_7
REMARK    3  A    between atoms: C_7  and  N_8
REMARK    4  A    between atoms: N_8  and  C_9
REMARK    5  A    between atoms: C_10  and  C_12
REMARK    6  A    between atoms: C_17  and  N_18
REMARK    7  A    between atoms: N_18  and  N_19
REMARK                            x       y       z     vdW  Elec       q    Type
REMARK                         _______ _______ _______ _____ _____    ______ ____
ROOT
ATOM      1  N   UNL     1       0.909  -0.454   3.697  0.00  0.00    -0.293 N 
ATOM      2  C   UNL     1       1.095   0.994   3.824  0.00  0.00    +0.133 C 
ATOM      3  C   UNL     1       1.921  -1.293   3.996  0.00  0.00    +0.250 C 
ATOM      4  O   UNL     1       1.799  -2.487   3.800  0.00  0.00    -0.270 OA
ENDROOT
BRANCH   3   5
ATOM      5  C   UNL     1       3.175  -0.763   4.560  0.00  0.00    +0.079 A 
ATOM      6  C   UNL     1       3.149   0.189   5.587  0.00  0.00    +0.033 A 
ATOM      7  C   UNL     1       4.354   0.654   6.083  0.00  0.00    +0.037 A 
ATOM      8  C   UNL     1       5.540   0.172   5.556  0.00  0.00    +0.128 A 
ATOM      9  N   UNL     1       5.543  -0.724   4.588  0.00  0.00    -0.237 NA
ATOM     10  C   UNL     1       4.419  -1.207   4.081  0.00  0.00    +0.144 A 
ATOM     11 BR   UNL     1       4.381   1.940   7.469  0.00  0.00    -0.049 Br
BRANCH  10  12
ATOM     12  N   UNL     1       4.470  -2.150   3.071  0.00  0.00    -0.267 N 
ATOM     13  H   UNL     1       3.651  -2.451   2.646  0.00  0.00    +0.167 HD
BRANCH  12  14
ATOM     14  N   UNL     1       5.673  -2.659   2.671  0.00  0.00    -0.255 NA
ATOM     15  H   UNL     1       6.171  -3.063   3.450  0.00  0.00    +0.140 HD
ATOM     16  H   UNL     1       5.552  -3.333   1.930  0.00  0.00    +0.140 HD
ENDBRANCH  12  14
ENDBRANCH  10  12
ENDBRANCH   3   5
BRANCH   1  17
ATOM     17  C   UNL     1      -0.377  -0.990   3.244  0.00  0.00    +0.180 C 
BRANCH  17  23
ATOM     18  C   UNL     1      -1.058   1.245   1.209  0.00  0.00    +0.150 C 
ATOM     19  N   UNL     1      -0.670  -0.126   0.870  0.00  0.00    -0.338 N 
ATOM     20  C   UNL     1      -0.539  -0.645  -0.390  0.00  0.00    +0.104 A 
ATOM     21  C   UNL     1      -0.168  -1.932  -0.244  0.00  0.00    +0.101 A 
ATOM     22  N   UNL     1      -0.075  -2.191   1.069  0.00  0.00    -0.348 N 
ATOM     23  C   UNL     1      -0.370  -1.113   1.742  0.00  0.00    +0.104 A 
ATOM     24  H   UNL     1       0.175  -3.044   1.456  0.00  0.00    +0.166 HD
ENDBRANCH  17  23
ENDBRANCH   1  17
TORSDOF 5
