REMARK  Name = ZINC35414537
REMARK  7 active torsions:
REMARK  status: ('A' for Active; 'I' for Inactive)
REMARK    1  A    between atoms: C_1  and  C_2
REMARK    2  A    between atoms: C_2  and  C_4
REMARK    3  A    between atoms: C_2  and  O_10
REMARK    4  A    between atoms: O_10  and  C_11
REMARK    5  A    between atoms: C_14  and  N_19
REMARK    6  A    between atoms: C_16  and  C_17
REMARK    7  A    between atoms: C_17  and  N_18
REMARK                            x       y       z     vdW  Elec       q    Type
REMARK                         _______ _______ _______ _____ _____    ______ ____
ROOT
ATOM      1  C   UNL     1      -0.031  -0.600   2.303  0.00  0.00    +0.123 A 
ATOM      2  C   UNL     1      -1.400  -0.376   2.286  0.00  0.00    +0.048 A 
ATOM      3  C   UNL     1      -2.134  -0.501   3.449  0.00  0.00    +0.036 A 
ATOM      4  C   UNL     1      -1.506  -0.849   4.631  0.00  0.00    +0.127 A 
ATOM      5  C   UNL     1      -0.141  -1.072   4.651  0.00  0.00    +0.038 A 
ATOM      6  C   UNL     1       0.597  -0.953   3.489  0.00  0.00    -0.021 A 
ENDROOT
BRANCH   4   7
ATOM      7  N   UNL     1      -2.294  -0.983   5.876  0.00  0.00    +0.056 N 
ATOM      8  O   UNL     1      -3.487  -0.788   5.859  0.00  0.00    -0.126 OA
ATOM      9  O   UNL     1      -1.746  -1.287   6.909  0.00  0.00    -0.126 OA
ENDBRANCH   4   7
BRANCH   1  10
ATOM     10  O   UNL     1       0.693  -0.477   1.160  0.00  0.00    -0.480 OA
BRANCH  10  12
ATOM     11  C   UNL     1      -0.294   1.265  -0.193  0.00  0.00    +0.062 C 
ATOM     12  C   UNL     1      -0.034  -0.235  -0.046  0.00  0.00    +0.256 C 
BRANCH  12  13
ATOM     13  C   UNL     1       0.769  -0.723  -1.224  0.00  0.00    +0.261 C 
ATOM     14  O   UNL     1       1.894  -1.145  -1.058  0.00  0.00    -0.271 OA
ATOM     15  N   UNL     1       0.238  -0.691  -2.462  0.00  0.00    -0.237 N 
ATOM     16  C   UNL     1       0.957  -1.127  -3.516  0.00  0.00    +0.303 C 
ATOM     17  O   UNL     1       2.084  -1.550  -3.349  0.00  0.00    -0.253 OA
ATOM     18  N   UNL     1       0.425  -1.095  -4.754  0.00  0.00    -0.313 N 
ATOM     19  H   UNL     1      -0.662  -0.354  -2.595  0.00  0.00    +0.159 HD
ATOM     20  H   UNL     1      -0.474  -0.758  -4.887  0.00  0.00    +0.146 HD
ATOM     21  H   UNL     1       0.943  -1.409  -5.512  0.00  0.00    +0.146 HD
ENDBRANCH  12  13
ENDBRANCH  10  12
ENDBRANCH   1  10
BRANCH   6  22
ATOM     22  C   UNL     1       2.083  -1.202   3.510  0.00  0.00    -0.047 C 
BRANCH  22  23
ATOM     23  N   UNL     1       2.794   0.082   3.560  0.00  0.00    +0.381 N 
ATOM     24  H   UNL     1       3.789  -0.085   3.574  0.00  0.00    -0.090 HD
ATOM     25  H   UNL     1       2.556   0.630   2.747  0.00  0.00    -0.090 HD
ATOM     26  H   UNL     1       2.525   0.583   4.393  0.00  0.00    -0.090 HD
ENDBRANCH  22  23
ENDBRANCH   6  22
TORSDOF 6
