REMARK  Name = ZINC03676502
REMARK  1 active torsions:
REMARK  status: ('A' for Active; 'I' for Inactive)
REMARK    1  A    between atoms: C_2  and  N_12
REMARK                            x       y       z     vdW  Elec       q    Type
REMARK                         _______ _______ _______ _____ _____    ______ ____
ROOT
ATOM      1  C   UNL     1      -0.017   1.368   0.010  0.00  0.00    +0.050 A 
ATOM      2  C   UNL     1       1.177   2.068   0.002  0.00  0.00    +0.129 A 
ATOM      3  C   UNL     1       2.374   1.368  -0.013  0.00  0.00    +0.055 A 
ATOM      4  C   UNL     1       2.402  -0.004  -0.021  0.00  0.00    +0.070 A 
ATOM      5  C   UNL     1       1.202  -0.751  -0.013  0.00  0.00    +0.099 A 
ATOM      6  C   UNL     1       0.002  -0.004   0.002  0.00  0.00    +0.044 A 
ATOM      7  S   UNL     1      -1.237  -1.278   0.008  0.00  0.00    -0.053 S 
ATOM      8  C   UNL     1      -0.123  -2.675  -0.010  0.00  0.00    +0.157 A 
ATOM      9  N   UNL     1       1.055  -2.094  -0.019  0.00  0.00    -0.224 NA
ATOM     10  N   UNL     1      -0.424  -4.022  -0.014  0.00  0.00    -0.337 N 
ATOM     11 CL   UNL     1       3.929  -0.831  -0.041  0.00  0.00    -0.081 Cl
ATOM     12  H   UNL     1      -1.350  -4.312  -0.007  0.00  0.00    +0.144 HD
ATOM     13  H   UNL     1       0.290  -4.679  -0.025  0.00  0.00    +0.144 HD
ENDROOT
BRANCH   2  14
ATOM     14  N   UNL     1       1.176   3.548   0.009  0.00  0.00    +0.057 N 
ATOM     15  O   UNL     1       0.128   4.152   0.022  0.00  0.00    -0.126 OA
ATOM     16  O   UNL     1       2.222   4.153   0.003  0.00  0.00    -0.126 OA
ENDBRANCH   2  14
TORSDOF 1
