REMARK  Name = ZINC06224015
REMARK  10 active torsions:
REMARK  status: ('A' for Active; 'I' for Inactive)
REMARK    1  A    between atoms: C_1  and  C_2
REMARK    2  A    between atoms: C_2  and  C_3
REMARK    3  A    between atoms: C_3  and  C_5
REMARK    4  A    between atoms: C_3  and  N_6
REMARK    5  A    between atoms: C_7  and  C_9
REMARK    6  A    between atoms: C_9  and  S_10
REMARK    7  A    between atoms: S_10  and  C_11
REMARK    8  A    between atoms: C_15  and  C_19
REMARK    9  A    between atoms: N_22  and  C_23
REMARK   10  A    between atoms: C_26  and  C_30
REMARK                            x       y       z     vdW  Elec       q    Type
REMARK                         _______ _______ _______ _____ _____    ______ ____
ROOT
ATOM      1  C   UNL     1      -2.528   7.606   2.990  0.00  0.00    +0.177 A 
ATOM      2  N   UNL     1      -1.476   8.008   2.319  0.00  0.00    -0.201 NA
ATOM      3  C   UNL     1      -1.147   9.304   2.209  0.00  0.00    +0.187 A 
ATOM      4  C   UNL     1      -1.944  10.277   2.827  0.00  0.00    +0.082 A 
ATOM      5  C   UNL     1      -1.369  11.529   2.549  0.00  0.00    +0.046 A 
ATOM      6  N   UNL     1      -0.304  11.340   1.819  0.00  0.00    -0.279 N 
ATOM      7  N   UNL     1      -0.135   9.969   1.588  0.00  0.00    -0.153 NA
ATOM      8  H   UNL     1       0.297  12.200   1.489  0.00  0.00    +0.189 HD
ATOM      9  C   UNL     1      -1.893  12.863   3.015  0.00  0.00    +0.066 C 
ATOM     10  C   UNL     1      -3.124   9.834   3.581  0.00  0.00    +0.124 A 
ATOM     11  N   UNL     1      -3.911  10.692   4.183  0.00  0.00    -0.384 N 
ATOM     12  N   UNL     1      -3.375   8.471   3.627  0.00  0.00    -0.275 N 
ATOM     13  H   UNL     1      -4.789  10.336   4.741  0.00  0.00    +0.157 HD
ATOM     14  H   UNL     1      -3.693  11.769   4.128  0.00  0.00    +0.157 HD
ENDROOT
BRANCH  12  15
ATOM     15  C   UNL     1      -4.488   7.983   4.324  0.00  0.00    +0.052 A 
ATOM     16  C   UNL     1      -5.771   8.296   3.894  0.00  0.00    +0.026 A 
ATOM     17  C   UNL     1      -6.866   7.810   4.580  0.00  0.00    +0.007 A 
ATOM     18  C   UNL     1      -6.687   7.019   5.700  0.00  0.00    -0.032 A 
ATOM     19  C   UNL     1      -5.410   6.709   6.135  0.00  0.00    +0.046 A 
ATOM     20  C   UNL     1      -4.310   7.189   5.449  0.00  0.00    +0.046 A 
ATOM     21 CL   UNL     1      -5.189   5.716   7.542  0.00  0.00    -0.083 Cl
ATOM     22  C   UNL     1      -7.884   6.494   6.450  0.00  0.00    +0.045 C 
ENDBRANCH  12  15
BRANCH   1  23
ATOM     23  S   UNL     1      -2.868   5.878   3.071  0.00  0.00    -0.078 S 
BRANCH  23  24
ATOM     24  C   UNL     1      -1.487   5.240   2.090  0.00  0.00    +0.173 C 
BRANCH  24  26
ATOM     25  N   UNL     1      -0.644   3.040   1.336  0.00  0.00    -0.312 N 
ATOM     26  C   UNL     1      -1.574   3.737   2.019  0.00  0.00    +0.224 C 
ATOM     27  O   UNL     1      -2.480   3.155   2.577  0.00  0.00    -0.275 OA
ATOM     28  H   UNL     1       0.177   3.568   0.830  0.00  0.00    +0.149 HD
BRANCH  25  29
ATOM     29  C   UNL     1      -0.728   1.579   1.267  0.00  0.00    +0.070 C 
ATOM     30  C   UNL     1      -0.064   0.971   2.504  0.00  0.00    +0.028 C 
BRANCH  29  32
ATOM     31  C   UNL     1      -0.752   1.593  -1.231  0.00  0.00    +0.005 C 
ATOM     32  C   UNL     1      -0.012   1.086   0.009  0.00  0.00    +0.018 C 
ENDBRANCH  29  32
ENDBRANCH  25  29
ENDBRANCH  24  26
ENDBRANCH  23  24
ENDBRANCH   1  23
TORSDOF 6
