REMARK  Name = ZINC32195550
REMARK  10 active torsions:
REMARK  status: ('A' for Active; 'I' for Inactive)
REMARK    1  A    between atoms: C_1  and  C_2
REMARK    2  A    between atoms: C_2  and  C_3
REMARK    3  A    between atoms: C_2  and  N_4
REMARK    4  A    between atoms: N_4  and  C_5
REMARK    5  A    between atoms: C_5  and  C_6
REMARK    6  A    between atoms: C_6  and  C_7
REMARK    7  A    between atoms: C_6  and  C_8
REMARK    8  A    between atoms: C_6  and  O_22
REMARK    9  A    between atoms: C_11  and  O_14
REMARK   10  A    between atoms: O_14  and  C_15
REMARK                            x       y       z     vdW  Elec       q    Type
REMARK                         _______ _______ _______ _____ _____    ______ ____
ROOT
ATOM      1  C   UNL     1      -2.166   1.120   1.272  0.00  0.00    -0.018 A 
ATOM      2  C   UNL     1      -2.393  -0.198   1.623  0.00  0.00    +0.010 A 
ATOM      3  C   UNL     1      -3.680  -0.698   1.641  0.00  0.00    +0.046 A 
ATOM      4  C   UNL     1      -4.746   0.120   1.295  0.00  0.00    +0.129 A 
ATOM      5  C   UNL     1      -4.516   1.441   0.938  0.00  0.00    +0.046 A 
ATOM      6  C   UNL     1      -3.227   1.938   0.927  0.00  0.00    +0.010 A 
ENDROOT
BRANCH   1   7
ATOM      7  C   UNL     1      -0.761   1.665   1.259  0.00  0.00    +0.073 C 
ATOM      8  C   UNL     1      -0.144   1.451  -0.124  0.00  0.00    +0.044 C 
BRANCH   7   9
ATOM      9  O   UNL     1      -0.789   3.062   1.558  0.00  0.00    -0.386 OA
ATOM     10  H   UNL     1      -1.347   3.752   0.909  0.00  0.00    +0.211 HD
ENDBRANCH   7   9
BRANCH   7  11
ATOM     11  C   UNL     1       0.078   0.935   2.310  0.00  0.00    -0.042 C 
BRANCH  11  12
ATOM     12  N   UNL     1       1.448   1.466   2.298  0.00  0.00    +0.383 N 
ATOM     13  H   UNL     1       1.411   2.542   2.521  0.00  0.00    -0.085 HD
ATOM     14  H   UNL     1       1.876   1.314   1.296  0.00  0.00    -0.085 HD
BRANCH  12  16
ATOM     15  C   UNL     1       3.753   0.872   2.874  0.00  0.00    -0.014 C 
ATOM     16  C   UNL     1       2.284   0.787   3.296  0.00  0.00    -0.078 C 
ATOM     17  C   UNL     1       2.105   1.464   4.657  0.00  0.00    -0.014 C 
ENDBRANCH  12  16
ENDBRANCH  11  12
ENDBRANCH   7  11
ENDBRANCH   1   7
BRANCH   4  18
ATOM     18  O   UNL     1      -6.013  -0.370   1.306  0.00  0.00    -0.453 OA
BRANCH  18  19
ATOM     19  C   UNL     1      -6.636  -0.500   2.507  0.00  0.00    +0.163 A 
ATOM     20  C   UNL     1      -6.010  -0.065   3.666  0.00  0.00    +0.049 A 
ATOM     21  C   UNL     1      -6.648  -0.192   4.885  0.00  0.00    +0.004 A 
ATOM     22  C   UNL     1      -7.905  -0.762   4.953  0.00  0.00    +0.003 A 
ATOM     23  C   UNL     1      -8.531  -1.203   3.801  0.00  0.00    +0.042 A 
ATOM     24  C   UNL     1      -7.900  -1.073   2.578  0.00  0.00    +0.165 A 
ATOM     25  F   UNL     1      -8.511  -1.502   1.452  0.00  0.00    -0.202 F 
ENDBRANCH  18  19
ENDBRANCH   4  18
TORSDOF 7
