REMARK  Name = ZINC45845058
REMARK  4 active torsions:
REMARK  status: ('A' for Active; 'I' for Inactive)
REMARK    1  A    between atoms: C_4  and  O_28
REMARK    2  A    between atoms: C_5  and  N_7
REMARK    3  A    between atoms: N_15  and  C_16
REMARK    4  A    between atoms: C_16  and  C_17
REMARK                            x       y       z     vdW  Elec       q    Type
REMARK                         _______ _______ _______ _____ _____    ______ ____
ROOT
ATOM      1  N   UNL     1       1.235  -2.080  -0.017  0.00  0.00    -0.324 N 
ATOM      2  C   UNL     1       1.248  -2.836   1.244  0.00  0.00    +0.124 C 
ATOM      3  C   UNL     1       0.069  -3.816   1.240  0.00  0.00    +0.128 C 
ATOM      4  N   UNL     1       0.078  -4.557  -0.030  0.00  0.00    -0.283 N 
ATOM      5  C   UNL     1       0.066  -3.802  -1.291  0.00  0.00    +0.128 C 
ATOM      6  C   UNL     1       1.239  -2.821  -1.286  0.00  0.00    +0.124 C 
ATOM      7  C   UNL     1       0.099  -5.904  -0.038  0.00  0.00    +0.303 C 
ATOM      8  O   UNL     1       0.206  -6.517   1.007  0.00  0.00    -0.253 OA
ATOM      9  N   UNL     1       0.002  -6.573  -1.204  0.00  0.00    -0.295 N 
ATOM     10  H   UNL     1      -0.010  -6.086  -2.043  0.00  0.00    +0.151 HD
ENDROOT
BRANCH   1  15
ATOM     11  C   UNL     1      -0.016   1.378   0.009  0.00  0.00    +0.002 A 
ATOM     12  C   UNL     1       1.170   2.089   0.007  0.00  0.00    +0.004 A 
ATOM     13  C   UNL     1       2.381   1.421  -0.004  0.00  0.00    +0.047 A 
ATOM     14  C   UNL     1       2.408   0.036  -0.011  0.00  0.00    +0.138 A 
ATOM     15  C   UNL     1       1.214  -0.681  -0.009  0.00  0.00    +0.072 A 
ATOM     16  C   UNL     1       0.003  -0.004   0.002  0.00  0.00    +0.027 A 
BRANCH  14  17
ATOM     17  O   UNL     1       3.598  -0.623  -0.022  0.00  0.00    -0.505 OA
ATOM     18  H   UNL     1       3.948  -0.818   0.858  0.00  0.00    +0.292 HD
ENDBRANCH  14  17
ENDBRANCH   1  15
BRANCH   9  19
ATOM     19  C   UNL     1      -0.086  -8.036  -1.205  0.00  0.00    +0.142 C 
BRANCH  19  20
ATOM     20  C   UNL     1      -0.186  -8.532  -2.624  0.00  0.00    -0.014 A 
ATOM     21  C   UNL     1      -1.427  -8.686  -3.228  0.00  0.00    +0.010 A 
ATOM     22  C   UNL     1      -1.474  -9.144  -4.532  0.00  0.00    +0.042 A 
ATOM     23  C   UNL     1      -0.283  -9.434  -5.191  0.00  0.00    +0.099 A 
ATOM     24  N   UNL     1       0.881  -9.274  -4.580  0.00  0.00    -0.349 N 
ATOM     25  C   UNL     1       0.956  -8.833  -3.339  0.00  0.00    +0.089 A 
ATOM     26  N   UNL     1      -0.316  -9.896  -6.502  0.00  0.00    -0.317 N 
ATOM     27  C   UNL     1      -1.529 -10.115  -7.303  0.00  0.00    +0.106 C 
ATOM     28  C   UNL     1      -1.080 -10.653  -8.677  0.00  0.00    +0.020 C 
ATOM     29  C   UNL     1       0.324 -11.242  -8.378  0.00  0.00    +0.020 C 
ATOM     30  C   UNL     1       0.860 -10.241  -7.320  0.00  0.00    +0.106 C 
ATOM     31  H   UNL     1       1.698  -9.482  -5.059  0.00  0.00    +0.167 HD
ENDBRANCH  19  20
ENDBRANCH   9  19
TORSDOF 4
