REMARK  Name = ZINC65182963
REMARK  9 active torsions:
REMARK  status: ('A' for Active; 'I' for Inactive)
REMARK    1  A    between atoms: C_1  and  N_2
REMARK    2  A    between atoms: N_2  and  C_3
REMARK    3  A    between atoms: C_3  and  C_4
REMARK    4  A    between atoms: C_4  and  C_5
REMARK    5  A    between atoms: C_8  and  C_11
REMARK    6  A    between atoms: C_16  and  O_21
REMARK    7  A    between atoms: O_21  and  C_22
REMARK    8  A    between atoms: C_23  and  C_25
REMARK    9  A    between atoms: C_30  and  C_31
REMARK                            x       y       z     vdW  Elec       q    Type
REMARK                         _______ _______ _______ _____ _____    ______ ____
ROOT
ATOM      1  C   UNL     1      -0.752  -1.586   3.248  0.00  0.00    +0.139 C 
ATOM      2  N   UNL     1       0.329  -2.168   3.621  0.00  0.00    -0.072 NA
ATOM      3  O   UNL     1       0.149  -2.824   4.863  0.00  0.00    -0.367 OA
ATOM      4  C   UNL     1      -1.213  -2.586   5.252  0.00  0.00    +0.318 C 
ATOM      5  N   UNL     1      -1.764  -1.765   4.162  0.00  0.00    -0.291 N 
ATOM      6  H   UNL     1      -2.667  -1.417   4.100  0.00  0.00    +0.151 HD
ENDROOT
BRANCH   4   7
ATOM      7  C   UNL     1      -1.973  -3.908   5.372  0.00  0.00    +0.165 C 
ATOM      8  C   UNL     1      -1.437  -4.715   6.534  0.00  0.00    +0.013 C 
ATOM      9  C   UNL     1      -2.473  -4.878   7.387  0.00  0.00    -0.000 A 
ATOM     10  C   UNL     1      -2.600  -5.558   8.681  0.00  0.00    +0.055 A 
ATOM     11  C   UNL     1      -3.793  -5.555   9.321  0.00  0.00    +0.121 A 
ATOM     12  C   UNL     1      -4.929  -4.919   8.791  0.00  0.00    +0.047 A 
ATOM     13  C   UNL     1      -4.911  -4.267   7.608  0.00  0.00    +0.029 A 
ATOM     14  C   UNL     1      -3.671  -4.208   6.829  0.00  0.00    +0.043 A 
ATOM     15  N   UNL     1      -3.386  -3.654   5.675  0.00  0.00    -0.373 N 
ATOM     16  H   UNL     1      -4.005  -3.158   5.116  0.00  0.00    +0.160 HD
BRANCH  11  17
ATOM     17  O   UNL     1      -3.896  -6.189  10.519  0.00  0.00    -0.495 OA
ATOM     18  C   UNL     1      -5.173  -6.162  11.160  0.00  0.00    +0.277 C 
ENDBRANCH  11  17
ENDBRANCH   4   7
BRANCH   1  19
ATOM     19  C   UNL     1      -0.894  -0.800   1.970  0.00  0.00    +0.094 C 
BRANCH  19  20
ATOM     20  C   UNL     1       0.434  -0.820   1.209  0.00  0.00    +0.115 C 
BRANCH  20  22
ATOM     21  C   UNL     1       0.591   1.379  -0.047  0.00  0.00    +0.132 C 
ATOM     22  N   UNL     1       0.296  -0.056  -0.033  0.00  0.00    -0.300 N 
ATOM     23  C   UNL     1      -0.102  -0.673  -1.163  0.00  0.00    +0.247 C 
ATOM     24  O   UNL     1      -0.442  -1.839  -1.131  0.00  0.00    -0.270 OA
BRANCH  23  25
ATOM     25  C   UNL     1      -0.124   0.069  -2.442  0.00  0.00    +0.049 A 
ATOM     26  C   UNL     1       0.997   0.793  -2.852  0.00  0.00    +0.013 A 
ATOM     27  C   UNL     1       0.969   1.483  -4.046  0.00  0.00    +0.001 A 
ATOM     28  C   UNL     1      -0.166   1.458  -4.837  0.00  0.00    +0.001 A 
ATOM     29  C   UNL     1      -1.280   0.742  -4.437  0.00  0.00    +0.013 A 
ATOM     30  C   UNL     1      -1.264   0.043  -3.247  0.00  0.00    +0.067 A 
BRANCH  30  31
ATOM     31  C   UNL     1      -2.476  -0.741  -2.816  0.00  0.00    +0.418 C 
ATOM     32  F   UNL     1      -3.481  -0.614  -3.780  0.00  0.00    -0.166 F 
ATOM     33  F   UNL     1      -2.133  -2.090  -2.674  0.00  0.00    -0.166 F 
ATOM     34  F   UNL     1      -2.939  -0.247  -1.591  0.00  0.00    -0.166 F 
ENDBRANCH  30  31
ENDBRANCH  23  25
ENDBRANCH  20  22
ENDBRANCH  19  20
ENDBRANCH   1  19
TORSDOF 7
