REMARK  Name = ZINC06519989
REMARK  6 active torsions:
REMARK  status: ('A' for Active; 'I' for Inactive)
REMARK    1  A    between atoms: C_1  and  C_2
REMARK    2  A    between atoms: C_2  and  N_3
REMARK    3  A    between atoms: C_4  and  C_10
REMARK    4  A    between atoms: C_10  and  C_12
REMARK    5  A    between atoms: C_10  and  N_13
REMARK    6  A    between atoms: C_14  and  C_16
REMARK                            x       y       z     vdW  Elec       q    Type
REMARK                         _______ _______ _______ _____ _____    ______ ____
ROOT
ATOM      1  C   UNL     1      -1.413  -0.708  -2.538  0.00  0.00    +0.138 C 
ATOM      2  C   UNL     1      -2.127  -1.416  -1.385  0.00  0.00    +0.036 C 
ENDROOT
BRANCH   1   4
ATOM      3  N   UNL     1       0.828   0.231  -1.725  0.00  0.00    -0.306 N 
ATOM      4  C   UNL     1       0.076  -0.756  -2.312  0.00  0.00    +0.152 A 
ATOM      5  N   UNL     1       0.856  -1.736  -2.640  0.00  0.00    -0.157 NA
ATOM      6  N   UNL     1       2.163  -1.398  -2.263  0.00  0.00    -0.254 N 
ATOM      7  H   UNL     1       2.956  -1.943  -2.386  0.00  0.00    +0.191 HD
ATOM      8  C   UNL     1       2.115  -0.171  -1.704  0.00  0.00    +0.176 A 
ATOM      9  S   UNL     1       3.442   0.712  -1.080  0.00  0.00    -0.011 S 
BRANCH   3  11
ATOM     10  C   UNL     1       0.356   2.554  -2.328  0.00  0.00    +0.027 C 
ATOM     11  C   UNL     1       0.319   1.506  -1.213  0.00  0.00    +0.122 C 
ENDBRANCH   3  11
ENDBRANCH   1   4
BRANCH   1  12
ATOM     12  N   UNL     1      -1.738  -1.379  -3.799  0.00  0.00    -0.301 N 
ATOM     13  C   UNL     1      -2.863  -1.052  -4.466  0.00  0.00    +0.251 C 
ATOM     14  O   UNL     1      -3.609  -0.200  -4.020  0.00  0.00    -0.270 OA
ATOM     15  H   UNL     1      -1.144  -2.058  -4.154  0.00  0.00    +0.150 HD
BRANCH  13  16
ATOM     16  C   UNL     1      -3.188  -1.723  -5.728  0.00  0.00    +0.074 A 
ATOM     17  C   UNL     1      -4.279  -1.534  -6.563  0.00  0.00    +0.021 A 
ATOM     18  C   UNL     1      -4.311  -2.319  -7.690  0.00  0.00    +0.008 A 
ATOM     19  C   UNL     1      -3.306  -3.203  -7.906  0.00  0.00    +0.046 A 
ATOM     20  S   UNL     1      -2.281  -2.990  -6.593  0.00  0.00    -0.092 S 
ENDBRANCH  13  16
ENDBRANCH   1  12
TORSDOF 4
