REMARK  Name = ZINC61786376
REMARK  8 active torsions:
REMARK  status: ('A' for Active; 'I' for Inactive)
REMARK    1  A    between atoms: C_1  and  C_2
REMARK    2  A    between atoms: C_2  and  N_3
REMARK    3  A    between atoms: C_4  and  C_6
REMARK    4  A    between atoms: N_14  and  C_15
REMARK    5  A    between atoms: C_15  and  C_16
REMARK    6  A    between atoms: N_19  and  C_21
REMARK    7  A    between atoms: C_21  and  C_22
REMARK    8  A    between atoms: C_21  and  C_23
REMARK                            x       y       z     vdW  Elec       q    Type
REMARK                         _______ _______ _______ _____ _____    ______ ____
ROOT
ATOM      1  C   UNL     1       1.536  -2.283  -2.664  0.00  0.00    +0.092 C 
ATOM      2  C   UNL     1       1.554  -3.814  -2.675  0.00  0.00    +0.016 C 
ATOM      3  C   UNL     1       2.298  -4.308  -3.917  0.00  0.00    +0.020 C 
ATOM      4  C   UNL     1       1.565  -3.825  -5.173  0.00  0.00    +0.109 C 
ATOM      5  N   UNL     1       1.415  -2.365  -5.100  0.00  0.00    -0.285 N 
ATOM      6  C   UNL     1       0.794  -1.777  -3.905  0.00  0.00    +0.122 C 
ATOM      7  C   UNL     1       1.839  -1.580  -6.110  0.00  0.00    +0.302 C 
ATOM      8  O   UNL     1       1.628  -0.383  -6.080  0.00  0.00    -0.253 OA
ATOM      9  N   UNL     1       2.498  -2.122  -7.154  0.00  0.00    -0.299 N 
ATOM     10  H   UNL     1       2.603  -3.084  -7.214  0.00  0.00    +0.150 HD
ENDROOT
BRANCH   1  12
ATOM     11  N   UNL     1       0.692  -0.475  -1.203  0.00  0.00    -0.315 N 
ATOM     12  C   UNL     1       0.831  -1.797  -1.424  0.00  0.00    +0.218 C 
ATOM     13  O   UNL     1       0.390  -2.596  -0.625  0.00  0.00    -0.275 OA
ATOM     14  H   UNL     1       1.045   0.164  -1.842  0.00  0.00    +0.149 HD
BRANCH  11  16
ATOM     15  C   UNL     1      -0.015   1.527   0.011  0.00  0.00    +0.024 C 
ATOM     16  C   UNL     1       0.007  -0.002   0.003  0.00  0.00    +0.101 C 
ENDBRANCH  11  16
ENDBRANCH   1  12
BRANCH   9  17
ATOM     17  C   UNL     1       3.057  -1.258  -8.196  0.00  0.00    +0.107 C 
BRANCH  17  18
ATOM     18  C   UNL     1       3.748  -2.118  -9.256  0.00  0.00    -0.012 C 
ATOM     19  C   UNL     1       5.081  -2.700  -8.716  0.00  0.00    -0.015 C 
ATOM     20  C   UNL     1       5.912  -2.913  -9.998  0.00  0.00    -0.078 C 
ATOM     21  N   UNL     1       5.359  -2.018 -11.031  0.00  0.00    +0.381 N 
ATOM     22  C   UNL     1       4.243  -1.249 -10.439  0.00  0.00    -0.074 C 
ATOM     23  H   UNL     1       5.019  -2.565 -11.808  0.00  0.00    -0.081 HD
BRANCH  21  24
ATOM     24  C   UNL     1       6.402  -1.095 -11.497  0.00  0.00    -0.075 C 
ATOM     25  C   UNL     1       7.548  -1.895 -12.121  0.00  0.00    -0.014 C 
ATOM     26  C   UNL     1       5.814  -0.146 -12.543  0.00  0.00    -0.014 C 
ENDBRANCH  21  24
ENDBRANCH  17  18
ENDBRANCH   9  17
TORSDOF 5
