REMARK  Name = ZINC32542014
REMARK  10 active torsions:
REMARK  status: ('A' for Active; 'I' for Inactive)
REMARK    1  A    between atoms: C_1  and  C_2
REMARK    2  A    between atoms: C_2  and  C_4
REMARK    3  A    between atoms: C_2  and  N_14
REMARK    4  A    between atoms: C_7  and  S_10
REMARK    5  A    between atoms: S_10  and  N_13
REMARK    6  A    between atoms: N_14  and  C_15
REMARK    7  A    between atoms: N_14  and  C_16
REMARK    8  A    between atoms: C_16  and  C_17
REMARK    9  A    between atoms: N_19  and  C_20
REMARK   10  A    between atoms: C_20  and  C_21
REMARK                            x       y       z     vdW  Elec       q    Type
REMARK                         _______ _______ _______ _____ _____    ______ ____
ROOT
ATOM      1  N   UNL     1      -2.347   3.857   5.868  0.00  0.00    +0.388 N 
ATOM      2  C   UNL     1      -2.020   5.182   5.324  0.00  0.00    -0.095 C 
ATOM      3  H   UNL     1      -1.430   3.250   5.852  0.00  0.00    -0.081 HD
ENDROOT
BRANCH   1   5
ATOM      4  C   UNL     1      -2.856   3.113   3.591  0.00  0.00    -0.008 C 
ATOM      5  C   UNL     1      -3.352   3.180   5.037  0.00  0.00    -0.041 C 
BRANCH   5   6
ATOM      6  C   UNL     1      -3.576   1.784   5.557  0.00  0.00    -0.061 A 
ATOM      7  C   UNL     1      -4.862   1.298   5.700  0.00  0.00    +0.004 A 
ATOM      8  C   UNL     1      -5.067   0.016   6.177  0.00  0.00    +0.029 A 
ATOM      9  C   UNL     1      -3.986  -0.778   6.512  0.00  0.00    +0.105 A 
ATOM     10  C   UNL     1      -2.701  -0.289   6.374  0.00  0.00    +0.029 A 
ATOM     11  C   UNL     1      -2.495   0.990   5.892  0.00  0.00    +0.004 A 
BRANCH   9  12
ATOM     12  S   UNL     1      -4.248  -2.411   7.120  0.00  0.00    +0.056 S 
ATOM     13  O   UNL     1      -5.556  -2.433   7.676  0.00  0.00    -0.153 OA
ATOM     14  O   UNL     1      -3.094  -2.753   7.875  0.00  0.00    -0.153 OA
BRANCH  12  15
ATOM     15  N   UNL     1      -4.274  -3.423   5.810  0.00  0.00    -0.204 NA
ATOM     16  H   UNL     1      -4.436  -4.457   6.149  0.00  0.00    +0.144 HD
ATOM     17  H   UNL     1      -3.313  -3.358   5.277  0.00  0.00    +0.144 HD
ENDBRANCH  12  15
ENDBRANCH   9  12
ENDBRANCH   5   6
ENDBRANCH   1   5
BRANCH   1  18
ATOM     18  C   UNL     1      -2.798   3.958   7.262  0.00  0.00    +0.019 C 
BRANCH  18  19
ATOM     19  C   UNL     1      -1.657   4.428   8.127  0.00  0.00    +0.197 C 
ATOM     20  O   UNL     1      -0.575   4.658   7.630  0.00  0.00    -0.278 OA
ATOM     21  N   UNL     1      -1.839   4.594   9.451  0.00  0.00    -0.313 N 
ATOM     22  H   UNL     1      -2.821   4.386   9.902  0.00  0.00    +0.149 HD
BRANCH  21  23
ATOM     23  C   UNL     1      -0.729   5.052  10.292  0.00  0.00    +0.139 C 
BRANCH  23  24
ATOM     24  C   UNL     1      -1.192   5.155  11.722  0.00  0.00    -0.030 A 
ATOM     25  C   UNL     1      -1.726   6.340  12.193  0.00  0.00    +0.006 A 
ATOM     26  C   UNL     1      -2.155   6.433  13.503  0.00  0.00    +0.020 A 
ATOM     27  C   UNL     1      -2.040   5.343  14.347  0.00  0.00    +0.041 A 
ATOM     28  C   UNL     1      -1.501   4.159  13.878  0.00  0.00    +0.020 A 
ATOM     29  C   UNL     1      -1.077   4.065  12.566  0.00  0.00    +0.006 A 
ATOM     30 CL   UNL     1      -2.574   5.461  15.995  0.00  0.00    -0.084 Cl
ENDBRANCH  23  24
ENDBRANCH  21  23
ENDBRANCH  18  19
ENDBRANCH   1  18
TORSDOF 8
