REMARK  Name = ZINC39869882
REMARK  4 active torsions:
REMARK  status: ('A' for Active; 'I' for Inactive)
REMARK    1  A    between atoms: C_1  and  C_2
REMARK    2  A    between atoms: C_16  and  N_18
REMARK    3  A    between atoms: N_18  and  C_19
REMARK    4  A    between atoms: C_24  and  C_25
REMARK                            x       y       z     vdW  Elec       q    Type
REMARK                         _______ _______ _______ _____ _____    ______ ____
ROOT
ATOM      1  C   UNL     1      -1.006   1.597  -0.046  0.00  0.00    +0.110 C 
ATOM      2  C   UNL     1      -1.180   0.101  -0.057  0.00  0.00    +0.223 C 
ATOM      3  O   UNL     1      -1.384  -0.494   0.980  0.00  0.00    -0.275 OA
ATOM      4  N   UNL     1      -1.108  -0.578  -1.220  0.00  0.00    -0.206 N 
ATOM      5  C   UNL     1      -1.260  -1.959  -1.335  0.00  0.00    +0.052 A 
ATOM      6  C   UNL     1      -1.505  -2.943  -0.386  0.00  0.00    +0.024 A 
ATOM      7  C   UNL     1      -1.614  -4.265  -0.770  0.00  0.00    +0.002 A 
ATOM      8  C   UNL     1      -1.481  -4.627  -2.100  0.00  0.00    +0.001 A 
ATOM      9  C   UNL     1      -1.237  -3.664  -3.058  0.00  0.00    +0.010 A 
ATOM     10  C   UNL     1      -1.126  -2.328  -2.681  0.00  0.00    +0.010 A 
ATOM     11  C   UNL     1      -0.875  -1.082  -3.435  0.00  0.00    +0.065 C 
ATOM     12  C   UNL     1      -0.678  -0.948  -4.792  0.00  0.00    +0.092 C 
ATOM     13  C   UNL     1      -0.519  -1.996  -5.844  0.00  0.00    +0.277 C 
ATOM     14  O   UNL     1      -0.550  -3.185  -5.580  0.00  0.00    -0.267 OA
ATOM     15  N   UNL     1      -0.344  -1.559  -7.071  0.00  0.00    -0.152 NA
ATOM     16  C   UNL     1      -0.308  -0.270  -7.370  0.00  0.00    +0.175 C 
ATOM     17  S   UNL     1      -0.550   0.530  -5.792  0.00  0.00    -0.049 S 
ATOM     18  C   UNL     1      -0.886  -0.008  -2.417  0.00  0.00    +0.259 C 
ATOM     19  O   UNL     1      -0.720   1.178  -2.625  0.00  0.00    -0.269 OA
ENDROOT
BRANCH  16  20
ATOM     20  N   UNL     1      -0.133   0.310  -8.596  0.00  0.00    -0.191 NA
BRANCH  20  21
ATOM     21  C   UNL     1      -0.165  -0.471  -9.746  0.00  0.00    +0.068 A 
ATOM     22  C   UNL     1      -0.844  -1.683  -9.749  0.00  0.00    +0.026 A 
ATOM     23  C   UNL     1      -0.874  -2.456 -10.891  0.00  0.00    +0.002 A 
ATOM     24  C   UNL     1      -0.230  -2.032 -12.043  0.00  0.00    +0.001 A 
ATOM     25  C   UNL     1       0.449  -0.833 -12.059  0.00  0.00    +0.015 A 
ATOM     26  C   UNL     1       0.485  -0.036 -10.912  0.00  0.00    +0.059 A 
BRANCH  26  27
ATOM     27  C   UNL     1       1.205   1.251 -10.924  0.00  0.00    +0.243 C 
ATOM     28  O   UNL     1       1.237   1.939  -9.922  0.00  0.00    -0.270 OA
ATOM     29  N   UNL     1       1.827   1.664 -12.046  0.00  0.00    -0.325 N 
ATOM     30  H   UNL     1       1.802   1.115 -12.845  0.00  0.00    +0.145 HD
ATOM     31  H   UNL     1       2.301   2.510 -12.054  0.00  0.00    +0.145 HD
ENDBRANCH  26  27
ENDBRANCH  20  21
ENDBRANCH  16  20
TORSDOF 3
