REMARK  Name = ZINC67043575
REMARK  6 active torsions:
REMARK  status: ('A' for Active; 'I' for Inactive)
REMARK    1  A    between atoms: C_3  and  C_13
REMARK    2  A    between atoms: C_13  and  N_14
REMARK    3  A    between atoms: N_17  and  N_18
REMARK    4  A    between atoms: C_19  and  C_21
REMARK    5  A    between atoms: C_21  and  C_22
REMARK    6  A    between atoms: C_22  and  C_23
REMARK                            x       y       z     vdW  Elec       q    Type
REMARK                         _______ _______ _______ _____ _____    ______ ____
ROOT
ATOM      1  N   UNL     1       4.199   2.443  -0.983  0.00  0.00    -0.294 N 
ATOM      2  C   UNL     1       5.340   3.154  -1.078  0.00  0.00    +0.316 C 
ATOM      3  O   UNL     1       5.816   3.675  -0.088  0.00  0.00    -0.251 OA
ATOM      4  N   UNL     1       5.955   3.286  -2.271  0.00  0.00    -0.218 N 
ATOM      5  H   UNL     1       3.820   2.027  -1.772  0.00  0.00    +0.151 HD
ATOM      6  H   UNL     1       6.776   3.797  -2.339  0.00  0.00    +0.174 HD
ENDROOT
BRANCH   4   7
ATOM      7  N   UNL     1       5.406   2.685  -3.411  0.00  0.00    -0.233 N 
ATOM      8  C   UNL     1       6.020   2.817  -4.604  0.00  0.00    +0.229 C 
ATOM      9  O   UNL     1       7.047   3.456  -4.689  0.00  0.00    -0.274 OA
ATOM     10  H   UNL     1       4.585   2.173  -3.342  0.00  0.00    +0.173 HD
BRANCH   8  11
ATOM     11  C   UNL     1       5.431   2.170  -5.830  0.00  0.00    +0.097 C 
BRANCH  11  12
ATOM     12  C   UNL     1       6.316   2.472  -7.041  0.00  0.00    +0.013 C 
BRANCH  12  13
ATOM     13  C   UNL     1       5.717   1.816  -8.287  0.00  0.00    -0.011 C 
ATOM     14  C   UNL     1       5.753   0.294  -8.129  0.00  0.00    +0.003 C 
ATOM     15  C   UNL     1       5.154  -0.362  -9.374  0.00  0.00    +0.000 C 
ATOM     16  C   UNL     1       5.968   0.042 -10.605  0.00  0.00    +0.000 C 
ATOM     17  C   UNL     1       5.933   1.563 -10.763  0.00  0.00    +0.000 C 
ATOM     18  C   UNL     1       6.531   2.220  -9.518  0.00  0.00    +0.003 C 
ENDBRANCH  12  13
ENDBRANCH  11  12
ENDBRANCH   8  11
ENDBRANCH   4   7
BRANCH   1  19
ATOM     19  C   UNL     1       3.532   2.300   0.314  0.00  0.00    +0.144 C 
BRANCH  19  22
ATOM     20  C   UNL     1      -0.078   1.258  -0.042  0.00  0.00    +0.018 A 
ATOM     21  C   UNL     1       1.042   2.065   0.113  0.00  0.00    +0.010 A 
ATOM     22  C   UNL     1       2.288   1.466   0.148  0.00  0.00    +0.008 A 
ATOM     23  C   UNL     1       2.376   0.082   0.029  0.00  0.00    +0.104 A 
ATOM     24  N   UNL     1       1.285  -0.653  -0.117  0.00  0.00    -0.349 N 
ATOM     25  C   UNL     1       0.084  -0.108  -0.154  0.00  0.00    +0.084 A 
ATOM     26  N   UNL     1       3.622  -0.533   0.063  0.00  0.00    -0.312 N 
ATOM     27  C   UNL     1       4.229  -0.945   1.338  0.00  0.00    +0.134 C 
ATOM     28  C   UNL     1       4.672  -2.408   1.213  0.00  0.00    +0.178 C 
ATOM     29  O   UNL     1       5.484  -2.556   0.046  0.00  0.00    -0.377 OA
ATOM     30  C   UNL     1       4.808  -2.263  -1.179  0.00  0.00    +0.178 C 
ATOM     31  C   UNL     1       4.370  -0.798  -1.177  0.00  0.00    +0.134 C 
ATOM     32  H   UNL     1       1.370  -1.615  -0.199  0.00  0.00    +0.167 HD
ENDBRANCH  19  22
ENDBRANCH   1  19
TORSDOF 6
