REMARK  Name = ZINC44111897
REMARK  5 active torsions:
REMARK  status: ('A' for Active; 'I' for Inactive)
REMARK    1  A    between atoms: C_1  and  N_2
REMARK    2  A    between atoms: N_2  and  C_3
REMARK    3  A    between atoms: C_15  and  O_17
REMARK    4  A    between atoms: O_17  and  C_18
REMARK    5  A    between atoms: C_18  and  C_19
REMARK                            x       y       z     vdW  Elec       q    Type
REMARK                         _______ _______ _______ _____ _____    ______ ____
ROOT
ATOM      1  C   UNL     1      -0.710  -0.919  -0.075  0.00  0.00    -0.043 C 
ATOM      2  C   UNL     1      -0.992  -0.604  -1.545  0.00  0.00    -0.013 C 
ATOM      3  C   UNL     1       0.293  -0.118  -2.219  0.00  0.00    -0.001 C 
ATOM      4  C   UNL     1       0.558  -0.954  -3.472  0.00  0.00    -0.000 C 
ATOM      5  C   UNL     1       1.976  -1.527  -3.413  0.00  0.00    -0.000 C 
ATOM      6  C   UNL     1       1.923  -3.043  -3.614  0.00  0.00    -0.000 C 
ATOM      7  C   UNL     1       2.656  -3.736  -2.464  0.00  0.00    +0.000 C 
ATOM      8  C   UNL     1       1.736  -4.780  -1.828  0.00  0.00    +0.000 C 
ATOM      9  C   UNL     1       1.653  -4.536  -0.320  0.00  0.00    +0.000 C 
ATOM     10  C   UNL     1       0.186  -4.429   0.099  0.00  0.00    +0.002 C 
ATOM     11  C   UNL     1      -0.029  -3.128   0.875  0.00  0.00    +0.030 C 
ATOM     12  C   UNL     1      -1.178  -2.341   0.241  0.00  0.00    +0.104 C 
ENDROOT
BRANCH   1  14
ATOM     13  C   UNL     1       0.980  -0.876   1.627  0.00  0.00    -0.100 C 
ATOM     14  N   UNL     1       0.733  -0.811   0.181  0.00  0.00    +0.381 N 
ATOM     15  H   UNL     1       1.073   0.068  -0.179  0.00  0.00    -0.086 HD
ATOM     16  H   UNL     1       1.213  -1.571  -0.277  0.00  0.00    -0.086 HD
ENDBRANCH   1  14
BRANCH  12  17
ATOM     17  O   UNL     1      -1.589  -2.986  -0.966  0.00  0.00    -0.378 OA
BRANCH  17  18
ATOM     18  C   UNL     1      -3.005  -3.013  -1.158  0.00  0.00    +0.166 C 
BRANCH  18  19
ATOM     19  C   UNL     1      -3.322  -3.612  -2.530  0.00  0.00    +0.043 C 
ATOM     20  C   UNL     1      -4.853  -3.670  -2.755  0.00  0.00    +0.036 C 
ATOM     21  C   UNL     1      -5.027  -5.047  -3.446  0.00  0.00    +0.160 C 
ATOM     22  O   UNL     1      -4.055  -5.883  -2.781  0.00  0.00    -0.379 OA
ATOM     23  C   UNL     1      -2.871  -5.084  -2.594  0.00  0.00    +0.165 C 
ENDBRANCH  18  19
ENDBRANCH  17  18
ENDBRANCH  12  17
TORSDOF 4
