REMARK  Name = ZINC38507136
REMARK  8 active torsions:
REMARK  status: ('A' for Active; 'I' for Inactive)
REMARK    1  A    between atoms: C_1  and  C_2
REMARK    2  A    between atoms: N_5  and  C_25
REMARK    3  A    between atoms: C_6  and  C_7
REMARK    4  A    between atoms: N_9  and  C_10
REMARK    5  A    between atoms: C_11  and  C_22
REMARK    6  A    between atoms: N_16  and  C_19
REMARK    7  A    between atoms: C_19  and  C_20
REMARK    8  A    between atoms: C_19  and  C_21
REMARK                            x       y       z     vdW  Elec       q    Type
REMARK                         _______ _______ _______ _____ _____    ______ ____
ROOT
ATOM      1  C   UNL     1      -0.009  -1.000   4.833  0.00  0.00    +0.085 A 
ATOM      2  C   UNL     1       0.117  -1.833   5.936  0.00  0.00    +0.068 A 
ATOM      3  C   UNL     1      -0.027  -1.223   7.243  0.00  0.00    -0.027 A 
ATOM      4  C   UNL     1      -0.273   0.106   7.213  0.00  0.00    -0.021 A 
ATOM      5  S   UNL     1      -0.297   0.517   5.495  0.00  0.00    -0.079 S 
ATOM      6  C   UNL     1      -0.470   0.995   8.400  0.00  0.00    -0.035 C 
ATOM      7  N   UNL     1      -0.735   0.145   9.576  0.00  0.00    +0.384 N 
ATOM      8  C   UNL     1       0.292  -0.900   9.671  0.00  0.00    -0.073 C 
ATOM      9  C   UNL     1       0.079  -1.952   8.576  0.00  0.00    +0.018 C 
ATOM     10  H   UNL     1      -1.644  -0.284   9.482  0.00  0.00    -0.081 HD
ENDROOT
BRANCH   2  11
ATOM     11  C   UNL     1       0.384  -3.267   5.786  0.00  0.00    +0.244 C 
ATOM     12  O   UNL     1       1.531  -3.671   5.749  0.00  0.00    -0.270 OA
ATOM     13  N   UNL     1      -0.641  -4.136   5.689  0.00  0.00    -0.325 N 
ATOM     14  H   UNL     1      -1.555  -3.814   5.718  0.00  0.00    +0.145 HD
ATOM     15  H   UNL     1      -0.464  -5.085   5.589  0.00  0.00    +0.145 HD
ENDBRANCH   2  11
BRANCH   1  18
ATOM     16  C   UNL     1      -0.058  -0.394   2.546  0.00  0.00    +0.267 C 
ATOM     17  O   UNL     1      -0.176   0.773   2.865  0.00  0.00    -0.268 OA
ATOM     18  N   UNL     1       0.087  -1.341   3.494  0.00  0.00    -0.274 N 
ATOM     19  H   UNL     1       0.258  -2.261   3.239  0.00  0.00    +0.156 HD
BRANCH  16  25
ATOM     20  C   UNL     1       2.458  -0.571   0.607  0.00  0.00    +0.048 C 
ATOM     21  C   UNL     1       1.015  -0.853   0.274  0.00  0.00    -0.001 A 
ATOM     22  C   UNL     1       0.494  -1.256  -0.958  0.00  0.00    +0.138 A 
ATOM     23  N   UNL     1      -0.801  -1.391  -0.821  0.00  0.00    -0.179 NA
ATOM     24  N   UNL     1      -1.167  -1.114   0.379  0.00  0.00    -0.262 N 
ATOM     25  C   UNL     1      -0.074  -0.773   1.125  0.00  0.00    +0.126 A 
ATOM     26  C   UNL     1      -2.545  -1.163   0.874  0.00  0.00    +0.173 C 
ENDBRANCH  16  25
ENDBRANCH   1  18
BRANCH   7  27
ATOM     27  C   UNL     1      -0.708   0.969  10.792  0.00  0.00    -0.074 C 
ATOM     28  C   UNL     1      -1.688   2.135  10.640  0.00  0.00    -0.014 C 
ATOM     29  C   UNL     1      -1.112   0.116  11.995  0.00  0.00    -0.014 C 
ENDBRANCH   7  27
TORSDOF 4
