REMARK  Name = ZINC65602216
REMARK  11 active torsions:
REMARK  status: ('A' for Active; 'I' for Inactive)
REMARK    1  A    between atoms: C_1  and  C_2
REMARK    2  A    between atoms: C_2  and  N_3
REMARK    3  A    between atoms: N_3  and  C_4
REMARK    4  A    between atoms: N_3  and  C_6
REMARK    5  A    between atoms: C_4  and  C_5
REMARK    6  A    between atoms: C_6  and  C_7
REMARK    7  A    between atoms: C_6  and  C_22
REMARK    8  A    between atoms: C_7  and  N_8
REMARK    9  A    between atoms: C_9  and  C_11
REMARK   10  A    between atoms: N_13  and  C_14
REMARK   11  A    between atoms: C_15  and  C_19
REMARK                            x       y       z     vdW  Elec       q    Type
REMARK                         _______ _______ _______ _____ _____    ______ ____
ROOT
ATOM      1  N   UNL     1       2.402  -2.167  -2.670  0.00  0.00    -0.309 N 
ATOM      2  C   UNL     1       2.996  -2.499  -3.833  0.00  0.00    +0.299 C 
ATOM      3  O   UNL     1       2.337  -2.957  -4.743  0.00  0.00    -0.265 OA
ATOM      4  H   UNL     1       2.914  -1.734  -1.970  0.00  0.00    +0.149 HD
ENDROOT
BRANCH   2   5
ATOM      5  C   UNL     1       4.467  -2.305  -4.001  0.00  0.00    +0.304 C 
ATOM      6  O   UNL     1       5.142  -1.935  -3.063  0.00  0.00    -0.265 OA
ATOM      7  N   UNL     1       5.045  -2.540  -5.196  0.00  0.00    -0.272 N 
ATOM      8  H   UNL     1       4.506  -2.836  -5.946  0.00  0.00    +0.156 HD
BRANCH   7   9
ATOM      9  C   UNL     1       6.409  -2.360  -5.352  0.00  0.00    +0.084 A 
ATOM     10  C   UNL     1       7.168  -2.546  -6.499  0.00  0.00    +0.065 A 
ATOM     11  C   UNL     1       8.584  -2.284  -6.386  0.00  0.00    +0.022 A 
ATOM     12  C   UNL     1       9.012  -1.886  -5.173  0.00  0.00    +0.048 A 
ATOM     13  S   UNL     1       7.521  -1.858  -4.201  0.00  0.00    -0.081 S 
BRANCH  10  14
ATOM     14  C   UNL     1       6.564  -2.987  -7.761  0.00  0.00    +0.244 C 
ATOM     15  O   UNL     1       5.367  -3.199  -7.821  0.00  0.00    -0.270 OA
ATOM     16  N   UNL     1       7.334  -3.157  -8.854  0.00  0.00    -0.325 N 
ATOM     17  H   UNL     1       8.288  -2.987  -8.806  0.00  0.00    +0.145 HD
ATOM     18  H   UNL     1       6.934  -3.448  -9.688  0.00  0.00    +0.145 HD
ENDBRANCH  10  14
ENDBRANCH   7   9
ENDBRANCH   2   5
BRANCH   1  19
ATOM     19  C   UNL     1       0.981  -2.459  -2.464  0.00  0.00    +0.097 C 
BRANCH  19  20
ATOM     20  C   UNL     1       0.527  -1.869  -1.127  0.00  0.00    +0.016 C 
BRANCH  20  21
ATOM     21  C   UNL     1      -0.957  -2.075  -0.965  0.00  0.00    +0.093 A 
ATOM     22  C   UNL     1      -1.544  -2.932  -0.110  0.00  0.00    +0.043 A 
ATOM     23  C   UNL     1      -2.939  -2.798  -0.290  0.00  0.00    +0.041 A 
ATOM     24  C   UNL     1      -3.122  -1.868  -1.245  0.00  0.00    +0.195 A 
ATOM     25  O   UNL     1      -1.918  -1.429  -1.645  0.00  0.00    -0.469 OA
ENDBRANCH  20  21
BRANCH  20  26
ATOM     26  N   UNL     1       0.829  -0.432  -1.099  0.00  0.00    +0.387 N 
ATOM     27  H   UNL     1       1.824  -0.295  -1.193  0.00  0.00    -0.081 HD
BRANCH  26  29
ATOM     28  C   UNL     1       0.571   1.701  -2.274  0.00  0.00    -0.017 C 
ATOM     29  C   UNL     1       0.135   0.236  -2.208  0.00  0.00    -0.081 C 
ENDBRANCH  26  29
BRANCH  26  30
ATOM     30  C   UNL     1       0.376   0.138   0.177  0.00  0.00    -0.081 C 
ATOM     31  C   UNL     1       1.208  -0.444   1.321  0.00  0.00    -0.017 C 
ENDBRANCH  26  30
ENDBRANCH  20  26
ENDBRANCH  19  20
ENDBRANCH   1  19
TORSDOF 9
