REMARK  Name = ZINC43883271
REMARK  7 active torsions:
REMARK  status: ('A' for Active; 'I' for Inactive)
REMARK    1  A    between atoms: C_1  and  C_2
REMARK    2  A    between atoms: C_2  and  C_3
REMARK    3  A    between atoms: C_7  and  N_21
REMARK    4  A    between atoms: C_9  and  N_12
REMARK    5  A    between atoms: C_17  and  C_19
REMARK    6  A    between atoms: C_19  and  C_20
REMARK    7  A    between atoms: N_21  and  C_22
REMARK                            x       y       z     vdW  Elec       q    Type
REMARK                         _______ _______ _______ _____ _____    ______ ____
ROOT
ATOM      1  C   UNL     1      -1.112  -0.636   0.769  0.00  0.00    -0.013 C 
ATOM      2  C   UNL     1      -2.373  -0.301  -0.029  0.00  0.00    +0.002 C 
ATOM      3  C   UNL     1      -2.158  -0.662  -1.500  0.00  0.00    -0.017 C 
ATOM      4  C   UNL     1      -1.861  -2.158  -1.620  0.00  0.00    -0.086 C 
ATOM      5  C   UNL     1      -0.600  -2.493  -0.822  0.00  0.00    -0.082 C 
ATOM      6  C   UNL     1      -0.816  -2.132   0.649  0.00  0.00    -0.013 C 
ENDROOT
BRANCH   5   7
ATOM      7  N   UNL     1      -0.315  -3.930  -0.937  0.00  0.00    +0.382 N 
ATOM      8  C   UNL     1      -1.578  -4.671  -1.034  0.00  0.00    -0.078 C 
ATOM      9  C   UNL     1      -1.291  -6.174  -1.072  0.00  0.00    -0.019 C 
ATOM     10  C   UNL     1      -0.417  -6.490  -2.289  0.00  0.00    -0.003 C 
ATOM     11  C   UNL     1       0.865  -5.655  -2.216  0.00  0.00    -0.015 C 
ATOM     12  C   UNL     1       0.497  -4.172  -2.135  0.00  0.00    -0.069 C 
ATOM     13  H   UNL     1       0.192  -4.238  -0.120  0.00  0.00    -0.081 HD
BRANCH  12  14
ATOM     14  C   UNL     1       1.776  -3.334  -2.062  0.00  0.00    -0.019 C 
ATOM     15  C   UNL     1       2.618  -3.578  -3.316  0.00  0.00    +0.002 C 
ENDBRANCH  12  14
ENDBRANCH   5   7
BRANCH   4  16
ATOM     16  N   UNL     1      -1.654  -2.505  -3.032  0.00  0.00    +0.378 N 
ATOM     17  C   UNL     1      -2.853  -2.153  -3.804  0.00  0.00    -0.100 C 
ATOM     18  H   UNL     1      -0.861  -1.994  -3.391  0.00  0.00    -0.086 HD
ATOM     19  H   UNL     1      -1.480  -3.495  -3.114  0.00  0.00    -0.086 HD
ENDBRANCH   4  16
BRANCH   1  21
ATOM     20  C   UNL     1      -0.172   1.656   0.448  0.00  0.00    +0.004 C 
ATOM     21  C   UNL     1       0.069   0.164   0.215  0.00  0.00    -0.000 C 
ENDBRANCH   1  21
TORSDOF 4
