REMARK  Name = ZINC40384476
REMARK  6 active torsions:
REMARK  status: ('A' for Active; 'I' for Inactive)
REMARK    1  A    between atoms: C_1  and  C_2
REMARK    2  A    between atoms: C_5  and  S_7
REMARK    3  A    between atoms: S_7  and  N_10
REMARK    4  A    between atoms: N_10  and  C_11
REMARK    5  A    between atoms: C_14  and  S_18
REMARK    6  A    between atoms: S_18  and  N_21
REMARK                            x       y       z     vdW  Elec       q    Type
REMARK                         _______ _______ _______ _____ _____    ______ ____
ROOT
ATOM      1  C   UNL     1       1.783  -6.020  -1.934  0.00  0.00    +0.088 A 
ATOM      2  C   UNL     1       2.119  -6.912  -0.923  0.00  0.00    +0.030 A 
ATOM      3  C   UNL     1       2.595  -8.168  -1.242  0.00  0.00    +0.030 A 
ATOM      4  C   UNL     1       2.739  -8.539  -2.566  0.00  0.00    +0.106 A 
ATOM      5  C   UNL     1       2.406  -7.655  -3.575  0.00  0.00    +0.045 A 
ATOM      6  C   UNL     1       1.924  -6.398  -3.264  0.00  0.00    +0.044 A 
ATOM      7 BR   UNL     1       1.462  -5.191  -4.644  0.00  0.00    -0.048 Br
ENDROOT
BRANCH   4   8
ATOM      8  S   UNL     1       3.348 -10.143  -2.968  0.00  0.00    +0.056 S 
ATOM      9  O   UNL     1       3.905 -10.051  -4.272  0.00  0.00    -0.153 OA
ATOM     10  O   UNL     1       4.101 -10.584  -1.847  0.00  0.00    -0.153 OA
BRANCH   8  11
ATOM     11  N   UNL     1       2.038 -11.149  -3.083  0.00  0.00    -0.204 NA
ATOM     12  H   UNL     1       2.062 -11.911  -3.684  0.00  0.00    +0.144 HD
ATOM     13  H   UNL     1       1.246 -10.978  -2.550  0.00  0.00    +0.144 HD
ENDBRANCH   8  11
ENDBRANCH   4   8
BRANCH   1  14
ATOM     14  N   UNL     1       1.300  -4.748  -1.614  0.00  0.00    -0.096 NA
BRANCH  14  15
ATOM     15  S   UNL     1       1.134  -4.300  -0.029  0.00  0.00    +0.098 S 
ATOM     16  O   UNL     1       2.445  -4.240   0.516  0.00  0.00    -0.148 OA
ATOM     17  O   UNL     1       0.117  -5.126   0.522  0.00  0.00    -0.148 OA
BRANCH  15  22
ATOM     18  C   UNL     1      -0.018   1.503   0.010  0.00  0.00    +0.051 C 
ATOM     19  C   UNL     1       0.002  -0.004   0.002  0.00  0.00    -0.011 A 
ATOM     20  C   UNL     1      -1.039  -0.872   0.002  0.00  0.00    +0.013 A 
ATOM     21  C   UNL     1      -0.780  -2.230  -0.007  0.00  0.00    +0.037 A 
ATOM     22  C   UNL     1       0.507  -2.653  -0.016  0.00  0.00    +0.148 A 
ATOM     23  S   UNL     1       1.404  -1.109  -0.018  0.00  0.00    -0.073 S 
ENDBRANCH  15  22
ENDBRANCH  14  15
ENDBRANCH   1  14
TORSDOF 5
