REMARK  Name = ZINC00554739
REMARK  6 active torsions:
REMARK  status: ('A' for Active; 'I' for Inactive)
REMARK    1  A    between atoms: C_1  and  C_2
REMARK    2  A    between atoms: C_2  and  C_3
REMARK    3  A    between atoms: C_2  and  C_4
REMARK    4  A    between atoms: C_12  and  N_22
REMARK    5  A    between atoms: C_14  and  C_16
REMARK    6  A    between atoms: N_22  and  N_23
REMARK                            x       y       z     vdW  Elec       q    Type
REMARK                         _______ _______ _______ _____ _____    ______ ____
ROOT
ATOM      1  C   UNL     1      -1.881  -3.739  -1.387  0.00  0.00    +0.126 C 
ATOM      2  C   UNL     1      -0.952  -2.584  -1.002  0.00  0.00    +0.068 C 
ATOM      3  C   UNL     1      -0.097  -3.037   0.179  0.00  0.00    -0.020 A 
ATOM      4  C   UNL     1       0.011  -4.355   0.457  0.00  0.00    +0.021 A 
ATOM      5  S   UNL     1       1.068  -4.444   1.874  0.00  0.00    -0.071 S 
ATOM      6  C   UNL     1       1.367  -2.708   2.092  0.00  0.00    +0.114 A 
ATOM      7  C   UNL     1       0.627  -2.113   1.048  0.00  0.00    +0.052 A 
ATOM      8  C   UNL     1       0.690  -0.692   0.986  0.00  0.00    +0.145 A 
ATOM      9  N   UNL     1       1.417  -0.037   1.874  0.00  0.00    -0.211 NA
ATOM     10  C   UNL     1       2.086  -0.662   2.837  0.00  0.00    +0.163 A 
ATOM     11  N   UNL     1       2.064  -1.985   2.944  0.00  0.00    -0.220 NA
ATOM     12  C   UNL     1      -0.640  -5.475  -0.295  0.00  0.00    +0.203 C 
ATOM     13  O   UNL     1      -1.129  -4.946  -1.538  0.00  0.00    -0.371 OA
ENDROOT
BRANCH  10  14
ATOM     14  C   UNL     1       2.878   0.132   3.807  0.00  0.00    +0.019 A 
ATOM     15  C   UNL     1       2.917   1.522   3.706  0.00  0.00    +0.011 A 
ATOM     16  C   UNL     1       3.651   2.257   4.614  0.00  0.00    +0.001 A 
ATOM     17  C   UNL     1       4.358   1.616   5.616  0.00  0.00    +0.000 A 
ATOM     18  C   UNL     1       4.327   0.237   5.718  0.00  0.00    +0.001 A 
ATOM     19  C   UNL     1       3.592  -0.508   4.819  0.00  0.00    +0.011 A 
ENDBRANCH  10  14
BRANCH   1  21
ATOM     20  C   UNL     1      -3.523  -4.554  -3.084  0.00  0.00    +0.010 C 
ATOM     21  C   UNL     1      -2.581  -3.409  -2.706  0.00  0.00    +0.012 C 
ATOM     22  C   UNL     1      -3.386  -2.118  -2.547  0.00  0.00    +0.010 C 
ENDBRANCH   1  21
BRANCH   8  23
ATOM     23  N   UNL     1       0.002  -0.004   0.002  0.00  0.00    -0.267 N 
ATOM     24  H   UNL     1      -0.402  -0.487  -0.736  0.00  0.00    +0.167 HD
BRANCH  23  25
ATOM     25  N   UNL     1      -0.108   1.356   0.070  0.00  0.00    -0.255 NA
ATOM     26  H   UNL     1       0.801   1.790   0.124  0.00  0.00    +0.140 HD
ATOM     27  H   UNL     1      -0.634   1.715  -0.713  0.00  0.00    +0.140 HD
ENDBRANCH  23  25
ENDBRANCH   8  23
TORSDOF 4
