REMARK  Name = ZINC56181749
REMARK  13 active torsions:
REMARK  status: ('A' for Active; 'I' for Inactive)
REMARK    1  A    between atoms: C_1  and  C_2
REMARK    2  A    between atoms: C_2  and  C_4
REMARK    3  A    between atoms: C_2  and  N_14
REMARK    4  A    between atoms: C_7  and  O_12
REMARK    5  A    between atoms: C_8  and  O_10
REMARK    6  A    between atoms: O_10  and  C_11
REMARK    7  A    between atoms: O_12  and  C_13
REMARK    8  A    between atoms: N_14  and  C_15
REMARK    9  A    between atoms: C_15  and  C_17
REMARK   10  A    between atoms: C_15  and  C_18
REMARK   11  A    between atoms: N_20  and  C_21
REMARK   12  A    between atoms: C_25  and  C_27
REMARK   13  A    between atoms: N_29  and  C_30
REMARK                            x       y       z     vdW  Elec       q    Type
REMARK                         _______ _______ _______ _____ _____    ______ ____
ROOT
ATOM      1  C   UNL     1      -0.148  -0.293   2.440  0.00  0.00    +0.014 C 
ATOM      2  C   UNL     1      -0.433   1.210   2.401  0.00  0.00    -0.004 C 
ENDROOT
BRANCH   1   3
ATOM      3  C   UNL     1       0.499  -0.648   3.753  0.00  0.00    +0.203 C 
ATOM      4  O   UNL     1       1.604  -1.149   3.769  0.00  0.00    -0.277 OA
ATOM      5  N   UNL     1      -0.148  -0.410   4.911  0.00  0.00    -0.287 N 
ATOM      6  H   UNL     1      -1.061  -0.081   4.897  0.00  0.00    +0.155 HD
BRANCH   5   7
ATOM      7  C   UNL     1       0.495  -0.637   6.133  0.00  0.00    +0.034 A 
ATOM      8  C   UNL     1      -0.234  -1.078   7.231  0.00  0.00    +0.023 A 
ATOM      9  C   UNL     1       0.396  -1.304   8.440  0.00  0.00    +0.003 A 
ATOM     10  C   UNL     1       1.755  -1.094   8.565  0.00  0.00    +0.013 A 
ATOM     11  C   UNL     1       2.496  -0.652   7.468  0.00  0.00    +0.038 A 
ATOM     12  C   UNL     1       1.861  -0.429   6.246  0.00  0.00    +0.036 A 
BRANCH  11  13
ATOM     13  C   UNL     1       3.951  -0.425   7.599  0.00  0.00    +0.244 C 
ATOM     14  O   UNL     1       4.595  -0.041   6.642  0.00  0.00    -0.270 OA
ATOM     15  N   UNL     1       4.564  -0.646   8.779  0.00  0.00    -0.314 N 
ATOM     16  C   UNL     1       6.006  -0.422   8.909  0.00  0.00    +0.128 C 
ATOM     17  H   UNL     1       4.051  -0.954   9.542  0.00  0.00    +0.149 HD
ENDBRANCH  11  13
ENDBRANCH   5   7
ENDBRANCH   1   3
BRANCH   1  18
ATOM     18  N   UNL     1       0.754  -0.649   1.337  0.00  0.00    +0.391 N 
ATOM     19  H   UNL     1       1.018  -1.620   1.418  0.00  0.00    -0.084 HD
ATOM     20  H   UNL     1       1.580  -0.071   1.377  0.00  0.00    -0.084 HD
BRANCH  18  22
ATOM     21  C   UNL     1       1.051  -0.668  -1.094  0.00  0.00    -0.009 C 
ATOM     22  C   UNL     1       0.068  -0.434   0.055  0.00  0.00    -0.043 C 
BRANCH  22  23
ATOM     23  C   UNL     1      -1.084  -1.398  -0.066  0.00  0.00    -0.058 A 
ATOM     24  C   UNL     1      -0.943  -2.701   0.372  0.00  0.00    +0.006 A 
ATOM     25  C   UNL     1      -1.997  -3.589   0.263  0.00  0.00    +0.049 A 
ATOM     26  C   UNL     1      -3.199  -3.172  -0.286  0.00  0.00    +0.161 A 
ATOM     27  C   UNL     1      -3.342  -1.860  -0.726  0.00  0.00    +0.162 A 
ATOM     28  C   UNL     1      -2.283  -0.974  -0.610  0.00  0.00    +0.051 A 
BRANCH  27  29
ATOM     29  O   UNL     1      -4.520  -1.446  -1.266  0.00  0.00    -0.491 OA
ATOM     30  C   UNL     1      -4.594  -0.086  -1.696  0.00  0.00    +0.277 C 
ENDBRANCH  27  29
BRANCH  26  31
ATOM     31  O   UNL     1      -4.237  -4.044  -0.394  0.00  0.00    -0.491 OA
ATOM     32  C   UNL     1      -4.019  -5.375   0.078  0.00  0.00    +0.277 C 
ENDBRANCH  26  31
ENDBRANCH  22  23
ENDBRANCH  18  22
ENDBRANCH   1  18
TORSDOF 8
