REMARK  Name = ZINC20563216
REMARK  4 active torsions:
REMARK  status: ('A' for Active; 'I' for Inactive)
REMARK    1  A    between atoms: C_4  and  N_7
REMARK    2  A    between atoms: N_7  and  C_8
REMARK    3  A    between atoms: N_7  and  C_16
REMARK    4  A    between atoms: C_8  and  C_9
REMARK                            x       y       z     vdW  Elec       q    Type
REMARK                         _______ _______ _______ _____ _____    ______ ____
ROOT
ATOM      1  N   UNL     1      -4.866   1.363   1.504  0.00  0.00    +0.382 N 
ATOM      2  H   UNL     1      -4.039   0.879   2.045  0.00  0.00    -0.081 HD
ENDROOT
BRANCH   1   6
ATOM      3  C   UNL     1      -5.212   5.607   1.817  0.00  0.00    -0.000 C 
ATOM      4  C   UNL     1      -4.026   4.926   2.502  0.00  0.00    -0.002 C 
ATOM      5  C   UNL     1      -3.812   3.539   1.891  0.00  0.00    -0.015 C 
ATOM      6  C   UNL     1      -5.071   2.694   2.091  0.00  0.00    -0.068 C 
ATOM      7  C   UNL     1      -6.258   3.375   1.407  0.00  0.00    -0.015 C 
ATOM      8  C   UNL     1      -6.472   4.762   2.018  0.00  0.00    -0.002 C 
ENDBRANCH   1   6
BRANCH   1   9
ATOM      9  C   UNL     1      -6.062   0.526   1.666  0.00  0.00    -0.068 C 
ATOM     10  C   UNL     1      -6.531   0.583   3.121  0.00  0.00    -0.015 C 
ATOM     11  C   UNL     1      -7.777  -0.289   3.290  0.00  0.00    -0.002 C 
ATOM     12  C   UNL     1      -7.442  -1.735   2.918  0.00  0.00    -0.000 C 
ATOM     13  C   UNL     1      -6.973  -1.792   1.463  0.00  0.00    -0.002 C 
ATOM     14  C   UNL     1      -5.727  -0.920   1.294  0.00  0.00    -0.015 C 
ENDBRANCH   1   9
BRANCH   1  15
ATOM     15  C   UNL     1      -4.482   1.465   0.090  0.00  0.00    -0.094 C 
BRANCH  15  16
ATOM     16  C   UNL     1      -2.958   1.546  -0.020  0.00  0.00    -0.089 C 
ATOM     17  C   UNL     1      -2.555   1.598  -1.495  0.00  0.00    -0.018 C 
ATOM     18  C   UNL     1      -1.029   1.659  -1.601  0.00  0.00    -0.003 C 
ATOM     19  C   UNL     1      -0.427   0.441  -0.894  0.00  0.00    -0.019 C 
ATOM     20  C   UNL     1      -0.891   0.421   0.564  0.00  0.00    -0.082 C 
ATOM     21  N   UNL     1      -2.358   0.363   0.611  0.00  0.00    +0.380 N 
ATOM     22  H   UNL     1      -2.673   0.309   1.663  0.00  0.00    -0.086 HD
ATOM     23  H   UNL     1      -2.690  -0.543   0.082  0.00  0.00    -0.086 HD
ENDBRANCH  15  16
ENDBRANCH   1  15
TORSDOF 4
