REMARK  Name = ZINC40053125
REMARK  10 active torsions:
REMARK  status: ('A' for Active; 'I' for Inactive)
REMARK    1  A    between atoms: C_1  and  O_2
REMARK    2  A    between atoms: O_2  and  C_3
REMARK    3  A    between atoms: C_5  and  C_11
REMARK    4  A    between atoms: C_8  and  O_9
REMARK    5  A    between atoms: C_13  and  C_23
REMARK    6  A    between atoms: N_17  and  C_18
REMARK    7  A    between atoms: C_18  and  C_19
REMARK    8  A    between atoms: C_19  and  C_20
REMARK    9  A    between atoms: C_20  and  O_21
REMARK   10  A    between atoms: C_23  and  C_25
REMARK                            x       y       z     vdW  Elec       q    Type
REMARK                         _______ _______ _______ _____ _____    ______ ____
ROOT
ATOM      1  C   UNL     1      -4.568  -0.195  -0.276  0.00  0.00    +0.145 C 
ATOM      2  C   UNL     1      -5.450  -0.085  -1.498  0.00  0.00    +0.079 C 
ATOM      3  C   UNL     1      -6.646  -0.625  -1.167  0.00  0.00    +0.249 C 
ATOM      4  C   UNL     1      -6.597  -1.091   0.234  0.00  0.00    +0.288 C 
ATOM      5  O   UNL     1      -7.516  -1.623   0.824  0.00  0.00    -0.266 OA
ATOM      6  N   UNL     1      -5.383  -0.841   0.760  0.00  0.00    -0.283 N 
ATOM      7  O   UNL     1      -7.717  -0.721  -1.989  0.00  0.00    -0.282 OA
ENDROOT
BRANCH   1  10
ATOM      8  C   UNL     1      -2.403  -3.120  -1.290  0.00  0.00    +0.163 A 
ATOM      9  C   UNL     1      -3.515  -2.344  -1.006  0.00  0.00    +0.055 A 
ATOM     10  C   UNL     1      -3.357  -1.037  -0.584  0.00  0.00    -0.018 A 
ATOM     11  C   UNL     1      -2.091  -0.501  -0.444  0.00  0.00    +0.025 A 
ATOM     12  C   UNL     1      -0.976  -1.270  -0.726  0.00  0.00    +0.063 A 
ATOM     13  C   UNL     1      -1.128  -2.583  -1.144  0.00  0.00    +0.173 A 
ATOM     14 BR   UNL     1       0.755  -0.532  -0.535  0.00  0.00    -0.046 Br
BRANCH   8  16
ATOM     15  C   UNL     1      -3.893  -4.856  -1.939  0.00  0.00    +0.277 C 
ATOM     16  O   UNL     1      -2.557  -4.406  -1.706  0.00  0.00    -0.491 OA
ENDBRANCH   8  16
BRANCH  13  17
ATOM     17  O   UNL     1      -0.033  -3.343  -1.416  0.00  0.00    -0.503 OA
ATOM     18  H   UNL     1       0.265  -3.289  -2.334  0.00  0.00    +0.292 HD
ENDBRANCH  13  17
ENDBRANCH   1  10
BRANCH   2  19
ATOM     19  C   UNL     1      -5.080   0.494  -2.795  0.00  0.00    +0.230 C 
ATOM     20  O   UNL     1      -5.843   0.407  -3.740  0.00  0.00    -0.283 OA
BRANCH  19  21
ATOM     21  C   UNL     1      -3.790   1.179  -2.952  0.00  0.00    +0.176 A 
ATOM     22  C   UNL     1      -3.287   1.641  -4.129  0.00  0.00    +0.061 A 
ATOM     23  C   UNL     1      -1.995   2.244  -3.808  0.00  0.00    +0.021 A 
ATOM     24  C   UNL     1      -1.003   2.880  -4.559  0.00  0.00    +0.011 A 
ATOM     25  C   UNL     1       0.122   3.345  -3.939  0.00  0.00    +0.001 A 
ATOM     26  C   UNL     1       0.286   3.189  -2.569  0.00  0.00    +0.004 A 
ATOM     27  C   UNL     1      -0.680   2.564  -1.810  0.00  0.00    +0.047 A 
ATOM     28  C   UNL     1      -1.833   2.083  -2.418  0.00  0.00    +0.136 A 
ATOM     29  O   UNL     1      -2.928   1.450  -1.951  0.00  0.00    -0.452 OA
ENDBRANCH  19  21
ENDBRANCH   2  19
BRANCH   6  30
ATOM     30  C   UNL     1      -4.950  -1.158   2.123  0.00  0.00    +0.111 C 
BRANCH  30  31
ATOM     31  C   UNL     1      -5.258   0.024   3.044  0.00  0.00    +0.047 C 
BRANCH  31  32
ATOM     32  C   UNL     1      -4.806  -0.307   4.468  0.00  0.00    +0.157 C 
BRANCH  32  33
ATOM     33  O   UNL     1      -5.094   0.797   5.328  0.00  0.00    -0.395 OA
ATOM     34  H   UNL     1      -4.834   0.657   6.249  0.00  0.00    +0.209 HD
ENDBRANCH  32  33
ENDBRANCH  31  32
ENDBRANCH  30  31
ENDBRANCH   6  30
TORSDOF 9
