REMARK  Name = ZINC09305262
REMARK  15 active torsions:
REMARK  status: ('A' for Active; 'I' for Inactive)
REMARK    1  A    between atoms: C_1  and  C_2
REMARK    2  A    between atoms: C_2  and  N_3
REMARK    3  A    between atoms: C_4  and  C_23
REMARK    4  A    between atoms: C_7  and  S_8
REMARK    5  A    between atoms: S_8  and  C_9
REMARK    6  A    between atoms: C_9  and  C_10
REMARK    7  A    between atoms: N_12  and  C_13
REMARK    8  A    between atoms: C_16  and  N_20
REMARK    9  A    between atoms: C_18  and  C_19
REMARK   10  A    between atoms: C_23  and  N_24
REMARK   11  A    between atoms: C_25  and  C_27
REMARK   12  A    between atoms: C_30  and  O_35
REMARK   13  A    between atoms: C_31  and  O_33
REMARK   14  A    between atoms: O_33  and  C_34
REMARK   15  A    between atoms: O_35  and  C_36
REMARK                            x       y       z     vdW  Elec       q    Type
REMARK                         _______ _______ _______ _____ _____    ______ ____
ROOT
ATOM      1  N   UNL     1      -6.741   2.397  -1.020  0.00  0.00    -0.305 N 
ATOM      2  C   UNL     1      -6.125   2.930   0.079  0.00  0.00    +0.151 A 
ATOM      3  N   UNL     1      -6.695   2.415   1.131  0.00  0.00    -0.132 NA
ATOM      4  N   UNL     1      -7.619   1.595   0.776  0.00  0.00    -0.122 NA
ATOM      5  C   UNL     1      -7.689   1.543  -0.534  0.00  0.00    +0.192 A 
ENDROOT
BRANCH   1   7
ATOM      6  C   UNL     1      -5.380   1.702  -2.930  0.00  0.00    +0.027 C 
ATOM      7  C   UNL     1      -6.443   2.681  -2.426  0.00  0.00    +0.122 C 
ENDBRANCH   1   7
BRANCH   5   8
ATOM      8  S   UNL     1      -8.800   0.561  -1.485  0.00  0.00    -0.077 S 
BRANCH   8   9
ATOM      9  C   UNL     1      -9.712  -0.261  -0.155  0.00  0.00    +0.173 C 
BRANCH   9  10
ATOM     10  C   UNL     1     -10.749  -1.179  -0.749  0.00  0.00    +0.227 C 
ATOM     11  O   UNL     1     -10.860  -1.269  -1.953  0.00  0.00    -0.275 OA
ATOM     12  N   UNL     1     -11.552  -1.900   0.059  0.00  0.00    -0.285 N 
ATOM     13  H   UNL     1     -11.410  -1.890   1.018  0.00  0.00    +0.155 HD
BRANCH  12  14
ATOM     14  C   UNL     1     -12.589  -2.663  -0.487  0.00  0.00    +0.036 A 
ATOM     15  C   UNL     1     -13.134  -2.318  -1.717  0.00  0.00    +0.026 A 
ATOM     16  C   UNL     1     -14.158  -3.074  -2.254  0.00  0.00    +0.034 A 
ATOM     17  C   UNL     1     -14.641  -4.173  -1.567  0.00  0.00    +0.127 A 
ATOM     18  C   UNL     1     -14.101  -4.519  -0.343  0.00  0.00    +0.038 A 
ATOM     19  C   UNL     1     -13.073  -3.771   0.196  0.00  0.00    -0.027 A 
ATOM     20  C   UNL     1     -12.480  -4.153   1.528  0.00  0.00    +0.046 C 
BRANCH  17  21
ATOM     21  N   UNL     1     -15.739  -4.981  -2.145  0.00  0.00    +0.056 N 
ATOM     22  O   UNL     1     -16.216  -4.677  -3.224  0.00  0.00    -0.126 OA
ATOM     23  O   UNL     1     -16.165  -5.949  -1.542  0.00  0.00    -0.126 OA
ENDBRANCH  17  21
ENDBRANCH  12  14
ENDBRANCH   9  10
ENDBRANCH   8   9
ENDBRANCH   5   8
BRANCH   2  24
ATOM     24  C   UNL     1      -4.999   3.932   0.073  0.00  0.00    +0.181 C 
BRANCH  24  25
ATOM     25  N   UNL     1      -3.716   3.225   0.064  0.00  0.00    -0.304 N 
ATOM     26  C   UNL     1      -2.563   3.923   0.058  0.00  0.00    +0.245 C 
ATOM     27  O   UNL     1      -2.587   5.138   0.060  0.00  0.00    -0.270 OA
ATOM     28  H   UNL     1      -3.696   2.256   0.062  0.00  0.00    +0.149 HD
BRANCH  26  29
ATOM     29  C   UNL     1      -1.270   3.211   0.048  0.00  0.00    +0.040 A 
ATOM     30  C   UNL     1      -1.240   1.814   0.039  0.00  0.00    +0.017 A 
ATOM     31  C   UNL     1      -0.032   1.151   0.036  0.00  0.00    +0.050 A 
ATOM     32  C   UNL     1       1.157   1.868   0.030  0.00  0.00    +0.162 A 
ATOM     33  C   UNL     1       1.134   3.261   0.033  0.00  0.00    +0.162 A 
ATOM     34  C   UNL     1      -0.073   3.932   0.042  0.00  0.00    +0.062 A 
BRANCH  33  35
ATOM     35  O   UNL     1       2.301   3.961   0.027  0.00  0.00    -0.491 OA
ATOM     36  C   UNL     1       2.203   5.386   0.030  0.00  0.00    +0.277 C 
ENDBRANCH  33  35
BRANCH  32  37
ATOM     37  O   UNL     1       2.345   1.209   0.022  0.00  0.00    -0.491 OA
ATOM     38  C   UNL     1       2.295  -0.219   0.019  0.00  0.00    +0.277 C 
ENDBRANCH  32  37
ENDBRANCH  26  29
ENDBRANCH  24  25
ENDBRANCH   2  24
TORSDOF 11
