REMARK  Name = ZINC13397806
REMARK  3 active torsions:
REMARK  status: ('A' for Active; 'I' for Inactive)
REMARK    1  A    between atoms: C_1  and  C_2
REMARK    2  A    between atoms: C_14  and  O_18
REMARK    3  A    between atoms: C_16  and  O_17
REMARK                            x       y       z     vdW  Elec       q    Type
REMARK                         _______ _______ _______ _____ _____    ______ ____
ROOT
ATOM      1  C   UNL     1       1.653   0.570   1.791  0.00  0.00    +0.052 C 
ATOM      2  C   UNL     1       1.151  -0.537   0.861  0.00  0.00    +0.174 C 
ATOM      3  C   UNL     1       0.077   0.025  -0.073  0.00  0.00    +0.052 C 
ATOM      4  C   UNL     1       0.128   1.548  -0.102  0.00  0.00    +0.078 C 
ATOM      5  C   UNL     1       1.545   2.048  -0.048  0.00  0.00    +0.106 A 
ATOM      6  C   UNL     1       1.912   3.295   0.317  0.00  0.00    +0.045 A 
ATOM      7  C   UNL     1       3.320   3.338   0.282  0.00  0.00    +0.050 A 
ATOM      8  C   UNL     1       3.740   2.097  -0.108  0.00  0.00    +0.139 A 
ATOM      9  O   UNL     1       2.651   1.355  -0.367  0.00  0.00    -0.460 OA
ATOM     10  C   UNL     1       5.160   1.702  -0.213  0.00  0.00    +0.063 A 
ATOM     11  C   UNL     1       5.566   0.391  -0.454  0.00  0.00    -0.019 A 
ATOM     12  C   UNL     1       6.918   0.097  -0.534  0.00  0.00    +0.050 A 
ATOM     13  C   UNL     1       7.870   1.093  -0.378  0.00  0.00    +0.121 A 
ATOM     14  C   UNL     1       7.474   2.401  -0.141  0.00  0.00    +0.091 A 
ATOM     15  C   UNL     1       6.131   2.709  -0.058  0.00  0.00    +0.131 A 
ATOM     16  C   UNL     1       4.589  -0.738  -0.635  0.00  0.00    +0.156 C 
ATOM     17  C   UNL     1       3.498  -0.671   0.397  0.00  0.00    +0.312 C 
ATOM     18  O   UNL     1       3.740  -0.297   1.520  0.00  0.00    -0.250 OA
ATOM     19  O   UNL     1       2.252  -1.032   0.058  0.00  0.00    -0.461 OA
ENDROOT
BRANCH  15  20
ATOM     20  O   UNL     1       5.744   3.991   0.173  0.00  0.00    -0.506 OA
ATOM     21  H   UNL     1       5.651   4.210   1.111  0.00  0.00    +0.292 HD
ENDBRANCH  15  20
BRANCH  13  22
ATOM     22  O   UNL     1       9.191   0.787  -0.458  0.00  0.00    -0.507 OA
ATOM     23  H   UNL     1       9.591   0.546   0.388  0.00  0.00    +0.292 HD
ENDBRANCH  13  22
TORSDOF 2
