REMARK  Name = ZINC02127075
REMARK  7 active torsions:
REMARK  status: ('A' for Active; 'I' for Inactive)
REMARK    1  A    between atoms: C_1  and  C_2
REMARK    2  A    between atoms: C_7  and  C_8
REMARK    3  A    between atoms: C_17  and  C_19
REMARK    4  A    between atoms: C_19  and  C_20
REMARK    5  A    between atoms: C_20  and  C_21
REMARK    6  A    between atoms: N_26  and  C_29
REMARK    7  A    between atoms: C_29  and  C_30
REMARK                            x       y       z     vdW  Elec       q    Type
REMARK                         _______ _______ _______ _____ _____    ______ ____
ROOT
ATOM      1  C   UNL     1       2.258  -0.902   1.271  0.00  0.00    +0.044 C 
ATOM      2  C   UNL     1       1.108   0.051   1.070  0.00  0.00    -0.046 A 
ATOM      3  C   UNL     1       1.357   1.394   0.854  0.00  0.00    +0.004 A 
ATOM      4  C   UNL     1       0.302   2.270   0.672  0.00  0.00    +0.005 A 
ATOM      5  C   UNL     1      -0.994   1.804   0.704  0.00  0.00    -0.027 A 
ATOM      6  C   UNL     1      -1.257   0.455   0.920  0.00  0.00    +0.039 A 
ATOM      7  C   UNL     1      -0.188  -0.420   1.104  0.00  0.00    -0.026 A 
ATOM      8  C   UNL     1      -0.449  -1.885   1.339  0.00  0.00    +0.046 C 
ATOM      9  N   UNL     1      -2.634   0.223   0.910  0.00  0.00    -0.286 N 
ATOM     10  C   UNL     1      -3.337   1.352   0.694  0.00  0.00    +0.211 C 
ATOM     11  O   UNL     1      -4.544   1.452   0.632  0.00  0.00    -0.277 OA
ATOM     12  C   UNL     1      -2.334   2.462   0.541  0.00  0.00    +0.050 C 
ATOM     13  C   UNL     1      -2.458   3.154  -0.823  0.00  0.00    +0.088 C 
ATOM     14  C   UNL     1      -3.305   4.426  -0.540  0.00  0.00    +0.073 C 
ATOM     15  C   UNL     1      -3.620   4.365   0.970  0.00  0.00    -0.057 C 
ATOM     16  C   UNL     1      -2.336   5.556  -0.803  0.00  0.00    +0.224 C 
ATOM     17  O   UNL     1      -2.588   6.736  -0.689  0.00  0.00    -0.275 OA
ATOM     18  N   UNL     1      -1.156   5.051  -1.181  0.00  0.00    -0.237 N 
ATOM     19  C   UNL     1      -1.114   3.715  -1.230  0.00  0.00    +0.225 C 
ATOM     20  O   UNL     1      -0.148   3.055  -1.551  0.00  0.00    -0.275 OA
ATOM     21  H   UNL     1      -3.038  -0.649   1.042  0.00  0.00    +0.155 HD
ATOM     22  N   UNL     1      -2.563   3.512   1.518  0.00  0.00    +0.394 N 
ATOM     23  H   UNL     1      -1.706   4.058   1.661  0.00  0.00    -0.083 HD
ATOM     24  H   UNL     1      -2.864   3.106   2.412  0.00  0.00    -0.083 HD
ENDROOT
BRANCH  15  25
ATOM     25  C   UNL     1      -3.578   5.768   1.579  0.00  0.00    -0.006 C 
BRANCH  25  26
ATOM     26  C   UNL     1      -3.939   5.690   3.064  0.00  0.00    +0.094 C 
BRANCH  26  27
ATOM     27  C   UNL     1      -3.898   7.072   3.664  0.00  0.00    +0.210 C 
ATOM     28  O   UNL     1      -3.607   8.025   2.973  0.00  0.00    -0.276 OA
ATOM     29  N   UNL     1      -4.183   7.248   4.970  0.00  0.00    -0.329 N 
ATOM     30  H   UNL     1      -4.415   6.486   5.522  0.00  0.00    +0.145 HD
ATOM     31  H   UNL     1      -4.156   8.137   5.356  0.00  0.00    +0.145 HD
ENDBRANCH  26  27
ENDBRANCH  25  26
ENDBRANCH  15  25
BRANCH  18  32
ATOM     32  C   UNL     1      -0.004   5.892  -1.514  0.00  0.00    +0.153 C 
BRANCH  32  33
ATOM     33  C   UNL     1      -0.116   6.355  -2.943  0.00  0.00    -0.011 A 
ATOM     34  C   UNL     1      -0.670   7.589  -3.229  0.00  0.00    +0.006 A 
ATOM     35  C   UNL     1      -0.774   8.014  -4.540  0.00  0.00    +0.000 A 
ATOM     36  C   UNL     1      -0.323   7.205  -5.567  0.00  0.00    +0.001 A 
ATOM     37  C   UNL     1       0.231   5.971  -5.283  0.00  0.00    +0.020 A 
ATOM     38  C   UNL     1       0.339   5.548  -3.970  0.00  0.00    +0.046 A 
ATOM     39 CL   UNL     1       1.042   4.001  -3.612  0.00  0.00    -0.083 Cl
ENDBRANCH  32  33
ENDBRANCH  18  32
TORSDOF 5
