REMARK  Name = ZINC43423653
REMARK  5 active torsions:
REMARK  status: ('A' for Active; 'I' for Inactive)
REMARK    1  A    between atoms: C_1  and  N_2
REMARK    2  A    between atoms: N_2  and  C_3
REMARK    3  A    between atoms: C_6  and  N_9
REMARK    4  A    between atoms: C_10  and  C_12
REMARK    5  A    between atoms: C_12  and  N_13
REMARK                            x       y       z     vdW  Elec       q    Type
REMARK                         _______ _______ _______ _____ _____    ______ ____
ROOT
ATOM      1  C   UNL     1      -0.073   1.459  -0.019  0.00  0.00    +0.138 C 
ATOM      2  N   UNL     1       0.002  -0.004   0.002  0.00  0.00    -0.273 N 
ATOM      3  C   UNL     1       0.043  -0.693  -1.155  0.00  0.00    +0.234 C 
ATOM      4  O   UNL     1       0.009  -1.906  -1.141  0.00  0.00    -0.274 OA
ENDROOT
BRANCH   2   5
ATOM      5  C   UNL     1       0.031  -0.687   1.226  0.00  0.00    +0.036 A 
ATOM      6  C   UNL     1       1.128  -0.557   2.067  0.00  0.00    +0.025 A 
ATOM      7  C   UNL     1       1.157  -1.229   3.272  0.00  0.00    +0.024 A 
ATOM      8  C   UNL     1       0.089  -2.036   3.643  0.00  0.00    +0.025 A 
ATOM      9  C   UNL     1      -1.008  -2.167   2.801  0.00  0.00    +0.024 A 
ATOM     10  C   UNL     1      -1.039  -1.489   1.599  0.00  0.00    +0.025 A 
BRANCH   8  11
ATOM     11  N   UNL     1       0.118  -2.718   4.864  0.00  0.00    -0.358 N 
ATOM     12  H   UNL     1       0.885  -2.628   5.452  0.00  0.00    +0.142 HD
ATOM     13  H   UNL     1      -0.627  -3.282   5.123  0.00  0.00    +0.142 HD
ENDBRANCH   8  11
ENDBRANCH   2   5
BRANCH   3  14
ATOM     14  C   UNL     1       0.132   0.043  -2.468  0.00  0.00    +0.181 C 
BRANCH  14  15
ATOM     15  N   UNL     1       0.163  -0.926  -3.571  0.00  0.00    -0.286 NA
ATOM     16  C   UNL     1      -1.144  -1.601  -3.721  0.00  0.00    +0.113 C 
ATOM     17  C   UNL     1      -1.144  -2.565  -4.904  0.00  0.00    +0.175 C 
ATOM     18  O   UNL     1      -0.657  -1.933  -6.102  0.00  0.00    -0.374 OA
ATOM     19  C   UNL     1       0.635  -1.393  -5.896  0.00  0.00    +0.135 C 
ATOM     20  C   UNL     1       0.483  -0.272  -4.831  0.00  0.00    +0.086 C 
ATOM     21  C   UNL     1       1.814   0.468  -4.909  0.00  0.00    +0.021 C 
ATOM     22  C   UNL     1       2.296   0.293  -6.371  0.00  0.00    +0.004 C 
ATOM     23  C   UNL     1       1.263  -0.640  -7.073  0.00  0.00    +0.033 C 
ENDBRANCH  14  15
ENDBRANCH   3  14
TORSDOF 4
