REMARK  Name = ZINC37637332
REMARK  7 active torsions:
REMARK  status: ('A' for Active; 'I' for Inactive)
REMARK    1  A    between atoms: C_6  and  C_7
REMARK    2  A    between atoms: C_7  and  C_8
REMARK    3  A    between atoms: C_11  and  O_20
REMARK    4  A    between atoms: C_12  and  C_14
REMARK    5  A    between atoms: N_15  and  N_16
REMARK    6  A    between atoms: N_16  and  C_17
REMARK    7  A    between atoms: C_17  and  N_19
REMARK                            x       y       z     vdW  Elec       q    Type
REMARK                         _______ _______ _______ _____ _____    ______ ____
ROOT
ATOM      1  C   UNL     1      -1.738  -1.024  -1.407  0.00  0.00    -0.042 A 
ATOM      2  C   UNL     1      -2.552  -0.104  -2.046  0.00  0.00    +0.007 A 
ATOM      3  C   UNL     1      -2.967  -0.322  -3.346  0.00  0.00    +0.046 A 
ATOM      4  C   UNL     1      -2.571  -1.466  -4.019  0.00  0.00    +0.125 A 
ATOM      5  C   UNL     1      -1.747  -2.400  -3.377  0.00  0.00    +0.036 A 
ATOM      6  C   UNL     1      -1.330  -2.166  -2.065  0.00  0.00    +0.017 A 
ENDROOT
BRANCH   5   7
ATOM      7  C   UNL     1      -1.320  -3.621  -4.083  0.00  0.00    +0.142 C 
ATOM      8  N   UNL     1      -1.707  -3.834  -5.304  0.00  0.00    -0.188 NA
BRANCH   8   9
ATOM      9  N   UNL     1      -1.301  -4.994  -5.975  0.00  0.00    -0.219 N 
ATOM     10  H   UNL     1      -0.731  -5.639  -5.528  0.00  0.00    +0.176 HD
BRANCH   9  11
ATOM     11  C   UNL     1      -1.702  -5.215  -7.243  0.00  0.00    +0.147 C 
ATOM     12  S   UNL     1      -1.206  -6.633  -8.063  0.00  0.00    -0.017 S 
BRANCH  11  13
ATOM     13  N   UNL     1      -2.494  -4.319  -7.864  0.00  0.00    -0.339 N 
ATOM     14  H   UNL     1      -2.776  -3.515  -7.399  0.00  0.00    +0.144 HD
ATOM     15  H   UNL     1      -2.783  -4.478  -8.777  0.00  0.00    +0.144 HD
ENDBRANCH  11  13
ENDBRANCH   9  11
ENDBRANCH   8   9
ENDBRANCH   5   7
BRANCH   4  16
ATOM     16  O   UNL     1      -2.980  -1.682  -5.296  0.00  0.00    -0.506 OA
ATOM     17  H   UNL     1      -2.383  -1.320  -5.966  0.00  0.00    +0.292 HD
ENDBRANCH   4  16
BRANCH   1  18
ATOM     18  C   UNL     1      -1.293  -0.775   0.011  0.00  0.00    +0.070 C 
BRANCH  18  24
ATOM     19  C   UNL     1      -0.017   1.378   0.010  0.00  0.00    +0.005 A 
ATOM     20  C   UNL     1       1.171   2.086   0.002  0.00  0.00    +0.020 A 
ATOM     21  C   UNL     1       2.378   1.410  -0.013  0.00  0.00    +0.041 A 
ATOM     22  C   UNL     1       2.396   0.027  -0.021  0.00  0.00    +0.020 A 
ATOM     23  C   UNL     1       1.208  -0.679  -0.013  0.00  0.00    +0.005 A 
ATOM     24  C   UNL     1       0.002  -0.004   0.002  0.00  0.00    -0.043 A 
ATOM     25 CL   UNL     1       3.870   2.298  -0.023  0.00  0.00    -0.084 Cl
ENDBRANCH  18  24
ENDBRANCH   1  18
TORSDOF 7
