REMARK  Name = ZINC65499168
REMARK  4 active torsions:
REMARK  status: ('A' for Active; 'I' for Inactive)
REMARK    1  A    between atoms: C_1  and  C_2
REMARK    2  A    between atoms: C_5  and  C_12
REMARK    3  A    between atoms: C_17  and  C_22
REMARK    4  A    between atoms: C_22  and  O_23
REMARK                            x       y       z     vdW  Elec       q    Type
REMARK                         _______ _______ _______ _____ _____    ______ ____
ROOT
ATOM      1  C   UNL     1       0.060  -4.281  -0.096  0.00  0.00    -0.015 A 
ATOM      2  C   UNL     1       1.047  -5.006   0.701  0.00  0.00    +0.010 A 
ATOM      3  C   UNL     1       1.113  -6.349   0.699  0.00  0.00    +0.028 A 
ATOM      4  C   UNL     1       0.174  -7.128  -0.122  0.00  0.00    +0.060 A 
ATOM      5  N   UNL     1       0.025  -8.409  -0.302  0.00  0.00    -0.362 N 
ATOM      6  C   UNL     1      -1.086  -8.598  -1.243  0.00  0.00    +0.200 C 
ATOM      7  N   UNL     1      -1.568  -7.255  -1.589  0.00  0.00    -0.362 N 
ATOM      8  C   UNL     1      -0.834  -6.396  -0.935  0.00  0.00    +0.061 A 
ATOM      9  C   UNL     1      -0.847  -4.933  -0.877  0.00  0.00    +0.036 A 
ATOM     10  H   UNL     1       0.553  -9.111   0.109  0.00  0.00    +0.162 HD
ATOM     11  H   UNL     1      -2.298  -7.045  -2.192  0.00  0.00    +0.162 HD
ENDROOT
BRANCH   1  16
ATOM     12  C   UNL     1      -0.018   1.503   0.010  0.00  0.00    +0.046 C 
ATOM     13  C   UNL     1       0.002  -0.004   0.002  0.00  0.00    -0.024 A 
ATOM     14  C   UNL     1       0.006  -0.677  -1.183  0.00  0.00    +0.006 A 
ATOM     15  C   UNL     1       0.025  -2.065  -1.223  0.00  0.00    +0.009 A 
ATOM     16  C   UNL     1       0.040  -2.804  -0.049  0.00  0.00    -0.009 A 
ATOM     17  C   UNL     1       0.037  -2.127   1.194  0.00  0.00    +0.008 A 
ATOM     18  C   UNL     1       0.023  -0.712   1.217  0.00  0.00    +0.074 A 
ATOM     19  N   UNL     1       0.025  -0.067   2.389  0.00  0.00    -0.255 NA
ATOM     20  C   UNL     1       0.045  -0.719   3.526  0.00  0.00    +0.111 A 
ATOM     21  C   UNL     1       0.065  -2.111   3.571  0.00  0.00    +0.020 A 
ATOM     22  C   UNL     1       0.052  -2.830   2.409  0.00  0.00    +0.012 A 
ENDBRANCH   1  16
BRANCH   6  23
ATOM     23  C   UNL     1      -2.204  -9.404  -0.579  0.00  0.00    +0.202 C 
BRANCH  23  24
ATOM     24  O   UNL     1      -2.655  -8.719   0.592  0.00  0.00    -0.391 OA
ATOM     25  H   UNL     1      -3.365  -9.174   1.065  0.00  0.00    +0.210 HD
ENDBRANCH  23  24
ENDBRANCH   6  23
TORSDOF 3
