REMARK  Name = ZINC65968265
REMARK  6 active torsions:
REMARK  status: ('A' for Active; 'I' for Inactive)
REMARK    1  A    between atoms: C_1  and  C_2
REMARK    2  A    between atoms: C_2  and  N_3
REMARK    3  A    between atoms: C_4  and  N_26
REMARK    4  A    between atoms: C_5  and  C_12
REMARK    5  A    between atoms: C_12  and  C_14
REMARK    6  A    between atoms: C_14  and  N_15
REMARK                            x       y       z     vdW  Elec       q    Type
REMARK                         _______ _______ _______ _____ _____    ______ ____
ROOT
ATOM      1  C   UNL     1      -3.794  -1.432   2.527  0.00  0.00    +0.155 C 
ATOM      2  O   UNL     1      -3.195  -1.121   3.537  0.00  0.00    -0.294 OA
ENDROOT
BRANCH   1   5
ATOM      3  N   UNL     1      -1.374  -0.524  -0.101  0.00  0.00    -0.282 N 
ATOM      4  C   UNL     1      -1.894  -0.730   1.145  0.00  0.00    +0.116 A 
ATOM      5  C   UNL     1      -3.212  -1.203   1.262  0.00  0.00    +0.118 A 
ATOM      6  C   UNL     1      -3.965  -1.452   0.026  0.00  0.00    +0.266 A 
ATOM      7  O   UNL     1      -5.110  -1.861   0.067  0.00  0.00    -0.267 OA
ATOM      8  N   UNL     1      -3.360  -1.216  -1.157  0.00  0.00    -0.274 N 
ATOM      9  H   UNL     1      -3.844  -1.376  -1.982  0.00  0.00    +0.173 HD
ATOM     10  C   UNL     1      -2.098  -0.759  -1.206  0.00  0.00    +0.331 A 
ATOM     11  O   UNL     1      -1.591  -0.555  -2.292  0.00  0.00    -0.246 OA
BRANCH   4  12
ATOM     12  N   UNL     1      -1.147  -0.482   2.256  0.00  0.00    -0.344 N 
ATOM     13  H   UNL     1      -0.214  -0.232   2.167  0.00  0.00    +0.144 HD
ATOM     14  H   UNL     1      -1.548  -0.555   3.136  0.00  0.00    +0.144 HD
ENDBRANCH   4  12
BRANCH   3  16
ATOM     15  C   UNL     1      -0.008   1.499  -0.250  0.00  0.00    +0.027 C 
ATOM     16  C   UNL     1      -0.001  -0.031  -0.233  0.00  0.00    +0.125 C 
ENDBRANCH   3  16
ENDBRANCH   1   5
BRANCH   1  17
ATOM     17  C   UNL     1      -5.160  -2.063   2.626  0.00  0.00    +0.003 C 
BRANCH  17  18
ATOM     18  N   UNL     1      -5.538  -2.193   4.039  0.00  0.00    +0.387 N 
ATOM     19  C   UNL     1      -4.541  -2.986   4.695  0.00  0.00    -0.074 C 
ATOM     20  C   UNL     1      -4.976  -3.651   5.964  0.00  0.00    -0.027 C 
ATOM     21  C   UNL     1      -5.823  -2.785   6.872  0.00  0.00    +0.005 C 
ATOM     22  C   UNL     1      -7.306  -2.821   6.551  0.00  0.00    -0.012 C 
ATOM     23  C   UNL     1      -7.802  -4.262   6.414  0.00  0.00    +0.007 C 
ATOM     24  C   UNL     1      -6.990  -4.939   5.309  0.00  0.00    -0.012 C 
ATOM     25  C   UNL     1      -5.535  -5.043   5.777  0.00  0.00    +0.005 C 
ATOM     26  C   UNL     1      -7.070  -4.172   4.006  0.00  0.00    -0.012 C 
ATOM     27  C   UNL     1      -6.889  -2.686   4.096  0.00  0.00    -0.067 C 
ATOM     28  C   UNL     1      -7.639  -2.064   5.269  0.00  0.00    -0.012 C 
ATOM     29  H   UNL     1      -5.524  -1.271   4.450  0.00  0.00    -0.081 HD
ENDBRANCH  17  18
ENDBRANCH   1  17
TORSDOF 5
