REMARK  Name = ZINC04042590
REMARK  9 active torsions:
REMARK  status: ('A' for Active; 'I' for Inactive)
REMARK    1  A    between atoms: C_1  and  C_2
REMARK    2  A    between atoms: C_2  and  C_3
REMARK    3  A    between atoms: C_2  and  C_4
REMARK    4  A    between atoms: C_7  and  C_18
REMARK    5  A    between atoms: C_13  and  N_17
REMARK    6  A    between atoms: C_14  and  C_15
REMARK    7  A    between atoms: C_18  and  C_19
REMARK    8  A    between atoms: C_18  and  C_20
REMARK    9  A    between atoms: C_18  and  C_21
REMARK                            x       y       z     vdW  Elec       q    Type
REMARK                         _______ _______ _______ _____ _____    ______ ____
ROOT
ATOM      1  C   UNL     1       0.679  -0.250  -0.341  0.00  0.00    +0.074 C 
ATOM      2  C   UNL     1       2.024  -0.164  -1.017  0.00  0.00    +0.046 A 
ATOM      3  C   UNL     1       2.618   0.882  -1.611  0.00  0.00    +0.049 A 
ATOM      4  N   UNL     1       3.821   0.466  -2.069  0.00  0.00    -0.277 N 
ATOM      5  H   UNL     1       4.470   1.010  -2.542  0.00  0.00    +0.189 HD
ATOM      6  N   UNL     1       3.966  -0.891  -1.740  0.00  0.00    -0.135 NA
ATOM      7  C   UNL     1       2.893  -1.273  -1.111  0.00  0.00    +0.244 A 
ATOM      8  O   UNL     1       2.566  -2.490  -0.600  0.00  0.00    -0.422 OA
ATOM      9  C   UNL     1       1.283  -2.687  -0.237  0.00  0.00    +0.200 C 
ATOM     10  C   UNL     1       0.366  -1.705  -0.102  0.00  0.00    +0.094 C 
ENDROOT
BRANCH   3  11
ATOM     11  C   UNL     1       2.047   2.271  -1.745  0.00  0.00    +0.004 C 
ATOM     12  C   UNL     1       2.718   2.987  -2.919  0.00  0.00    +0.017 C 
ATOM     13  C   UNL     1       0.540   2.182  -1.996  0.00  0.00    +0.017 C 
ATOM     14  C   UNL     1       2.304   3.054  -0.456  0.00  0.00    +0.017 C 
ENDBRANCH   3  11
BRANCH   1  16
ATOM     15  C   UNL     1      -0.599   0.294   1.736  0.00  0.00    +0.008 C 
ATOM     16  C   UNL     1       0.724   0.495   0.995  0.00  0.00    -0.004 C 
ATOM     17  C   UNL     1       1.873  -0.051   1.845  0.00  0.00    +0.008 C 
ENDBRANCH   1  16
BRANCH   9  18
ATOM     18  N   UNL     1       0.881  -3.975   0.013  0.00  0.00    -0.328 N 
ATOM     19  H   UNL     1       1.512  -4.706  -0.074  0.00  0.00    +0.145 HD
ATOM     20  H   UNL     1      -0.035  -4.155   0.276  0.00  0.00    +0.145 HD
ENDBRANCH   9  18
BRANCH  10  21
ATOM     21  C   UNL     1      -0.966  -2.062   0.287  0.00  0.00    +0.100 C 
ATOM     22  N   UNL     1      -2.022  -2.345   0.595  0.00  0.00    -0.191 NA
ENDBRANCH  10  21
TORSDOF 4
