REMARK  Name = ZINC12017085
REMARK  8 active torsions:
REMARK  status: ('A' for Active; 'I' for Inactive)
REMARK    1  A    between atoms: C_1  and  C_2
REMARK    2  A    between atoms: C_2  and  C_10
REMARK    3  A    between atoms: C_3  and  C_4
REMARK    4  A    between atoms: N_14  and  C_18
REMARK    5  A    between atoms: C_18  and  C_19
REMARK    6  A    between atoms: C_19  and  C_20
REMARK    7  A    between atoms: N_22  and  C_23
REMARK    8  A    between atoms: C_26  and  C_29
REMARK                            x       y       z     vdW  Elec       q    Type
REMARK                         _______ _______ _______ _____ _____    ______ ____
ROOT
ATOM      1  C   UNL     1      -2.397  -2.342  -0.573  0.00  0.00    +0.023 C 
ATOM      2  C   UNL     1      -1.113  -1.881  -0.527  0.00  0.00    +0.077 C 
ATOM      3  C   UNL     1       0.152  -2.596  -0.779  0.00  0.00    +0.258 C 
ATOM      4  O   UNL     1       0.170  -3.776  -1.079  0.00  0.00    -0.269 OA
ATOM      5  N   UNL     1       1.265  -1.892  -0.663  0.00  0.00    -0.255 N 
ATOM      6  C   UNL     1       1.240  -0.585  -0.331  0.00  0.00    +0.121 C 
ATOM      7  S   UNL     1       2.560   0.487  -0.133  0.00  0.00    -0.027 S 
ATOM      8  S   UNL     1      -0.503  -0.244  -0.147  0.00  0.00    -0.061 S 
ENDROOT
BRANCH   1  10
ATOM      9  C   UNL     1      -3.211   0.016  -0.175  0.00  0.00    +0.044 C 
ATOM     10  C   UNL     1      -3.470  -1.460  -0.341  0.00  0.00    -0.049 C 
ATOM     11  C   UNL     1      -4.735  -1.937  -0.268  0.00  0.00    +0.011 C 
BRANCH  11  12
ATOM     12  C   UNL     1      -5.839  -1.041   0.106  0.00  0.00    -0.025 A 
ATOM     13  C   UNL     1      -5.629  -0.017   1.037  0.00  0.00    +0.008 A 
ATOM     14  C   UNL     1      -6.668   0.822   1.379  0.00  0.00    +0.001 A 
ATOM     15  C   UNL     1      -7.919   0.647   0.813  0.00  0.00    +0.000 A 
ATOM     16  C   UNL     1      -8.136  -0.366  -0.105  0.00  0.00    +0.001 A 
ATOM     17  C   UNL     1      -7.107  -1.211  -0.462  0.00  0.00    +0.008 A 
ENDBRANCH  11  12
ENDBRANCH   1  10
BRANCH   5  18
ATOM     18  C   UNL     1       2.554  -2.546  -0.901  0.00  0.00    +0.124 C 
BRANCH  18  19
ATOM     19  C   UNL     1       2.925  -2.420  -2.380  0.00  0.00    +0.115 C 
BRANCH  19  20
ATOM     20  C   UNL     1       4.251  -3.093  -2.624  0.00  0.00    +0.219 C 
ATOM     21  O   UNL     1       4.841  -3.621  -1.706  0.00  0.00    -0.275 OA
ATOM     22  N   UNL     1       4.781  -3.107  -3.864  0.00  0.00    -0.285 N 
ATOM     23  H   UNL     1       4.344  -2.626  -4.584  0.00  0.00    +0.155 HD
BRANCH  22  24
ATOM     24  C   UNL     1       5.957  -3.814  -4.111  0.00  0.00    +0.033 A 
ATOM     25  C   UNL     1       6.962  -3.846  -3.149  0.00  0.00    +0.024 A 
ATOM     26  C   UNL     1       8.123  -4.547  -3.388  0.00  0.00    +0.017 A 
ATOM     27  C   UNL     1       8.295  -5.218  -4.602  0.00  0.00    +0.063 A 
ATOM     28  C   UNL     1       7.285  -5.179  -5.568  0.00  0.00    +0.017 A 
ATOM     29  C   UNL     1       6.125  -4.481  -5.320  0.00  0.00    +0.024 A 
BRANCH  27  30
ATOM     30  C   UNL     1       9.539  -5.965  -4.864  0.00  0.00    +0.387 C 
ATOM     31  O   UNL     1       9.688  -6.547  -5.920  0.00  0.00    -0.241 OA
ATOM     32  O   UNL     1      10.512  -6.001  -3.932  0.00  0.00    -0.241 OA
ENDBRANCH  27  30
ENDBRANCH  22  24
ENDBRANCH  19  20
ENDBRANCH  18  19
ENDBRANCH   5  18
TORSDOF 7
