REMARK  Name = ZINC61159448
REMARK  7 active torsions:
REMARK  status: ('A' for Active; 'I' for Inactive)
REMARK    1  A    between atoms: C_3  and  O_11
REMARK    2  A    between atoms: C_6  and  C_7
REMARK    3  A    between atoms: C_7  and  C_8
REMARK    4  A    between atoms: O_11  and  C_12
REMARK    5  A    between atoms: C_12  and  C_13
REMARK    6  A    between atoms: N_15  and  C_16
REMARK    7  A    between atoms: C_20  and  N_21
REMARK                            x       y       z     vdW  Elec       q    Type
REMARK                         _______ _______ _______ _____ _____    ______ ____
ROOT
ATOM      1  C   UNL     1       5.940   2.274  -0.043  0.00  0.00    +0.251 C 
ATOM      2  O   UNL     1       5.766   3.474  -0.036  0.00  0.00    -0.272 OA
ATOM      3  N   UNL     1       7.192   1.774  -0.058  0.00  0.00    -0.308 N 
ATOM      4  H   UNL     1       7.331   0.814  -0.064  0.00  0.00    +0.149 HD
ENDROOT
BRANCH   3   5
ATOM      5  C   UNL     1       8.342   2.681  -0.065  0.00  0.00    +0.096 C 
ATOM      6  C   UNL     1       8.709   3.059  -1.515  0.00  0.00    +0.024 C 
ATOM      7  C   UNL     1      10.257   3.123  -1.510  0.00  0.00    +0.004 C 
ATOM      8  C   UNL     1      10.645   1.949  -0.578  0.00  0.00    +0.027 C 
ATOM      9  C   UNL     1       9.573   1.976   0.531  0.00  0.00    +0.108 C 
BRANCH   9  10
ATOM     10  N   UNL     1      10.068   2.723   1.690  0.00  0.00    -0.334 N 
ATOM     11  C   UNL     1      10.505   4.020   1.693  0.00  0.00    +0.105 A 
ATOM     12  C   UNL     1      10.866   4.306   2.959  0.00  0.00    +0.101 A 
ATOM     13  N   UNL     1      10.656   3.213   3.707  0.00  0.00    -0.352 N 
ATOM     14  C   UNL     1      10.174   2.262   2.955  0.00  0.00    +0.174 A 
ATOM     15  H   UNL     1      10.832   3.142   4.658  0.00  0.00    +0.166 HD
ENDBRANCH   9  10
ENDBRANCH   3   5
BRANCH   1  16
ATOM     16  C   UNL     1       4.756   1.341  -0.036  0.00  0.00    +0.324 C 
BRANCH  16  17
ATOM     17  O   UNL     1       3.548   2.104  -0.021  0.00  0.00    -0.483 OA
BRANCH  17  20
ATOM     18  C   UNL     1      -0.017   1.378   0.010  0.00  0.00    +0.007 A 
ATOM     19  C   UNL     1       1.169   2.087   0.002  0.00  0.00    +0.046 A 
ATOM     20  C   UNL     1       2.380   1.409  -0.013  0.00  0.00    +0.121 A 
ATOM     21  C   UNL     1       2.396   0.022  -0.021  0.00  0.00    +0.046 A 
ATOM     22  C   UNL     1       1.207  -0.681  -0.013  0.00  0.00    +0.007 A 
ATOM     23  C   UNL     1       0.002  -0.004   0.002  0.00  0.00    -0.038 A 
BRANCH  23  24
ATOM     24  C   UNL     1      -1.293  -0.774   0.011  0.00  0.00    +0.130 C 
BRANCH  24  25
ATOM     25  C   UNL     1      -1.739  -1.023  -1.407  0.00  0.00    +0.215 C 
ATOM     26  O   UNL     1      -1.071  -0.615  -2.333  0.00  0.00    -0.276 OA
ATOM     27  N   UNL     1      -2.881  -1.699  -1.646  0.00  0.00    -0.329 N 
ATOM     28  H   UNL     1      -3.415  -2.025  -0.905  0.00  0.00    +0.145 HD
ATOM     29  H   UNL     1      -3.168  -1.859  -2.558  0.00  0.00    +0.145 HD
ENDBRANCH  24  25
ENDBRANCH  23  24
ENDBRANCH  17  20
ENDBRANCH  16  17
ENDBRANCH   1  16
TORSDOF 7
