REMARK  Name = ZINC01510393
REMARK  4 active torsions:
REMARK  status: ('A' for Active; 'I' for Inactive)
REMARK    1  A    between atoms: C_3  and  O_24
REMARK    2  A    between atoms: C_4  and  C_8
REMARK    3  A    between atoms: N_9  and  C_10
REMARK    4  A    between atoms: C_10  and  C_11
REMARK                            x       y       z     vdW  Elec       q    Type
REMARK                         _______ _______ _______ _____ _____    ______ ____
ROOT
ATOM      1  C   UNL     1       3.738  -0.658  -0.303  0.00  0.00    +0.089 C 
ATOM      2  N   UNL     1       4.814  -0.031   0.047  0.00  0.00    -0.389 N 
ATOM      3  H   UNL     1       5.646  -0.518   0.155  0.00  0.00    +0.159 HD
ENDROOT
BRANCH   1   7
ATOM      4  C   UNL     1       0.340   1.526  -1.619  0.00  0.00    +0.019 A 
ATOM      5  C   UNL     1       0.168   0.308  -0.991  0.00  0.00    +0.047 A 
ATOM      6  C   UNL     1       1.270  -0.413  -0.558  0.00  0.00    +0.125 A 
ATOM      7  C   UNL     1       2.559   0.100  -0.760  0.00  0.00    +0.033 A 
ATOM      8  C   UNL     1       2.720   1.333  -1.396  0.00  0.00    +0.028 A 
ATOM      9  C   UNL     1       1.612   2.037  -1.820  0.00  0.00    +0.019 A 
ATOM     10 BR   UNL     1       1.831   3.706  -2.682  0.00  0.00    -0.050 Br
BRANCH   6  11
ATOM     11  O   UNL     1       1.101  -1.610   0.059  0.00  0.00    -0.506 OA
ATOM     12  H   UNL     1       1.016  -2.357  -0.548  0.00  0.00    +0.292 HD
ENDBRANCH   6  11
ENDBRANCH   1   7
BRANCH   2  13
ATOM     13  C   UNL     1       4.777   1.415   0.280  0.00  0.00    +0.119 C 
BRANCH  13  14
ATOM     14  C   UNL     1       5.278   1.717   1.694  0.00  0.00    -0.011 C 
ATOM     15  C   UNL     1       6.735   1.325   1.792  0.00  0.00    +0.012 C 
ATOM     16  C   UNL     1       7.510   1.857   2.959  0.00  0.00    -0.010 C 
ATOM     17  C   UNL     1       7.437   1.057   4.230  0.00  0.00    +0.004 C 
ATOM     18  C   UNL     1       6.111   0.424   4.511  0.00  0.00    +0.004 C 
ATOM     19  C   UNL     1       4.928   1.235   4.086  0.00  0.00    -0.010 C 
ATOM     20  C   UNL     1       4.441   0.920   2.699  0.00  0.00    +0.012 C 
ATOM     21  C   UNL     1       5.034   2.711   4.405  0.00  0.00    +0.007 C 
ATOM     22  C   UNL     1       5.698   3.537   3.320  0.00  0.00    -0.010 C 
ATOM     23  C   UNL     1       7.189   3.318   3.265  0.00  0.00    +0.007 C 
ATOM     24  C   UNL     1       5.084   3.207   1.982  0.00  0.00    +0.012 C 
ENDBRANCH  13  14
ENDBRANCH   2  13
TORSDOF 4
