REMARK  Name = ZINC52840443
REMARK  5 active torsions:
REMARK  status: ('A' for Active; 'I' for Inactive)
REMARK    1  A    between atoms: C_1  and  C_2
REMARK    2  A    between atoms: C_2  and  C_3
REMARK    3  A    between atoms: N_9  and  C_10
REMARK    4  A    between atoms: C_13  and  N_17
REMARK    5  A    between atoms: C_15  and  N_16
REMARK                            x       y       z     vdW  Elec       q    Type
REMARK                         _______ _______ _______ _____ _____    ______ ____
ROOT
ATOM      1  C   UNL     1       2.528   0.953   0.227  0.00  0.00    +0.051 A 
ATOM      2  C   UNL     1       2.500   2.329   0.393  0.00  0.00    +0.027 A 
ATOM      3  C   UNL     1       2.923   3.157  -0.631  0.00  0.00    +0.034 A 
ATOM      4  C   UNL     1       3.373   2.617  -1.821  0.00  0.00    +0.128 A 
ATOM      5  C   UNL     1       3.403   1.246  -1.995  0.00  0.00    +0.057 A 
ATOM      6  C   UNL     1       2.987   0.408  -0.971  0.00  0.00    +0.048 A 
ENDROOT
BRANCH   1  12
ATOM      7  C   UNL     1       0.691  -0.287   1.369  0.00  0.00    +0.073 C 
ATOM      8  C   UNL     1       0.613  -1.816   1.441  0.00  0.00    +0.022 C 
ATOM      9  C   UNL     1       1.496  -2.314   2.587  0.00  0.00    +0.003 C 
ATOM     10  C   UNL     1       2.950  -1.916   2.324  0.00  0.00    +0.019 C 
ATOM     11  C   UNL     1       3.054  -0.389   2.262  0.00  0.00    +0.105 C 
ATOM     12  N   UNL     1       2.101   0.113   1.263  0.00  0.00    -0.325 N 
BRANCH   7  14
ATOM     13  C   UNL     1      -1.567  -0.089   0.318  0.00  0.00    +0.006 C 
ATOM     14  C   UNL     1      -0.077   0.208   0.142  0.00  0.00    +0.019 C 
ENDBRANCH   7  14
ENDBRANCH   1  12
BRANCH   6  15
ATOM     15  N   UNL     1       3.023  -0.981  -1.143  0.00  0.00    -0.356 N 
ATOM     16  H   UNL     1       2.727  -1.566  -0.427  0.00  0.00    +0.142 HD
ATOM     17  H   UNL     1       3.342  -1.359  -1.977  0.00  0.00    +0.142 HD
ENDBRANCH   6  15
BRANCH   4  18
ATOM     18  N   UNL     1       3.823   3.509  -2.913  0.00  0.00    +0.056 N 
ATOM     19  O   UNL     1       3.797   4.708  -2.763  0.00  0.00    -0.126 OA
ATOM     20  O   UNL     1       4.217   3.038  -3.955  0.00  0.00    -0.126 OA
ENDBRANCH   4  18
TORSDOF 4
