REMARK  Name = ZINC18258196
REMARK  4 active torsions:
REMARK  status: ('A' for Active; 'I' for Inactive)
REMARK    1  A    between atoms: C_7  and  N_24
REMARK    2  A    between atoms: C_9  and  C_11
REMARK    3  A    between atoms: C_11  and  S_12
REMARK    4  A    between atoms: S_12  and  C_13
REMARK                            x       y       z     vdW  Elec       q    Type
REMARK                         _______ _______ _______ _____ _____    ______ ____
ROOT
ATOM      1  C   UNL     1      -0.013   1.076   0.008  0.00  0.00    +0.001 A 
ATOM      2  C   UNL     1      -1.233   1.746   0.017  0.00  0.00    +0.002 A 
ATOM      3  C   UNL     1      -1.286   3.108   0.030  0.00  0.00    +0.028 A 
ATOM      4  C   UNL     1      -0.096   3.847   0.023  0.00  0.00    +0.076 A 
ATOM      5  C   UNL     1       1.144   3.164   0.008  0.00  0.00    +0.040 A 
ATOM      6  C   UNL     1       1.165   1.764   0.000  0.00  0.00    +0.013 A 
ATOM      7  C   UNL     1       2.333   3.934   0.001  0.00  0.00    +0.127 A 
ATOM      8  N   UNL     1       2.222   5.256   0.009  0.00  0.00    -0.216 NA
ATOM      9  C   UNL     1       1.040   5.851   0.023  0.00  0.00    +0.142 A 
ATOM     10  N   UNL     1      -0.092   5.189   0.030  0.00  0.00    -0.231 NA
ENDROOT
BRANCH   7  11
ATOM     11  N   UNL     1       3.570   3.327  -0.013  0.00  0.00    -0.343 N 
ATOM     12  H   UNL     1       3.635   2.359  -0.019  0.00  0.00    +0.144 HD
ATOM     13  H   UNL     1       4.376   3.867  -0.018  0.00  0.00    +0.144 HD
ENDBRANCH   7  11
BRANCH   9  14
ATOM     14  C   UNL     1       0.993   7.357   0.032  0.00  0.00    +0.153 C 
BRANCH  14  15
ATOM     15  S   UNL     1       0.959   7.970  -1.671  0.00  0.00    -0.080 S 
BRANCH  15  16
ATOM     16  C   UNL     1       0.907   9.705  -1.370  0.00  0.00    +0.168 A 
ATOM     17  N   UNL     1       0.868  10.669  -2.338  0.00  0.00    -0.333 N 
ATOM     18  H   UNL     1       0.864  10.517  -3.326  0.00  0.00    +0.168 HD
ATOM     19  C   UNL     1       0.835  11.896  -1.695  0.00  0.00    +0.068 A 
ATOM     20  C   UNL     1       0.789  13.210  -2.134  0.00  0.00    +0.047 A 
ATOM     21  C   UNL     1       0.766  14.241  -1.216  0.00  0.00    +0.043 A 
ATOM     22  C   UNL     1       0.786  13.970   0.145  0.00  0.00    +0.022 A 
ATOM     23  C   UNL     1       0.831  12.670   0.598  0.00  0.00    +0.031 A 
ATOM     24  C   UNL     1       0.856  11.616  -0.319  0.00  0.00    +0.090 A 
ATOM     25  N   UNL     1       0.894  10.264  -0.185  0.00  0.00    -0.222 NA
ATOM     26 CL   UNL     1       0.710  15.886  -1.768  0.00  0.00    -0.083 Cl
ENDBRANCH  15  16
ENDBRANCH  14  15
ENDBRANCH   9  14
TORSDOF 4
