REMARK  Name = ZINC58585090
REMARK  8 active torsions:
REMARK  status: ('A' for Active; 'I' for Inactive)
REMARK    1  A    between atoms: C_1  and  C_2
REMARK    2  A    between atoms: C_5  and  C_7
REMARK    3  A    between atoms: C_7  and  N_8
REMARK    4  A    between atoms: N_8  and  C_9
REMARK    5  A    between atoms: C_10  and  C_12
REMARK    6  A    between atoms: C_17  and  N_18
REMARK    7  A    between atoms: N_18  and  S_19
REMARK    8  A    between atoms: S_19  and  C_22
REMARK                            x       y       z     vdW  Elec       q    Type
REMARK                         _______ _______ _______ _____ _____    ______ ____
ROOT
ATOM      1  C   UNL     1       1.969  -4.840  -3.311  0.00  0.00    +0.061 A 
ATOM      2  C   UNL     1       3.172  -4.251  -3.709  0.00  0.00    +0.015 A 
ATOM      3  C   UNL     1       3.718  -4.565  -4.934  0.00  0.00    +0.001 A 
ATOM      4  C   UNL     1       3.081  -5.463  -5.776  0.00  0.00    +0.002 A 
ATOM      5  C   UNL     1       1.892  -6.052  -5.397  0.00  0.00    +0.027 A 
ATOM      6  C   UNL     1       1.329  -5.753  -4.163  0.00  0.00    +0.086 A 
ENDROOT
BRANCH   1   9
ATOM      7  N   UNL     1       1.350  -3.229  -1.580  0.00  0.00    -0.293 N 
ATOM      8  C   UNL     1       1.799  -2.154  -2.469  0.00  0.00    +0.133 C 
ATOM      9  C   UNL     1       1.379  -4.508  -2.001  0.00  0.00    +0.249 C 
ATOM     10  O   UNL     1       0.919  -5.390  -1.301  0.00  0.00    -0.270 OA
BRANCH   7  11
ATOM     11  C   UNL     1       0.869  -2.912  -0.233  0.00  0.00    +0.182 C 
BRANCH  11  16
ATOM     12  C   UNL     1      -3.567  -0.547  -0.641  0.00  0.00    +0.086 C 
ATOM     13  C   UNL     1      -2.546  -1.639  -0.452  0.00  0.00    +0.102 A 
ATOM     14  C   UNL     1      -2.816  -2.937  -0.225  0.00  0.00    +0.045 A 
ATOM     15  C   UNL     1      -1.573  -3.600  -0.111  0.00  0.00    +0.046 A 
ATOM     16  C   UNL     1      -0.617  -2.667  -0.274  0.00  0.00    +0.122 A 
ATOM     17  O   UNL     1      -1.213  -1.482  -0.486  0.00  0.00    -0.463 OA
ENDBRANCH  11  16
ENDBRANCH   7  11
ENDBRANCH   1   9
BRANCH   6  18
ATOM     18  N   UNL     1       0.137  -6.350  -3.777  0.00  0.00    -0.097 NA
BRANCH  18  19
ATOM     19  S   UNL     1      -0.615  -7.428  -4.785  0.00  0.00    +0.092 S 
ATOM     20  O   UNL     1      -1.034  -6.691  -5.926  0.00  0.00    -0.148 OA
ATOM     21  O   UNL     1       0.240  -8.559  -4.880  0.00  0.00    -0.148 OA
BRANCH  19  22
ATOM     22  C   UNL     1      -2.080  -7.970  -3.970  0.00  0.00    +0.112 A 
ATOM     23  C   UNL     1      -2.038  -9.079  -3.143  0.00  0.00    +0.031 A 
ATOM     24  C   UNL     1      -3.181  -9.511  -2.499  0.00  0.00    +0.030 A 
ATOM     25  C   UNL     1      -4.376  -8.832  -2.683  0.00  0.00    +0.067 A 
ATOM     26  C   UNL     1      -4.418  -7.713  -3.518  0.00  0.00    +0.069 A 
ATOM     27  C   UNL     1      -3.264  -7.283  -4.155  0.00  0.00    +0.056 A 
ATOM     28  N   UNL     1      -5.731  -7.250  -3.505  0.00  0.00    -0.306 N 
ATOM     29  H   UNL     1      -6.068  -6.483  -3.993  0.00  0.00    +0.170 HD
ATOM     30  C   UNL     1      -6.455  -8.050  -2.699  0.00  0.00    +0.325 A 
ATOM     31  O   UNL     1      -7.643  -7.922  -2.467  0.00  0.00    -0.247 OA
ATOM     32  N   UNL     1      -5.665  -9.014  -2.189  0.00  0.00    -0.306 N 
ATOM     33  H   UNL     1      -5.946  -9.715  -1.580  0.00  0.00    +0.170 HD
ENDBRANCH  19  22
ENDBRANCH  18  19
ENDBRANCH   6  18
TORSDOF 6
