REMARK  Name = ZINC29678528
REMARK  12 active torsions:
REMARK  status: ('A' for Active; 'I' for Inactive)
REMARK    1  A    between atoms: C_1  and  C_2
REMARK    2  A    between atoms: C_5  and  O_28
REMARK    3  A    between atoms: C_6  and  C_8
REMARK    4  A    between atoms: C_8  and  C_10
REMARK    5  A    between atoms: C_8  and  N_11
REMARK    6  A    between atoms: N_11  and  C_12
REMARK    7  A    between atoms: C_12  and  C_14
REMARK    8  A    between atoms: C_12  and  C_15
REMARK    9  A    between atoms: N_17  and  C_18
REMARK   10  A    between atoms: C_21  and  N_25
REMARK   11  A    between atoms: C_23  and  C_24
REMARK   12  A    between atoms: O_28  and  C_29
REMARK                            x       y       z     vdW  Elec       q    Type
REMARK                         _______ _______ _______ _____ _____    ______ ____
ROOT
ATOM      1  C   UNL     1       3.744  -0.963   0.178  0.00  0.00    +0.014 C 
ATOM      2  C   UNL     1       4.495  -0.491   1.425  0.00  0.00    -0.004 C 
ENDROOT
BRANCH   1   3
ATOM      3  C   UNL     1       2.426  -0.238   0.080  0.00  0.00    +0.203 C 
ATOM      4  O   UNL     1       1.388  -0.864   0.087  0.00  0.00    -0.277 OA
ATOM      5  N   UNL     1       2.403   1.107  -0.015  0.00  0.00    -0.287 N 
ATOM      6  H   UNL     1       3.344   1.669  -0.095  0.00  0.00    +0.155 HD
BRANCH   5   7
ATOM      7  C   UNL     1       1.180   1.787  -0.010  0.00  0.00    +0.036 A 
ATOM      8  C   UNL     1       0.064   1.215  -0.608  0.00  0.00    +0.026 A 
ATOM      9  C   UNL     1      -1.140   1.891  -0.607  0.00  0.00    +0.034 A 
ATOM     10  C   UNL     1      -1.238   3.131  -0.001  0.00  0.00    +0.127 A 
ATOM     11  C   UNL     1      -0.130   3.702   0.595  0.00  0.00    +0.038 A 
ATOM     12  C   UNL     1       1.079   3.034   0.592  0.00  0.00    -0.027 A 
ATOM     13  C   UNL     1       2.288   3.657   1.242  0.00  0.00    +0.046 C 
BRANCH  10  14
ATOM     14  N   UNL     1      -2.532   3.851   0.003  0.00  0.00    +0.056 N 
ATOM     15  O   UNL     1      -2.619   4.945   0.531  0.00  0.00    -0.126 OA
ATOM     16  O   UNL     1      -3.510   3.349  -0.522  0.00  0.00    -0.126 OA
ENDBRANCH  10  14
ENDBRANCH   5   7
ENDBRANCH   1   3
BRANCH   1  17
ATOM     17  N   UNL     1       3.501  -2.409   0.270  0.00  0.00    +0.391 N 
ATOM     18  H   UNL     1       2.618  -2.658  -0.337  0.00  0.00    -0.084 HD
ATOM     19  H   UNL     1       3.309  -2.668   1.322  0.00  0.00    -0.084 HD
BRANCH  17  20
ATOM     20  C   UNL     1       4.660  -3.169  -0.217  0.00  0.00    -0.039 C 
ATOM     21  C   UNL     1       4.570  -3.318  -1.737  0.00  0.00    -0.009 C 
BRANCH  20  27
ATOM     22  C   UNL     1       2.211  -6.952   1.957  0.00  0.00    +0.044 C 
ATOM     23  C   UNL     1       3.498  -6.345   1.462  0.00  0.00    -0.050 A 
ATOM     24  C   UNL     1       4.685  -7.042   1.593  0.00  0.00    +0.007 A 
ATOM     25  C   UNL     1       5.867  -6.488   1.139  0.00  0.00    +0.046 A 
ATOM     26  C   UNL     1       5.861  -5.234   0.547  0.00  0.00    +0.122 A 
ATOM     27  C   UNL     1       4.669  -4.534   0.421  0.00  0.00    -0.020 A 
ATOM     28  C   UNL     1       3.490  -5.093   0.876  0.00  0.00    +0.009 A 
BRANCH  26  29
ATOM     29  O   UNL     1       7.021  -4.689   0.095  0.00  0.00    -0.495 OA
ATOM     30  C   UNL     1       8.209  -5.465   0.258  0.00  0.00    +0.277 C 
ENDBRANCH  26  29
ENDBRANCH  20  27
ENDBRANCH  17  20
ENDBRANCH   1  17
TORSDOF 7
