REMARK  Name = ZINC35736734
REMARK  9 active torsions:
REMARK  status: ('A' for Active; 'I' for Inactive)
REMARK    1  A    between atoms: C_1  and  C_2
REMARK    2  A    between atoms: C_2  and  C_4
REMARK    3  A    between atoms: C_2  and  N_9
REMARK    4  A    between atoms: N_9  and  C_10
REMARK    5  A    between atoms: C_13  and  S_17
REMARK    6  A    between atoms: C_15  and  N_16
REMARK    7  A    between atoms: S_17  and  N_20
REMARK    8  A    between atoms: N_20  and  C_21
REMARK    9  A    between atoms: N_20  and  C_22
REMARK                            x       y       z     vdW  Elec       q    Type
REMARK                         _______ _______ _______ _____ _____    ______ ____
ROOT
ATOM      1  C   UNL     1       0.026  -0.639   2.401  0.00  0.00    +0.049 A 
ATOM      2  C   UNL     1      -1.325  -0.334   2.478  0.00  0.00    +0.027 A 
ATOM      3  C   UNL     1      -2.000  -0.483   3.676  0.00  0.00    +0.030 A 
ATOM      4  C   UNL     1      -1.332  -0.936   4.799  0.00  0.00    +0.107 A 
ATOM      5  C   UNL     1       0.015  -1.242   4.730  0.00  0.00    +0.053 A 
ATOM      6  C   UNL     1       0.698  -1.101   3.532  0.00  0.00    +0.048 A 
ENDROOT
BRANCH   6   7
ATOM      7  N   UNL     1       2.061  -1.416   3.459  0.00  0.00    -0.356 N 
ATOM      8  H   UNL     1       2.538  -1.313   2.621  0.00  0.00    +0.142 HD
ATOM      9  H   UNL     1       2.527  -1.737   4.247  0.00  0.00    +0.142 HD
ENDBRANCH   6   7
BRANCH   4  10
ATOM     10  S   UNL     1      -2.199  -1.122   6.321  0.00  0.00    +0.060 S 
ATOM     11  O   UNL     1      -1.227  -1.041   7.355  0.00  0.00    -0.153 OA
ATOM     12  O   UNL     1      -3.320  -0.252   6.259  0.00  0.00    -0.153 OA
BRANCH  10  13
ATOM     13  N   UNL     1      -2.799  -2.665   6.357  0.00  0.00    -0.183 NA
ATOM     14  C   UNL     1      -1.999  -3.750   6.931  0.00  0.00    +0.131 C 
ATOM     15  C   UNL     1      -4.131  -2.946   5.815  0.00  0.00    +0.131 C 
ENDBRANCH  10  13
ENDBRANCH   4  10
BRANCH   1  16
ATOM     16  N   UNL     1       0.711  -0.489   1.189  0.00  0.00    -0.335 N 
ATOM     17  H   UNL     1       1.654  -0.707   1.135  0.00  0.00    +0.147 HD
BRANCH  16  19
ATOM     18  C   UNL     1      -0.019   1.526   0.010  0.00  0.00    +0.033 C 
ATOM     19  C   UNL     1       0.002  -0.004   0.002  0.00  0.00    +0.104 C 
BRANCH  19  20
ATOM     20  C   UNL     1       0.707  -0.490  -1.238  0.00  0.00    +0.010 A 
ATOM     21  C   UNL     1       0.176  -0.943  -2.400  0.00  0.00    +0.013 A 
ATOM     22  C   UNL     1       1.026  -1.340  -3.415  0.00  0.00    +0.008 A 
ATOM     23  C   UNL     1       2.365  -1.266  -3.219  0.00  0.00    +0.045 A 
ATOM     24  S   UNL     1       2.459  -0.612  -1.560  0.00  0.00    -0.100 S 
ENDBRANCH  19  20
ENDBRANCH  16  19
ENDBRANCH   1  16
TORSDOF 6
