REMARK  Name = ZINC40435404
REMARK  7 active torsions:
REMARK  status: ('A' for Active; 'I' for Inactive)
REMARK    1  A    between atoms: C_1  and  C_2
REMARK    2  A    between atoms: C_2  and  N_3
REMARK    3  A    between atoms: N_3  and  C_4
REMARK    4  A    between atoms: C_5  and  C_7
REMARK    5  A    between atoms: C_7  and  S_8
REMARK    6  A    between atoms: S_8  and  C_9
REMARK    7  A    between atoms: C_13  and  N_15
REMARK                            x       y       z     vdW  Elec       q    Type
REMARK                         _______ _______ _______ _____ _____    ______ ____
ROOT
ATOM      1  C   UNL     1      -5.605  -2.097   2.754  0.00  0.00    +0.192 A 
ATOM      2  N   UNL     1      -6.114  -2.280   1.544  0.00  0.00    -0.207 NA
ATOM      3  C   UNL     1      -7.354  -2.737   1.388  0.00  0.00    +0.122 A 
ATOM      4  C   UNL     1      -8.118  -3.023   2.517  0.00  0.00    +0.086 A 
ATOM      5  C   UNL     1      -7.549  -2.818   3.771  0.00  0.00    +0.122 A 
ATOM      6  N   UNL     1      -6.301  -2.363   3.850  0.00  0.00    -0.207 NA
ATOM      7  N   UNL     1      -7.879  -2.925   0.119  0.00  0.00    -0.343 N 
ATOM      8  H   UNL     1      -7.342  -2.723  -0.663  0.00  0.00    +0.144 HD
ATOM      9  H   UNL     1      -8.784  -3.258   0.013  0.00  0.00    +0.144 HD
ENDROOT
BRANCH   5  10
ATOM     10  N   UNL     1      -8.272  -3.089   4.922  0.00  0.00    -0.343 N 
ATOM     11  H   UNL     1      -9.181  -3.423   4.857  0.00  0.00    +0.144 HD
ATOM     12  H   UNL     1      -7.870  -2.944   5.793  0.00  0.00    +0.144 HD
ENDBRANCH   5  10
BRANCH   1  13
ATOM     13  S   UNL     1      -3.958  -1.491   2.909  0.00  0.00    -0.077 S 
BRANCH  13  14
ATOM     14  C   UNL     1      -3.407  -1.272   1.195  0.00  0.00    +0.173 C 
BRANCH  14  17
ATOM     15  N   UNL     1      -1.372  -0.511   0.012  0.00  0.00    -0.304 N 
ATOM     16  C   UNL     1      -2.072  -0.758  -1.251  0.00  0.00    +0.132 C 
ATOM     17  C   UNL     1      -1.993  -0.751   1.184  0.00  0.00    +0.226 C 
ATOM     18  O   UNL     1      -1.415  -0.546   2.230  0.00  0.00    -0.275 OA
BRANCH  15  20
ATOM     19  C   UNL     1      -0.019   1.526   0.010  0.00  0.00    +0.024 C 
ATOM     20  C   UNL     1       0.002  -0.004   0.002  0.00  0.00    +0.104 C 
ENDBRANCH  15  20
ENDBRANCH  14  17
ENDBRANCH  13  14
ENDBRANCH   1  13
TORSDOF 5
