REMARK  Name = ZINC49715805
REMARK  3 active torsions:
REMARK  status: ('A' for Active; 'I' for Inactive)
REMARK    1  A    between atoms: C_4  and  N_8
REMARK    2  A    between atoms: C_5  and  N_7
REMARK    3  A    between atoms: C_11  and  C_13
REMARK                            x       y       z     vdW  Elec       q    Type
REMARK                         _______ _______ _______ _____ _____    ______ ____
ROOT
ATOM      1  N   UNL     1       3.606  -0.694  -0.054  0.00  0.00    -0.237 N 
ATOM      2  C   UNL     1       4.833  -0.126  -0.175  0.00  0.00    +0.115 A 
ATOM      3  C   UNL     1       5.741  -1.130  -0.158  0.00  0.00    +0.054 A 
ATOM      4  C   UNL     1       4.987  -2.320  -0.022  0.00  0.00    +0.148 A 
ATOM      5  N   UNL     1       3.717  -1.970   0.039  0.00  0.00    -0.162 NA
ENDROOT
BRANCH   4   6
ATOM      6  C   UNL     1       5.523  -3.695   0.046  0.00  0.00    +0.267 C 
ATOM      7  O   UNL     1       6.722  -3.883  -0.017  0.00  0.00    -0.268 OA
ATOM      8  N   UNL     1       4.682  -4.740   0.177  0.00  0.00    -0.293 N 
ATOM      9  C   UNL     1       3.208  -4.681   0.261  0.00  0.00    +0.112 C 
ATOM     10  C   UNL     1       2.744  -6.166   0.380  0.00  0.00    +0.008 C 
ATOM     11  C   UNL     1       3.176  -6.580   1.822  0.00  0.00    +0.007 C 
ATOM     12  C   UNL     1       4.721  -6.572   1.770  0.00  0.00    +0.023 C 
ATOM     13  C   UNL     1       5.059  -6.180   0.260  0.00  0.00    +0.077 C 
ATOM     14  C   UNL     1       3.859  -6.855  -0.487  0.00  0.00    +0.027 C 
ENDBRANCH   4   6
BRANCH   1  18
ATOM     15  C   UNL     1      -0.003   1.402   0.017  0.00  0.00    +0.002 A 
ATOM     16  C   UNL     1       0.941   1.678  -0.956  0.00  0.00    +0.002 A 
ATOM     17  C   UNL     1       2.136   0.986  -0.982  0.00  0.00    +0.029 A 
ATOM     18  C   UNL     1       2.394   0.010  -0.030  0.00  0.00    +0.086 A 
ATOM     19  C   UNL     1       1.443  -0.268   0.952  0.00  0.00    +0.050 A 
ATOM     20  C   UNL     1       0.245   0.432   0.970  0.00  0.00    +0.025 A 
BRANCH  19  21
ATOM     21  N   UNL     1       1.695  -1.249   1.914  0.00  0.00    -0.356 N 
ATOM     22  H   UNL     1       2.567  -1.672   1.959  0.00  0.00    +0.142 HD
ATOM     23  H   UNL     1       0.999  -1.508   2.537  0.00  0.00    +0.142 HD
ENDBRANCH  19  21
ENDBRANCH   1  18
TORSDOF 3
