REMARK  Name = ZINC40464900
REMARK  4 active torsions:
REMARK  status: ('A' for Active; 'I' for Inactive)
REMARK    1  A    between atoms: C_1  and  O_2
REMARK    2  A    between atoms: O_2  and  C_3
REMARK    3  A    between atoms: C_3  and  C_4
REMARK    4  A    between atoms: C_4  and  N_5
REMARK                            x       y       z     vdW  Elec       q    Type
REMARK                         _______ _______ _______ _____ _____    ______ ____
ROOT
ATOM      1  N   UNL     1      -0.515  -2.565   1.245  0.00  0.00    -0.258 N 
ATOM      2  C   UNL     1       0.825  -2.655   1.296  0.00  0.00    +0.265 A 
ATOM      3  O   UNL     1       1.499  -2.374   0.322  0.00  0.00    -0.267 OA
ATOM      4  C   UNL     1       1.472  -3.098   2.551  0.00  0.00    +0.074 A 
ATOM      5  C   UNL     1       2.897  -3.268   2.831  0.00  0.00    -0.023 A 
ATOM      6  C   UNL     1       3.182  -3.690   4.079  0.00  0.00    -0.004 A 
ATOM      7  S   UNL     1       1.607  -3.858   4.867  0.00  0.00    -0.075 S 
ATOM      8  C   UNL     1       0.612  -3.394   3.607  0.00  0.00    +0.094 A 
ATOM      9  N   UNL     1      -0.747  -3.276   3.468  0.00  0.00    -0.301 N 
ATOM     10  H   UNL     1      -1.326  -3.487   4.217  0.00  0.00    +0.171 HD
ATOM     11  C   UNL     1      -1.284  -2.862   2.305  0.00  0.00    +0.330 A 
ATOM     12  O   UNL     1      -2.493  -2.760   2.211  0.00  0.00    -0.246 OA
ATOM     13  C   UNL     1       4.540  -3.954   4.654  0.00  0.00    +0.043 C 
ATOM     14  C   UNL     1       5.545  -4.035   3.495  0.00  0.00    +0.005 C 
ATOM     15  C   UNL     1       5.325  -2.840   2.563  0.00  0.00    +0.005 C 
ATOM     16  C   UNL     1       3.998  -2.999   1.816  0.00  0.00    +0.037 C 
ENDROOT
BRANCH   1  17
ATOM     17  C   UNL     1      -1.154  -2.126   0.002  0.00  0.00    +0.158 C 
BRANCH  17  18
ATOM     18  C   UNL     1      -1.295  -0.603   0.011  0.00  0.00    +0.181 C 
BRANCH  18  20
ATOM     19  C   UNL     1      -0.017   1.425   0.010  0.00  0.00    +0.194 C 
ATOM     20  O   UNL     1       0.002  -0.004   0.002  0.00  0.00    -0.381 OA
ENDBRANCH  18  20
ENDBRANCH  17  18
ENDBRANCH   1  17
TORSDOF 3
