REMARK  Name = ZINC42014866
REMARK  6 active torsions:
REMARK  status: ('A' for Active; 'I' for Inactive)
REMARK    1  A    between atoms: C_1  and  C_2
REMARK    2  A    between atoms: C_2  and  C_3
REMARK    3  A    between atoms: C_2  and  C_4
REMARK    4  A    between atoms: C_2  and  N_5
REMARK    5  A    between atoms: C_6  and  C_10
REMARK    6  A    between atoms: C_14  and  N_16
REMARK                            x       y       z     vdW  Elec       q    Type
REMARK                         _______ _______ _______ _____ _____    ______ ____
ROOT
ATOM      1  C   UNL     1      -1.020  -2.383   1.729  0.00  0.00    +0.022 A 
ATOM      2  C   UNL     1      -0.782  -1.268   2.533  0.00  0.00    +0.013 A 
ATOM      3  C   UNL     1      -1.314  -1.208   3.805  0.00  0.00    +0.018 A 
ATOM      4  C   UNL     1      -2.084  -2.251   4.287  0.00  0.00    +0.039 A 
ATOM      5  C   UNL     1      -2.327  -3.366   3.492  0.00  0.00    +0.039 A 
ATOM      6  C   UNL     1      -1.800  -3.432   2.211  0.00  0.00    +0.035 A 
ATOM      7 BR   UNL     1      -2.809  -2.161   6.031  0.00  0.00    -0.048 Br
ENDROOT
BRANCH   1   9
ATOM      8  N   UNL     1      -0.242  -1.402  -0.473  0.00  0.00    -0.220 N 
ATOM      9  C   UNL     1      -0.451  -2.448   0.364  0.00  0.00    +0.182 A 
ATOM     10  N   UNL     1      -0.051  -3.532  -0.266  0.00  0.00    -0.108 NA
ATOM     11  N   UNL     1       0.391  -3.236  -1.435  0.00  0.00    -0.023 NA
ATOM     12  N   UNL     1       0.305  -1.966  -1.639  0.00  0.00    -0.043 NA
BRANCH   8  14
ATOM     13  C   UNL     1      -0.547   0.775  -1.546  0.00  0.00    +0.036 C 
ATOM     14  C   UNL     1      -0.530   0.012  -0.220  0.00  0.00    +0.059 C 
ATOM     15  C   UNL     1       0.551   0.597   0.691  0.00  0.00    +0.036 C 
ATOM     16  C   UNL     1      -1.894   0.141   0.460  0.00  0.00    +0.036 C 
ENDBRANCH   8  14
ENDBRANCH   1   9
BRANCH   5  17
ATOM     17  N   UNL     1      -3.105  -4.418   3.983  0.00  0.00    -0.357 N 
ATOM     18  H   UNL     1      -3.476  -4.371   4.878  0.00  0.00    +0.142 HD
ATOM     19  H   UNL     1      -3.274  -5.196   3.428  0.00  0.00    +0.142 HD
ENDBRANCH   5  17
TORSDOF 3
