REMARK  Name = ZINC46073486
REMARK  3 active torsions:
REMARK  status: ('A' for Active; 'I' for Inactive)
REMARK    1  A    between atoms: C_6  and  N_7
REMARK    2  A    between atoms: N_10  and  C_11
REMARK    3  A    between atoms: C_11  and  C_12
REMARK                            x       y       z     vdW  Elec       q    Type
REMARK                         _______ _______ _______ _____ _____    ______ ____
ROOT
ATOM      1  N   UNL     1      -1.372  -0.511   0.016  0.00  0.00    -0.297 N 
ATOM      2  C   UNL     1      -1.633  -1.739   0.506  0.00  0.00    +0.300 C 
ATOM      3  O   UNL     1      -0.727  -2.427   0.936  0.00  0.00    -0.253 OA
ATOM      4  N   UNL     1      -2.897  -2.206   0.519  0.00  0.00    -0.291 N 
ATOM      5  H   UNL     1      -2.095   0.037  -0.327  0.00  0.00    +0.151 HD
ATOM      6  H   UNL     1      -3.620  -1.657   0.176  0.00  0.00    +0.151 HD
ENDROOT
BRANCH   1  12
ATOM      7  C   UNL     1      -0.019   1.526   0.010  0.00  0.00    +0.027 C 
ATOM      8  C   UNL     1       1.417   2.055  -0.000  0.00  0.00    +0.067 C 
ATOM      9  C   UNL     1       2.133   1.557  -1.257  0.00  0.00    +0.170 C 
ATOM     10  C   UNL     1       2.152   0.028  -1.271  0.00  0.00    +0.067 C 
ATOM     11  C   UNL     1       0.715  -0.499  -1.258  0.00  0.00    +0.027 C 
ATOM     12  C   UNL     1       0.002  -0.004   0.002  0.00  0.00    +0.075 C 
ATOM     13  O   UNL     1       1.443   2.038  -2.422  0.00  0.00    -0.346 OA
ATOM     14  C   UNL     1       2.151   3.243  -2.800  0.00  0.00    +0.191 C 
ATOM     15  C   UNL     1       3.615   2.868  -2.459  0.00  0.00    +0.191 C 
ATOM     16  O   UNL     1       3.477   2.056  -1.276  0.00  0.00    -0.346 OA
ENDBRANCH   1  12
BRANCH   4  17
ATOM     17  C   UNL     1      -3.180  -3.541   1.052  0.00  0.00    +0.218 C 
BRANCH  17  18
ATOM     18  C   UNL     1      -4.680  -3.823   0.951  0.00  0.00    +0.405 C 
ATOM     19  F   UNL     1      -5.077  -3.762  -0.389  0.00  0.00    -0.169 F 
ATOM     20  F   UNL     1      -4.950  -5.098   1.460  0.00  0.00    -0.169 F 
ATOM     21  F   UNL     1      -5.385  -2.867   1.690  0.00  0.00    -0.169 F 
ENDBRANCH  17  18
ENDBRANCH   4  17
TORSDOF 3
