REMARK  Name = ZINC05746430
REMARK  5 active torsions:
REMARK  status: ('A' for Active; 'I' for Inactive)
REMARK    1  A    between atoms: C_1  and  C_2
REMARK    2  A    between atoms: C_5  and  S_8
REMARK    3  A    between atoms: S_8  and  N_11
REMARK    4  A    between atoms: N_11  and  N_12
REMARK    5  A    between atoms: C_21  and  C_24
REMARK                            x       y       z     vdW  Elec       q    Type
REMARK                         _______ _______ _______ _____ _____    ______ ____
ROOT
ATOM      1  N   UNL     1       2.500  -4.622   1.014  0.00  0.00    -0.134 NA
ATOM      2  C   UNL     1       3.746  -4.990   1.005  0.00  0.00    +0.203 C 
ATOM      3  N   UNL     1       4.292  -5.759  -0.030  0.00  0.00    -0.286 N 
ATOM      4  C   UNL     1       5.626  -5.519  -0.387  0.00  0.00    +0.039 A 
ATOM      5  C   UNL     1       6.136  -6.110  -1.537  0.00  0.00    +0.023 A 
ATOM      6  C   UNL     1       7.451  -5.895  -1.899  0.00  0.00    +0.002 A 
ATOM      7  C   UNL     1       8.260  -5.093  -1.115  0.00  0.00    +0.000 A 
ATOM      8  C   UNL     1       7.754  -4.500   0.026  0.00  0.00    +0.007 A 
ATOM      9  C   UNL     1       6.435  -4.705   0.392  0.00  0.00    -0.002 A 
ATOM     10  C   UNL     1       5.905  -4.020   1.627  0.00  0.00    +0.135 C 
ATOM     11  N   UNL     1       4.639  -4.639   2.029  0.00  0.00    -0.305 N 
ATOM     12  H   UNL     1       4.430  -4.800   2.962  0.00  0.00    +0.150 HD
ATOM     13  H   UNL     1       3.765  -6.434  -0.484  0.00  0.00    +0.155 HD
ENDROOT
BRANCH  10  14
ATOM     14  C   UNL     1       5.673  -2.561   1.330  0.00  0.00    -0.023 A 
ATOM     15  C   UNL     1       4.527  -2.164   0.667  0.00  0.00    +0.006 A 
ATOM     16  C   UNL     1       4.314  -0.826   0.395  0.00  0.00    +0.000 A 
ATOM     17  C   UNL     1       5.247   0.116   0.787  0.00  0.00    +0.000 A 
ATOM     18  C   UNL     1       6.392  -0.280   1.452  0.00  0.00    +0.000 A 
ATOM     19  C   UNL     1       6.603  -1.618   1.727  0.00  0.00    +0.006 A 
ENDBRANCH  10  14
BRANCH   1  20
ATOM     20  N   UNL     1       1.651  -4.999  -0.034  0.00  0.00    -0.134 N 
ATOM     21  H   UNL     1       1.993  -5.536  -0.767  0.00  0.00    +0.197 HD
BRANCH  20  22
ATOM     22  S   UNL     1       0.063  -4.530  -0.023  0.00  0.00    +0.087 S 
ATOM     23  O   UNL     1      -0.476  -4.950   1.223  0.00  0.00    -0.149 OA
ATOM     24  O   UNL     1      -0.490  -4.937  -1.267  0.00  0.00    -0.149 OA
BRANCH  22  29
ATOM     25  C   UNL     1      -0.018   1.503   0.010  0.00  0.00    +0.044 C 
ATOM     26  C   UNL     1       0.002  -0.004   0.002  0.00  0.00    -0.050 A 
ATOM     27  C   UNL     1       0.006  -0.689  -1.199  0.00  0.00    +0.005 A 
ATOM     28  C   UNL     1       0.025  -2.071  -1.206  0.00  0.00    +0.029 A 
ATOM     29  C   UNL     1       0.040  -2.768  -0.013  0.00  0.00    +0.110 A 
ATOM     30  C   UNL     1       0.037  -2.084   1.188  0.00  0.00    +0.029 A 
ATOM     31  C   UNL     1       0.023  -0.702   1.195  0.00  0.00    +0.005 A 
ENDBRANCH  22  29
ENDBRANCH  20  22
ENDBRANCH   1  20
TORSDOF 4
