REMARK  Name = ZINC39583042
REMARK  5 active torsions:
REMARK  status: ('A' for Active; 'I' for Inactive)
REMARK    1  A    between atoms: C_3  and  C_21
REMARK    2  A    between atoms: C_5  and  N_7
REMARK    3  A    between atoms: C_8  and  C_13
REMARK    4  A    between atoms: C_13  and  S_14
REMARK    5  A    between atoms: S_14  and  C_15
REMARK                            x       y       z     vdW  Elec       q    Type
REMARK                         _______ _______ _______ _____ _____    ______ ____
ROOT
ATOM      1  N   UNL     1       1.244  -2.085  -0.015  0.00  0.00    -0.263 N 
ATOM      2  C   UNL     1       0.067  -2.964   0.084  0.00  0.00    +0.153 C 
ATOM      3  N   UNL     1       0.597  -4.350   0.068  0.00  0.00    -0.328 NA
ATOM      4  N   UNL     1       1.995  -4.166   0.494  0.00  0.00    +0.410 N 
ATOM      5  N   UNL     1       2.358  -2.884  -0.130  0.00  0.00    -0.266 NA
ATOM      6  H   UNL     1       0.095  -4.936   0.718  0.00  0.00    +0.106 HD
ATOM      7  H   UNL     1       2.058  -4.109   1.500  0.00  0.00    -0.031 HD
ATOM      8  H   UNL     1       2.615  -3.009  -1.097  0.00  0.00    +0.125 HD
ATOM      9  H   UNL     1       2.577  -4.911   0.140  0.00  0.00    -0.031 HD
ENDROOT
BRANCH   1  14
ATOM     10  C   UNL     1       0.015   1.378  -0.029  0.00  0.00    +0.002 A 
ATOM     11  C   UNL     1       1.207   2.078   0.025  0.00  0.00    +0.012 A 
ATOM     12  C   UNL     1       2.410   1.399   0.064  0.00  0.00    +0.057 A 
ATOM     13  C   UNL     1       2.427   0.018   0.051  0.00  0.00    +0.036 A 
ATOM     14  C   UNL     1       1.232  -0.689  -0.002  0.00  0.00    +0.045 A 
ATOM     15  C   UNL     1       0.024  -0.003  -0.043  0.00  0.00    +0.024 A 
BRANCH  12  16
ATOM     16  C   UNL     1       3.706   2.166   0.122  0.00  0.00    +0.417 C 
ATOM     17  F   UNL     1       3.436   3.539   0.124  0.00  0.00    -0.166 F 
ATOM     18  F   UNL     1       4.399   1.825   1.288  0.00  0.00    -0.166 F 
ATOM     19  F   UNL     1       4.487   1.847  -0.994  0.00  0.00    -0.166 F 
ENDBRANCH  12  16
ENDBRANCH   1  14
BRANCH   2  20
ATOM     20  C   UNL     1      -0.682  -2.698   1.391  0.00  0.00    +0.115 C 
BRANCH  20  21
ATOM     21  S   UNL     1       0.463  -2.862   2.788  0.00  0.00    -0.081 S 
BRANCH  21  22
ATOM     22  C   UNL     1      -0.537  -2.531   4.201  0.00  0.00    +0.209 A 
ATOM     23  H   UNL     1      -3.099  -1.821   5.830  0.00  0.00    +0.190 HD
ATOM     24  N   UNL     1      -0.118  -2.537   5.470  0.00  0.00    -0.210 NA
ATOM     25  C   UNL     1      -1.116  -2.249   6.267  0.00  0.00    +0.217 A 
ATOM     26  N   UNL     1      -2.210  -2.049   5.514  0.00  0.00    -0.264 N 
ATOM     27  N   UNL     1      -1.815  -2.231   4.179  0.00  0.00    -0.146 NA
ENDBRANCH  21  22
ENDBRANCH  20  21
ENDBRANCH   2  20
TORSDOF 5
