REMARK  Name = ZINC39694373
REMARK  10 active torsions:
REMARK  status: ('A' for Active; 'I' for Inactive)
REMARK    1  A    between atoms: C_1  and  C_2
REMARK    2  A    between atoms: C_2  and  C_3
REMARK    3  A    between atoms: C_3  and  C_4
REMARK    4  A    between atoms: C_4  and  C_5
REMARK    5  A    between atoms: C_5  and  C_7
REMARK    6  A    between atoms: C_5  and  C_8
REMARK    7  A    between atoms: C_12  and  C_21
REMARK    8  A    between atoms: N_23  and  C_24
REMARK    9  A    between atoms: C_24  and  C_25
REMARK   10  A    between atoms: C_30  and  N_31
REMARK                            x       y       z     vdW  Elec       q    Type
REMARK                         _______ _______ _______ _____ _____    ______ ____
ROOT
ATOM      1  C   UNL     1       1.539  -4.822  -2.354  0.00  0.00    +0.218 C 
ATOM      2  O   UNL     1       1.399  -5.491  -1.352  0.00  0.00    -0.275 OA
ATOM      3  N   UNL     1       2.291  -5.283  -3.373  0.00  0.00    -0.300 N 
ATOM      4  C   UNL     1       2.582  -4.613  -4.663  0.00  0.00    +0.121 C 
ATOM      5  C   UNL     1       4.066  -4.939  -4.946  0.00  0.00    +0.100 C 
ATOM      6  C   UNL     1       4.343  -6.227  -4.153  0.00  0.00    -0.004 C 
ATOM      7  C   UNL     1       3.020  -6.571  -3.454  0.00  0.00    +0.115 C 
ATOM      8  C   UNL     1       5.434  -5.984  -3.114  0.00  0.00    -0.010 C 
ATOM      9  C   UNL     1       5.732  -7.293  -2.378  0.00  0.00    -0.082 C 
ATOM     10  N   UNL     1       6.165  -8.311  -3.343  0.00  0.00    +0.379 N 
ATOM     11  C   UNL     1       5.077  -8.606  -4.283  0.00  0.00    -0.082 C 
ATOM     12  C   UNL     1       4.750  -7.352  -5.099  0.00  0.00    -0.010 C 
ATOM     13  H   UNL     1       6.965  -7.970  -3.854  0.00  0.00    -0.086 HD
ATOM     14  H   UNL     1       6.419  -9.154  -2.849  0.00  0.00    -0.086 HD
ENDROOT
BRANCH   5  15
ATOM     15  C   UNL     1       4.281  -5.170  -6.419  0.00  0.00    +0.218 C 
ATOM     16  O   UNL     1       3.488  -5.836  -7.050  0.00  0.00    -0.275 OA
ATOM     17  N   UNL     1       5.354  -4.636  -7.036  0.00  0.00    -0.311 N 
ATOM     18  H   UNL     1       5.988  -4.103  -6.531  0.00  0.00    +0.149 HD
BRANCH  17  19
ATOM     19  C   UNL     1       5.562  -4.861  -8.468  0.00  0.00    +0.141 C 
BRANCH  19  20
ATOM     20  C   UNL     1       6.823  -4.162  -8.908  0.00  0.00    -0.009 A 
ATOM     21  C   UNL     1       6.750  -2.937  -9.541  0.00  0.00    +0.007 A 
ATOM     22  C   UNL     1       7.906  -2.296  -9.945  0.00  0.00    +0.000 A 
ATOM     23  C   UNL     1       9.140  -2.878  -9.717  0.00  0.00    +0.002 A 
ATOM     24  C   UNL     1       9.220  -4.102  -9.084  0.00  0.00    +0.023 A 
ATOM     25  C   UNL     1       8.061  -4.747  -8.671  0.00  0.00    +0.035 A 
BRANCH  25  26
ATOM     26  N   UNL     1       8.139  -5.983  -8.026  0.00  0.00    -0.325 N 
ATOM     27  C   UNL     1       8.123  -7.240  -8.792  0.00  0.00    +0.133 C 
ATOM     28  C   UNL     1       9.305  -8.101  -8.332  0.00  0.00    +0.178 C 
ATOM     29  O   UNL     1       9.270  -8.225  -6.908  0.00  0.00    -0.377 OA
ATOM     30  C   UNL     1       9.415  -6.986  -6.209  0.00  0.00    +0.178 C 
ATOM     31  C   UNL     1       8.245  -6.068  -6.561  0.00  0.00    +0.133 C 
ENDBRANCH  25  26
ENDBRANCH  19  20
ENDBRANCH  17  19
ENDBRANCH   5  15
BRANCH   1  32
ATOM     32  C   UNL     1       0.872  -3.475  -2.459  0.00  0.00    +0.072 C 
ATOM     33  C   UNL     1      -0.083  -3.471  -3.655  0.00  0.00    +0.017 C 
BRANCH  32  34
ATOM     34  C   UNL     1       0.085  -3.194  -1.177  0.00  0.00    +0.012 C 
BRANCH  34  35
ATOM     35  C   UNL     1      -0.489  -1.776  -1.232  0.00  0.00    +0.000 C 
BRANCH  35  37
ATOM     36  C   UNL     1      -1.850  -0.078  -0.005  0.00  0.00    +0.004 C 
ATOM     37  C   UNL     1      -1.276  -1.495   0.050  0.00  0.00    -0.003 C 
ENDBRANCH  35  37
ENDBRANCH  34  35
ENDBRANCH  32  34
ENDBRANCH   1  32
TORSDOF 8
