REMARK  Name = ZINC08583056
REMARK  16 active torsions:
REMARK  status: ('A' for Active; 'I' for Inactive)
REMARK    1  A    between atoms: C_1  and  N_2
REMARK    2  A    between atoms: C_8  and  N_14
REMARK    3  A    between atoms: C_9  and  C_10
REMARK    4  A    between atoms: C_10  and  O_12
REMARK    5  A    between atoms: O_12  and  C_13
REMARK    6  A    between atoms: C_15  and  C_17
REMARK    7  A    between atoms: C_20  and  S_23
REMARK    8  A    between atoms: S_23  and  N_26
REMARK    9  A    between atoms: N_26  and  C_27
REMARK   10  A    between atoms: N_26  and  C_31
REMARK   11  A    between atoms: C_27  and  C_28
REMARK   12  A    between atoms: C_28  and  O_29
REMARK   13  A    between atoms: O_29  and  C_30
REMARK   14  A    between atoms: C_31  and  C_32
REMARK   15  A    between atoms: C_32  and  O_33
REMARK   16  A    between atoms: O_33  and  C_34
REMARK                            x       y       z     vdW  Elec       q    Type
REMARK                         _______ _______ _______ _____ _____    ______ ____
ROOT
ATOM      1  N   UNL     1       0.848  -5.856   2.218  0.00  0.00    -0.275 N 
ATOM      2  C   UNL     1       1.839  -6.104   3.098  0.00  0.00    +0.249 C 
ATOM      3  O   UNL     1       2.520  -5.190   3.520  0.00  0.00    -0.270 OA
ATOM      4  H   UNL     1       0.305  -6.586   1.881  0.00  0.00    +0.156 HD
ENDROOT
BRANCH   1  12
ATOM      5  C   UNL     1      -0.018   1.465   0.010  0.00  0.00    -0.096 C 
ATOM      6  N   UNL     1       0.002  -0.004   0.002  0.00  0.00    +0.381 N 
ATOM      7  C   UNL     1      -1.376  -0.512   0.008  0.00  0.00    -0.074 C 
ATOM      8  C   UNL     1      -1.389  -2.010  -0.313  0.00  0.00    +0.018 C 
ATOM      9  C   UNL     1      -0.409  -2.698   0.627  0.00  0.00    -0.025 A 
ATOM     10  C   UNL     1       0.522  -1.973   1.288  0.00  0.00    -0.021 A 
ATOM     11  S   UNL     1       1.416  -3.159   2.244  0.00  0.00    -0.079 S 
ATOM     12  C   UNL     1       0.606  -4.560   1.795  0.00  0.00    +0.086 A 
ATOM     13  C   UNL     1      -0.363  -4.120   0.903  0.00  0.00    +0.091 A 
ATOM     14  C   UNL     1       0.715  -0.492   1.197  0.00  0.00    -0.036 C 
ATOM     15  H   UNL     1       0.475  -0.329  -0.828  0.00  0.00    -0.082 HD
BRANCH  13  16
ATOM     16  C   UNL     1      -1.299  -5.052   0.271  0.00  0.00    +0.342 C 
ATOM     17  O   UNL     1      -1.014  -5.573  -0.791  0.00  0.00    -0.245 OA
BRANCH  16  18
ATOM     18  O   UNL     1      -2.477  -5.333   0.865  0.00  0.00    -0.464 OA
ATOM     19  C   UNL     1      -3.341  -6.251   0.191  0.00  0.00    +0.280 C 
ENDBRANCH  16  18
ENDBRANCH  13  16
ENDBRANCH   1  12
BRANCH   2  20
ATOM     20  C   UNL     1       2.098  -7.487   3.549  0.00  0.00    +0.037 A 
ATOM     21  C   UNL     1       1.321  -8.540   3.062  0.00  0.00    +0.015 A 
ATOM     22  C   UNL     1       1.568  -9.829   3.487  0.00  0.00    +0.029 A 
ATOM     23  C   UNL     1       2.583 -10.080   4.394  0.00  0.00    +0.106 A 
ATOM     24  C   UNL     1       3.356  -9.040   4.881  0.00  0.00    +0.029 A 
ATOM     25  C   UNL     1       3.123  -7.748   4.460  0.00  0.00    +0.015 A 
BRANCH  23  26
ATOM     26  S   UNL     1       2.890 -11.729   4.933  0.00  0.00    +0.061 S 
ATOM     27  O   UNL     1       3.534 -11.630   6.196  0.00  0.00    -0.153 OA
ATOM     28  O   UNL     1       1.679 -12.449   4.750  0.00  0.00    -0.153 OA
BRANCH  26  29
ATOM     29  N   UNL     1       3.995 -12.386   3.889  0.00  0.00    -0.172 NA
BRANCH  29  30
ATOM     30  C   UNL     1       5.428 -12.260   4.163  0.00  0.00    +0.137 C 
BRANCH  30  31
ATOM     31  C   UNL     1       5.919 -13.512   4.894  0.00  0.00    +0.176 C 
BRANCH  31  32
ATOM     32  O   UNL     1       5.798 -14.645   4.032  0.00  0.00    -0.382 OA
ATOM     33  C   UNL     1       6.232 -15.873   4.621  0.00  0.00    +0.194 C 
ENDBRANCH  31  32
ENDBRANCH  30  31
ENDBRANCH  29  30
BRANCH  29  34
ATOM     34  C   UNL     1       3.538 -13.095   2.690  0.00  0.00    +0.137 C 
BRANCH  34  35
ATOM     35  C   UNL     1       3.532 -12.132   1.501  0.00  0.00    +0.176 C 
BRANCH  35  36
ATOM     36  O   UNL     1       4.871 -11.724   1.212  0.00  0.00    -0.382 OA
ATOM     37  C   UNL     1       4.978 -10.819   0.111  0.00  0.00    +0.194 C 
ENDBRANCH  35  36
ENDBRANCH  34  35
ENDBRANCH  29  34
ENDBRANCH  26  29
ENDBRANCH  23  26
ENDBRANCH   2  20
TORSDOF 12
