REMARK  Name = ZINC52841631
REMARK  6 active torsions:
REMARK  status: ('A' for Active; 'I' for Inactive)
REMARK    1  A    between atoms: C_1  and  C_2
REMARK    2  A    between atoms: C_4  and  C_19
REMARK    3  A    between atoms: C_6  and  O_8
REMARK    4  A    between atoms: O_8  and  C_9
REMARK    5  A    between atoms: C_12  and  N_16
REMARK    6  A    between atoms: C_14  and  N_15
REMARK                            x       y       z     vdW  Elec       q    Type
REMARK                         _______ _______ _______ _____ _____    ______ ____
ROOT
ATOM      1  C   UNL     1      -1.035  -2.675   3.171  0.00  0.00    +0.149 A 
ATOM      2  C   UNL     1      -2.154  -1.975   2.751  0.00  0.00    +0.050 A 
ATOM      3  C   UNL     1      -3.257  -1.874   3.579  0.00  0.00    +0.036 A 
ATOM      4  C   UNL     1      -3.247  -2.470   4.827  0.00  0.00    +0.128 A 
ATOM      5  C   UNL     1      -2.134  -3.170   5.253  0.00  0.00    +0.059 A 
ATOM      6  C   UNL     1      -1.026  -3.281   4.426  0.00  0.00    +0.070 A 
ENDROOT
BRANCH   6   7
ATOM      7  N   UNL     1       0.099  -3.995   4.853  0.00  0.00    -0.355 N 
ATOM      8  H   UNL     1       0.875  -4.068   4.275  0.00  0.00    +0.142 HD
ATOM      9  H   UNL     1       0.104  -4.416   5.726  0.00  0.00    +0.142 HD
ENDBRANCH   6   7
BRANCH   4  10
ATOM     10  N   UNL     1      -4.431  -2.357   5.708  0.00  0.00    +0.056 N 
ATOM     11  O   UNL     1      -5.405  -1.744   5.337  0.00  0.00    -0.126 OA
ATOM     12  O   UNL     1      -4.424  -2.877   6.799  0.00  0.00    -0.126 OA
ENDBRANCH   4  10
BRANCH   1  13
ATOM     13  O   UNL     1       0.051  -2.776   2.358  0.00  0.00    -0.454 OA
BRANCH  13  19
ATOM     14  C   UNL     1       0.155   1.540   0.081  0.00  0.00    +0.044 C 
ATOM     15  C   UNL     1       0.096   0.035   0.048  0.00  0.00    -0.047 A 
ATOM     16  C   UNL     1       0.038  -0.628  -1.164  0.00  0.00    +0.007 A 
ATOM     17  C   UNL     1      -0.016  -2.009  -1.198  0.00  0.00    -0.047 A 
ATOM     18  C   UNL     1      -0.012  -2.731  -0.020  0.00  0.00    +0.049 A 
ATOM     19  C   UNL     1       0.047  -2.068   1.198  0.00  0.00    +0.129 A 
ATOM     20  C   UNL     1       0.106  -0.682   1.229  0.00  0.00    +0.049 A 
ATOM     21  C   UNL     1      -0.080  -2.728  -2.521  0.00  0.00    +0.044 C 
ENDBRANCH  13  19
ENDBRANCH   1  13
TORSDOF 4
