REMARK  Name = ZINC58117785
REMARK  8 active torsions:
REMARK  status: ('A' for Active; 'I' for Inactive)
REMARK    1  A    between atoms: C_1  and  C_2
REMARK    2  A    between atoms: C_2  and  N_3
REMARK    3  A    between atoms: C_6  and  C_24
REMARK    4  A    between atoms: C_7  and  C_15
REMARK    5  A    between atoms: N_10  and  C_13
REMARK    6  A    between atoms: C_13  and  C_14
REMARK    7  A    between atoms: C_15  and  C_17
REMARK    8  A    between atoms: C_15  and  N_23
REMARK                            x       y       z     vdW  Elec       q    Type
REMARK                         _______ _______ _______ _____ _____    ______ ____
ROOT
ATOM      1  N   UNL     1       0.688  -0.476  -1.203  0.00  0.00    -0.292 N 
ATOM      2  C   UNL     1       0.087  -0.744  -2.431  0.00  0.00    +0.070 A 
ATOM      3  C   UNL     1      -1.220  -0.666  -2.888  0.00  0.00    +0.031 A 
ATOM      4  C   UNL     1      -1.513  -1.008  -4.193  0.00  0.00    -0.047 A 
ATOM      5  C   UNL     1      -0.508  -1.429  -5.048  0.00  0.00    -0.054 A 
ATOM      6  C   UNL     1       0.796  -1.510  -4.601  0.00  0.00    +0.030 A 
ATOM      7  C   UNL     1       1.101  -1.168  -3.293  0.00  0.00    +0.070 A 
ATOM      8  N   UNL     1       2.286  -1.145  -2.562  0.00  0.00    -0.292 N 
ATOM      9  C   UNL     1       2.007  -0.720  -1.315  0.00  0.00    +0.330 A 
ATOM     10  O   UNL     1       2.823  -0.581  -0.423  0.00  0.00    -0.246 OA
ATOM     11  C   UNL     1      -2.934  -0.923  -4.690  0.00  0.00    +0.044 C 
ENDROOT
BRANCH   1  13
ATOM     12  C   UNL     1      -0.019   1.526   0.010  0.00  0.00    +0.027 C 
ATOM     13  C   UNL     1       0.002  -0.004   0.002  0.00  0.00    +0.123 C 
ENDBRANCH   1  13
BRANCH   8  14
ATOM     14  C   UNL     1       3.611  -1.513  -3.066  0.00  0.00    +0.123 C 
ATOM     15  C   UNL     1       4.297  -0.275  -3.649  0.00  0.00    +0.027 C 
ENDBRANCH   8  14
BRANCH   5  16
ATOM     16  C   UNL     1      -0.839  -1.799  -6.470  0.00  0.00    -0.015 C 
BRANCH  16  17
ATOM     17  C   UNL     1      -0.849  -0.539  -7.337  0.00  0.00    +0.108 C 
ATOM     18  C   UNL     1      -1.183  -0.910  -8.798  0.00  0.00    +0.032 C 
ATOM     19  C   UNL     1      -0.237   0.025  -9.600  0.00  0.00    +0.030 C 
ATOM     20  C   UNL     1       0.993   0.077  -8.660  0.00  0.00    +0.160 C 
ATOM     21  O   UNL     1       0.449   0.067  -7.328  0.00  0.00    -0.378 OA
ENDBRANCH  16  17
BRANCH  16  22
ATOM     22  N   UNL     1       0.171  -2.736  -6.980  0.00  0.00    +0.384 N 
ATOM     23  H   UNL     1       0.177  -3.568  -6.408  0.00  0.00    -0.089 HD
ATOM     24  H   UNL     1      -0.051  -2.985  -7.932  0.00  0.00    -0.089 HD
ATOM     25  H   UNL     1       1.080  -2.300  -6.949  0.00  0.00    -0.089 HD
ENDBRANCH  16  22
ENDBRANCH   5  16
TORSDOF 5
