REMARK  Name = ZINC44483316
REMARK  4 active torsions:
REMARK  status: ('A' for Active; 'I' for Inactive)
REMARK    1  A    between atoms: C_3  and  N_9
REMARK    2  A    between atoms: C_4  and  N_8
REMARK    3  A    between atoms: C_10  and  C_12
REMARK    4  A    between atoms: C_17  and  O_18
REMARK                            x       y       z     vdW  Elec       q    Type
REMARK                         _______ _______ _______ _____ _____    ______ ____
ROOT
ATOM      1  N   UNL     1       3.584   2.139  -0.022  0.00  0.00    -0.280 N 
ATOM      2  C   UNL     1       3.564   3.483  -0.117  0.00  0.00    +0.252 C 
ATOM      3  O   UNL     1       2.503   4.078  -0.103  0.00  0.00    -0.270 OA
ATOM      4  H   UNL     1       4.430   1.670   0.048  0.00  0.00    +0.155 HD
ENDROOT
BRANCH   1   7
ATOM      5  C   UNL     1       0.065   1.244  -0.621  0.00  0.00    +0.040 A 
ATOM      6  C   UNL     1       1.250   1.956  -0.618  0.00  0.00    +0.028 A 
ATOM      7  C   UNL     1       2.382   1.418  -0.025  0.00  0.00    +0.055 A 
ATOM      8  C   UNL     1       2.321   0.157   0.569  0.00  0.00    +0.049 A 
ATOM      9  C   UNL     1       1.129  -0.551   0.563  0.00  0.00    +0.063 A 
ATOM     10  C   UNL     1       0.004  -0.007  -0.032  0.00  0.00    +0.125 A 
ATOM     11  F   UNL     1      -1.157  -0.699  -0.037  0.00  0.00    -0.205 F 
BRANCH   8  12
ATOM     12  N   UNL     1       3.460  -0.391   1.169  0.00  0.00    -0.356 N 
ATOM     13  H   UNL     1       4.293   0.106   1.172  0.00  0.00    +0.142 HD
ATOM     14  H   UNL     1       3.417  -1.268   1.581  0.00  0.00    +0.142 HD
ENDBRANCH   8  12
ENDBRANCH   1   7
BRANCH   2  15
ATOM     15  C   UNL     1       4.828   4.233  -0.237  0.00  0.00    +0.078 A 
ATOM     16  C   UNL     1       6.049   3.553  -0.259  0.00  0.00    +0.018 A 
ATOM     17  C   UNL     1       7.227   4.258  -0.372  0.00  0.00    +0.016 A 
ATOM     18  C   UNL     1       7.207   5.642  -0.463  0.00  0.00    +0.021 A 
ATOM     19  C   UNL     1       6.007   6.326  -0.443  0.00  0.00    +0.061 A 
ATOM     20  C   UNL     1       4.812   5.631  -0.336  0.00  0.00    +0.130 A 
ATOM     21 BR   UNL     1       8.832   6.597  -0.617  0.00  0.00    -0.050 Br
BRANCH  20  22
ATOM     22  O   UNL     1       3.633   6.301  -0.321  0.00  0.00    -0.506 OA
ATOM     23  H   UNL     1       3.337   6.558   0.563  0.00  0.00    +0.292 HD
ENDBRANCH  20  22
ENDBRANCH   2  15
TORSDOF 4
