REMARK  Name = ZINC14034816
REMARK  7 active torsions:
REMARK  status: ('A' for Active; 'I' for Inactive)
REMARK    1  A    between atoms: C_1  and  C_2
REMARK    2  A    between atoms: C_3  and  C_20
REMARK    3  A    between atoms: C_9  and  C_13
REMARK    4  A    between atoms: C_13  and  C_14
REMARK    5  A    between atoms: N_16  and  C_17
REMARK    6  A    between atoms: C_17  and  C_18
REMARK    7  A    between atoms: C_17  and  C_19
REMARK                            x       y       z     vdW  Elec       q    Type
REMARK                         _______ _______ _______ _____ _____    ______ ____
ROOT
ATOM      1  C   UNL     1       4.230   1.061  -3.486  0.00  0.00    +0.051 C 
ATOM      2  C   UNL     1       3.969   2.463  -3.001  0.00  0.00    +0.035 A 
ATOM      3  C   UNL     1       4.320   3.534  -3.770  0.00  0.00    +0.049 A 
ATOM      4  N   UNL     1       4.078   4.761  -3.316  0.00  0.00    -0.228 NA
ATOM      5  C   UNL     1       3.510   4.966  -2.146  0.00  0.00    +0.172 A 
ATOM      6  N   UNL     1       3.128   3.958  -1.320  0.00  0.00    -0.283 N 
ATOM      7  C   UNL     1       3.366   2.677  -1.757  0.00  0.00    +0.258 A 
ATOM      8  O   UNL     1       3.049   1.726  -1.062  0.00  0.00    -0.267 OA
ATOM      9  C   UNL     1       2.509   4.297  -0.040  0.00  0.00    +0.112 C 
ATOM     10  C   UNL     1       2.361   5.805   0.210  0.00  0.00    +0.103 C 
ATOM     11  S   UNL     1       3.087   6.488  -1.325  0.00  0.00    -0.086 S 
ATOM     12  C   UNL     1       4.971   3.331  -5.114  0.00  0.00    +0.066 C 
ENDROOT
BRANCH   9  13
ATOM     13  C   UNL     1       1.120   3.657   0.011  0.00  0.00    +0.121 C 
BRANCH  13  14
ATOM     14  C   UNL     1       0.566   3.770   1.408  0.00  0.00    +0.215 C 
ATOM     15  O   UNL     1       1.258   4.213   2.301  0.00  0.00    -0.276 OA
ATOM     16  N   UNL     1      -0.698   3.379   1.666  0.00  0.00    -0.313 N 
ATOM     17  H   UNL     1      -1.250   3.021   0.953  0.00  0.00    +0.149 HD
BRANCH  16  18
ATOM     18  C   UNL     1      -1.236   3.488   3.024  0.00  0.00    +0.067 C 
ATOM     19  C   UNL     1      -2.761   3.594   2.961  0.00  0.00    +0.027 C 
ATOM     20  C   UNL     1      -0.844   2.248   3.829  0.00  0.00    +0.027 C 
ENDBRANCH  16  18
ENDBRANCH  13  14
ENDBRANCH   9  13
TORSDOF 3
