REMARK  Name = ZINC54904705
REMARK  5 active torsions:
REMARK  status: ('A' for Active; 'I' for Inactive)
REMARK    1  A    between atoms: C_1  and  C_2
REMARK    2  A    between atoms: C_2  and  C_3
REMARK    3  A    between atoms: C_15  and  N_20
REMARK    4  A    between atoms: N_20  and  C_21
REMARK    5  A    between atoms: C_21  and  C_22
REMARK                            x       y       z     vdW  Elec       q    Type
REMARK                         _______ _______ _______ _____ _____    ______ ____
ROOT
ATOM      1  C   UNL     1      -1.320  -0.074  -0.291  0.00  0.00    +0.101 C 
ATOM      2  C   UNL     1      -1.453  -1.594  -0.441  0.00  0.00    +0.182 C 
ATOM      3  O   UNL     1      -2.834  -1.955  -0.363  0.00  0.00    -0.376 OA
ATOM      4  C   UNL     1      -3.450  -1.647   0.890  0.00  0.00    +0.179 C 
ATOM      5  C   UNL     1      -3.419  -0.130   1.108  0.00  0.00    +0.135 C 
ATOM      6  N   UNL     1      -2.035   0.337   0.927  0.00  0.00    -0.302 N 
ATOM      7  C   UNL     1      -1.424   1.141   1.877  0.00  0.00    +0.161 A 
ATOM      8  N   UNL     1      -0.243   1.718   1.822  0.00  0.00    -0.229 NA
ATOM      9  C   UNL     1       0.219   2.470   2.819  0.00  0.00    +0.052 A 
ATOM     10  C   UNL     1      -0.619   2.589   3.879  0.00  0.00    +0.000 A 
ATOM     11  S   UNL     1      -2.015   1.622   3.380  0.00  0.00    -0.059 S 
ATOM     12  C   UNL     1      -0.393   3.357   5.137  0.00  0.00    -0.032 C 
ATOM     13  C   UNL     1       0.793   4.309   4.912  0.00  0.00    -0.010 C 
ATOM     14  C   UNL     1       1.938   3.526   4.262  0.00  0.00    +0.005 C 
ATOM     15  C   UNL     1       1.574   3.163   2.820  0.00  0.00    +0.056 C 
ENDROOT
BRANCH  12  16
ATOM     16  N   UNL     1      -1.596   4.133   5.466  0.00  0.00    +0.384 N 
ATOM     17  H   UNL     1      -1.746   4.837   4.759  0.00  0.00    -0.085 HD
ATOM     18  H   UNL     1      -2.394   3.517   5.503  0.00  0.00    -0.085 HD
BRANCH  16  19
ATOM     19  C   UNL     1      -1.418   4.782   6.772  0.00  0.00    -0.085 C 
ATOM     20  C   UNL     1      -2.717   5.484   7.175  0.00  0.00    -0.017 C 
ENDBRANCH  16  19
ENDBRANCH  12  16
BRANCH   1  22
ATOM     21  C   UNL     1       0.896  -0.123  -1.443  0.00  0.00    +0.006 C 
ATOM     22  C   UNL     1       0.158   0.304  -0.173  0.00  0.00    +0.021 C 
ENDBRANCH   1  22
TORSDOF 3
