REMARK  Name = ZINC40508462
REMARK  5 active torsions:
REMARK  status: ('A' for Active; 'I' for Inactive)
REMARK    1  A    between atoms: C_1  and  C_2
REMARK    2  A    between atoms: N_4  and  N_5
REMARK    3  A    between atoms: C_6  and  C_8
REMARK    4  A    between atoms: C_8  and  N_9
REMARK    5  A    between atoms: C_13  and  C_15
REMARK                            x       y       z     vdW  Elec       q    Type
REMARK                         _______ _______ _______ _____ _____    ______ ____
ROOT
ATOM      1  N   UNL     1      -3.652  -4.800   0.011  0.00  0.00    +0.393 N 
ATOM      2  C   UNL     1      -4.304  -4.445   1.290  0.00  0.00    -0.077 C 
ATOM      3  C   UNL     1      -5.211  -5.656   1.621  0.00  0.00    -0.020 C 
ATOM      4  C   UNL     1      -4.340  -6.843   1.132  0.00  0.00    -0.008 C 
ATOM      5  C   UNL     1      -3.640  -6.268  -0.118  0.00  0.00    +0.020 C 
ATOM      6  H   UNL     1      -4.170  -4.396  -0.755  0.00  0.00    -0.080 HD
ENDROOT
BRANCH   5   7
ATOM      7  C   UNL     1      -4.389  -6.680  -1.359  0.00  0.00    +0.202 C 
ATOM      8  O   UNL     1      -4.888  -5.837  -2.074  0.00  0.00    -0.277 OA
ATOM      9  N   UNL     1      -4.504  -7.985  -1.675  0.00  0.00    -0.300 N 
ATOM     10  C   UNL     1      -3.911  -9.024  -0.819  0.00  0.00    +0.123 C 
ATOM     11  C   UNL     1      -3.063  -9.952  -1.695  0.00  0.00    +0.100 C 
ATOM     12  N   UNL     1      -3.882 -10.455  -2.806  0.00  0.00    -0.313 NA
ATOM     13  C   UNL     1      -4.324  -9.360  -3.680  0.00  0.00    +0.100 C 
ATOM     14  C   UNL     1      -5.230  -8.409  -2.882  0.00  0.00    +0.123 C 
ATOM     15  H   UNL     1      -3.385 -11.159  -3.332  0.00  0.00    +0.122 HD
ENDBRANCH   5   7
BRANCH   1  16
ATOM     16  C   UNL     1      -2.274  -4.291   0.001  0.00  0.00    +0.021 C 
BRANCH  16  18
ATOM     17  N   UNL     1      -1.137  -2.095   0.002  0.00  0.00    -0.236 N 
ATOM     18  C   UNL     1      -2.295  -2.784   0.009  0.00  0.00    +0.213 C 
ATOM     19  O   UNL     1      -3.353  -2.192   0.022  0.00  0.00    -0.276 OA
ATOM     20  H   UNL     1      -0.290  -2.568  -0.009  0.00  0.00    +0.173 HD
BRANCH  17  24
ATOM     21  C   UNL     1      -0.018   1.503   0.010  0.00  0.00    +0.110 C 
ATOM     22  C   UNL     1       0.002  -0.004   0.002  0.00  0.00    +0.226 C 
ATOM     23  O   UNL     1       1.060  -0.596  -0.011  0.00  0.00    -0.275 OA
ATOM     24  N   UNL     1      -1.156  -0.694   0.009  0.00  0.00    -0.235 N 
ATOM     25  H   UNL     1      -2.002  -0.220   0.020  0.00  0.00    +0.173 HD
ENDBRANCH  17  24
ENDBRANCH  16  18
ENDBRANCH   1  16
TORSDOF 4
