REMARK  Name = ZINC65393724
REMARK  7 active torsions:
REMARK  status: ('A' for Active; 'I' for Inactive)
REMARK    1  A    between atoms: C_1  and  C_2
REMARK    2  A    between atoms: C_4  and  C_14
REMARK    3  A    between atoms: C_7  and  C_12
REMARK    4  A    between atoms: C_14  and  C_15
REMARK    5  A    between atoms: C_15  and  N_16
REMARK    6  A    between atoms: C_17  and  C_19
REMARK    7  A    between atoms: N_26  and  C_28
REMARK                            x       y       z     vdW  Elec       q    Type
REMARK                         _______ _______ _______ _____ _____    ______ ____
ROOT
ATOM      1  C   UNL     1       1.364  -0.962  -3.578  0.00  0.00    +0.108 C 
ENDROOT
BRANCH   1   2
ATOM      2  N   UNL     1       0.998  -0.728  -4.977  0.00  0.00    -0.315 N 
ATOM      3  C   UNL     1       1.751  -1.248  -5.966  0.00  0.00    +0.219 C 
ATOM      4  O   UNL     1       2.732  -1.910  -5.698  0.00  0.00    -0.275 OA
ATOM      5  H   UNL     1       0.214  -0.199  -5.191  0.00  0.00    +0.149 HD
BRANCH   3   6
ATOM      6  C   UNL     1       1.375  -1.007  -7.406  0.00  0.00    +0.047 C 
ATOM      7  C   UNL     1       1.405   0.490  -7.778  0.00  0.00    -0.065 C 
ATOM      8  N   UNL     1       2.717   0.687  -8.445  0.00  0.00    +0.380 N 
ATOM      9  C   UNL     1       2.890  -0.532  -9.276  0.00  0.00    -0.077 C 
ATOM     10  C   UNL     1       2.359  -1.684  -8.398  0.00  0.00    +0.000 C 
ATOM     11  C   UNL     1       1.478  -2.615  -9.256  0.00  0.00    +0.086 C 
ATOM     12  N   UNL     1       0.289  -2.894  -8.410  0.00  0.00    -0.304 NA
ATOM     13  C   UNL     1      -0.008  -1.594  -7.758  0.00  0.00    +0.098 C 
ATOM     14  C   UNL     1      -0.845  -3.344  -9.228  0.00  0.00    +0.104 C 
ATOM     15  H   UNL     1       2.697   1.511  -9.027  0.00  0.00    -0.086 HD
ATOM     16  H   UNL     1       3.455   0.754  -7.760  0.00  0.00    -0.086 HD
ENDBRANCH   3   6
ENDBRANCH   1   2
BRANCH   1  17
ATOM     17  C   UNL     1       0.353  -0.268  -2.663  0.00  0.00    +0.052 C 
BRANCH  17  20
ATOM     18  C   UNL     1      -0.019   1.526   0.010  0.00  0.00    +0.035 C 
ATOM     19  C   UNL     1       0.002  -0.004   0.002  0.00  0.00    +0.103 C 
ATOM     20  C   UNL     1       0.729  -0.509  -1.224  0.00  0.00    -0.037 C 
ATOM     21  C   UNL     1       1.789  -1.222  -0.766  0.00  0.00    +0.000 A 
ATOM     22  C   UNL     1       2.819  -1.927  -1.441  0.00  0.00    +0.028 A 
ATOM     23  C   UNL     1       3.793  -2.581  -0.723  0.00  0.00    +0.052 A 
ATOM     24  C   UNL     1       3.796  -2.568   0.736  0.00  0.00    +0.021 A 
ATOM     25  C   UNL     1       2.843  -1.914   1.431  0.00  0.00    +0.027 A 
ATOM     26  C   UNL     1       1.780  -1.201   0.714  0.00  0.00    +0.043 A 
ATOM     27  N   UNL     1       0.758  -0.506   1.154  0.00  0.00    -0.378 N 
ATOM     28  H   UNL     1       0.539  -0.349   2.086  0.00  0.00    +0.160 HD
BRANCH  23  29
ATOM     29  C   UNL     1       4.825  -3.287  -1.421  0.00  0.00    +0.099 C 
ATOM     30  N   UNL     1       5.644  -3.848  -1.975  0.00  0.00    -0.191 NA
ENDBRANCH  23  29
ENDBRANCH  17  20
ENDBRANCH   1  17
TORSDOF 5
