REMARK  Name = ZINC53165168
REMARK  4 active torsions:
REMARK  status: ('A' for Active; 'I' for Inactive)
REMARK    1  A    between atoms: C_5  and  N_10
REMARK    2  A    between atoms: C_6  and  N_7
REMARK    3  A    between atoms: N_10  and  C_11
REMARK    4  A    between atoms: C_14  and  N_16
REMARK                            x       y       z     vdW  Elec       q    Type
REMARK                         _______ _______ _______ _____ _____    ______ ____
ROOT
ATOM      1  C   UNL     1       1.308   1.583  -0.579  0.00  0.00    +0.037 A 
ATOM      2  C   UNL     1       0.977   2.046   0.681  0.00  0.00    +0.043 A 
ATOM      3  C   UNL     1       0.745   1.151   1.712  0.00  0.00    +0.160 A 
ATOM      4  C   UNL     1       0.845  -0.211   1.482  0.00  0.00    +0.181 A 
ATOM      5  C   UNL     1       1.177  -0.677   0.216  0.00  0.00    +0.096 A 
ATOM      6  C   UNL     1       1.408   0.225  -0.814  0.00  0.00    +0.150 A 
ATOM      7  F   UNL     1       0.619  -1.086   2.487  0.00  0.00    -0.200 F 
ATOM      8  F   UNL     1       0.422   1.606   2.942  0.00  0.00    -0.202 F 
ENDROOT
BRANCH   6   9
ATOM      9  N   UNL     1       1.762  -0.268  -2.164  0.00  0.00    +0.058 N 
ATOM     10  O   UNL     1       2.061   0.516  -3.035  0.00  0.00    -0.126 OA
ATOM     11  O   UNL     1       1.753  -1.454  -2.397  0.00  0.00    -0.126 OA
ENDBRANCH   6   9
BRANCH   5  12
ATOM     12  N   UNL     1       1.279  -2.052  -0.021  0.00  0.00    -0.339 N 
ATOM     13  H   UNL     1       0.508  -2.548  -0.337  0.00  0.00    +0.146 HD
BRANCH  12  14
ATOM     14  C   UNL     1       2.551  -2.742   0.208  0.00  0.00    +0.055 C 
ATOM     15  C   UNL     1       2.519  -4.021   1.047  0.00  0.00    +0.006 C 
ATOM     16  C   UNL     1       2.747  -4.103  -0.464  0.00  0.00    -0.053 C 
BRANCH  16  17
ATOM     17  N   UNL     1       1.646  -4.616  -1.290  0.00  0.00    +0.381 N 
ATOM     18  H   UNL     1       1.461  -3.971  -2.043  0.00  0.00    -0.090 HD
ATOM     19  H   UNL     1       1.903  -5.514  -1.671  0.00  0.00    -0.090 HD
ATOM     20  H   UNL     1       0.818  -4.717  -0.722  0.00  0.00    -0.090 HD
ENDBRANCH  16  17
ENDBRANCH  12  14
ENDBRANCH   5  12
TORSDOF 4
