REMARK  Name = ZINC07801239
REMARK  6 active torsions:
REMARK  status: ('A' for Active; 'I' for Inactive)
REMARK    1  A    between atoms: C_1  and  C_2
REMARK    2  A    between atoms: C_2  and  C_4
REMARK    3  A    between atoms: C_2  and  N_45
REMARK    4  A    between atoms: C_9  and  C_10
REMARK    5  A    between atoms: C_9  and  N_45
REMARK    6  A    between atoms: N_12  and  N_13
REMARK                            x       y       z     vdW  Elec       q    Type
REMARK                         _______ _______ _______ _____ _____    ______ ____
ROOT
ATOM      1  C   UNL     1      -1.187   1.624   0.017  0.00  0.00    +0.213 C 
ATOM      2  O   UNL     1      -1.204   2.837   0.023  0.00  0.00    -0.276 OA
ATOM      3  N   UNL     1      -0.011   0.966   0.007  0.00  0.00    -0.225 N 
ATOM      4  H   UNL     1       0.002  -0.004   0.002  0.00  0.00    +0.173 HD
ENDROOT
BRANCH   3   5
ATOM      5  N   UNL     1       1.193   1.683  -0.000  0.00  0.00    -0.137 N 
ATOM      6  C   UNL     1       2.002   1.817   1.071  0.00  0.00    +0.263 C 
ATOM      7  O   UNL     1       1.834   1.358   2.180  0.00  0.00    -0.271 OA
ATOM      8  C   UNL     1       3.163   2.660   0.596  0.00  0.00    +0.114 C 
ATOM      9  C   UNL     1       4.469   1.881   0.716  0.00  0.00    +0.035 C 
ATOM     10  C   UNL     1       5.628   2.741   0.204  0.00  0.00    +0.003 C 
ATOM     11  C   UNL     1       5.706   4.030   1.025  0.00  0.00    +0.000 C 
ATOM     12  C   UNL     1       4.399   4.811   0.874  0.00  0.00    +0.003 C 
ATOM     13  C   UNL     1       3.235   3.960   1.389  0.00  0.00    +0.035 C 
ATOM     14  N   UNL     1       2.854   2.932  -0.814  0.00  0.00    -0.284 N 
ATOM     15  C   UNL     1       1.685   2.315  -1.073  0.00  0.00    +0.326 C 
ATOM     16  O   UNL     1       1.137   2.333  -2.157  0.00  0.00    -0.251 OA
ATOM     17  H   UNL     1       3.388   3.450  -1.436  0.00  0.00    +0.151 HD
ENDBRANCH   3   5
BRANCH   1  18
ATOM     18  C   UNL     1      -2.482   0.853   0.018  0.00  0.00    +0.017 C 
BRANCH  18  19
ATOM     19  N   UNL     1      -3.610   1.803   0.029  0.00  0.00    +0.391 N 
ATOM     20  H   UNL     1      -3.552   2.388   0.870  0.00  0.00    -0.084 HD
ATOM     21  H   UNL     1      -3.560   2.397  -0.806  0.00  0.00    -0.084 HD
BRANCH  19  23
ATOM     22  C   UNL     1      -5.284   0.723  -1.406  0.00  0.00    -0.006 C 
ATOM     23  C   UNL     1      -4.893   1.074   0.031  0.00  0.00    -0.007 C 
BRANCH  23  24
ATOM     24  C   UNL     1      -5.958   1.949   0.641  0.00  0.00    +0.091 A 
ATOM     25  C   UNL     1      -6.934   1.538   1.471  0.00  0.00    +0.043 A 
ATOM     26  C   UNL     1      -7.700   2.680   1.800  0.00  0.00    +0.041 A 
ATOM     27  C   UNL     1      -7.152   3.719   1.145  0.00  0.00    +0.195 A 
ATOM     28  O   UNL     1      -6.097   3.270   0.445  0.00  0.00    -0.469 OA
ENDBRANCH  23  24
ENDBRANCH  19  23
ENDBRANCH  18  19
ENDBRANCH   1  18
TORSDOF 5
