REMARK  Name = ZINC66178839
REMARK  8 active torsions:
REMARK  status: ('A' for Active; 'I' for Inactive)
REMARK    1  A    between atoms: C_1  and  N_2
REMARK    2  A    between atoms: N_2  and  C_3
REMARK    3  A    between atoms: N_2  and  C_22
REMARK    4  A    between atoms: C_3  and  C_4
REMARK    5  A    between atoms: C_4  and  C_5
REMARK    6  A    between atoms: C_5  and  N_6
REMARK    7  A    between atoms: C_12  and  N_15
REMARK    8  A    between atoms: C_16  and  C_18
REMARK                            x       y       z     vdW  Elec       q    Type
REMARK                         _______ _______ _______ _____ _____    ______ ____
ROOT
ATOM      1  N   UNL     1       4.326  -0.166   2.288  0.00  0.00    -0.299 N 
ATOM      2  C   UNL     1       5.176  -0.503   3.279  0.00  0.00    +0.302 C 
ATOM      3  O   UNL     1       4.758  -1.065   4.273  0.00  0.00    -0.253 OA
ATOM      4  N   UNL     1       6.488  -0.217   3.168  0.00  0.00    -0.286 N 
ATOM      5  C   UNL     1       6.990   0.563   2.029  0.00  0.00    +0.111 C 
ATOM      6  C   UNL     1       8.123  -0.219   1.357  0.00  0.00    +0.041 C 
ATOM      7  C   UNL     1       9.188  -0.565   2.400  0.00  0.00    +0.076 C 
ATOM      8  C   UNL     1       8.571  -1.447   3.488  0.00  0.00    +0.041 C 
ATOM      9  C   UNL     1       7.442  -0.674   4.187  0.00  0.00    +0.111 C 
ATOM     10  H   UNL     1       4.645   0.346   1.529  0.00  0.00    +0.150 HD
ENDROOT
BRANCH   7  11
ATOM     11  N   UNL     1      10.288  -1.285   1.754  0.00  0.00    -0.312 N 
ATOM     12  C   UNL     1      11.521  -1.258   2.296  0.00  0.00    +0.216 C 
ATOM     13  O   UNL     1      11.720  -0.637   3.319  0.00  0.00    -0.276 OA
ATOM     14  H   UNL     1      10.129  -1.781   0.935  0.00  0.00    +0.149 HD
BRANCH  12  15
ATOM     15  C   UNL     1      12.653  -1.998   1.631  0.00  0.00    +0.075 C 
ATOM     16  C   UNL     1      12.697  -3.496   1.977  0.00  0.00    +0.013 C 
ATOM     17  C   UNL     1      14.226  -3.353   2.051  0.00  0.00    +0.001 C 
ATOM     18  C   UNL     1      13.994  -1.868   2.373  0.00  0.00    +0.013 C 
ENDBRANCH  12  15
ENDBRANCH   7  11
BRANCH   1  19
ATOM     19  C   UNL     1       2.921  -0.575   2.358  0.00  0.00    +0.104 C 
BRANCH  19  20
ATOM     20  C   UNL     1       2.181  -0.069   1.118  0.00  0.00    +0.000 C 
BRANCH  20  21
ATOM     21  C   UNL     1       0.714  -0.495   1.190  0.00  0.00    -0.077 C 
BRANCH  21  23
ATOM     22  C   UNL     1      -0.018   1.460   0.008  0.00  0.00    -0.096 C 
ATOM     23  N   UNL     1       0.003  -0.009  -0.001  0.00  0.00    +0.380 N 
ATOM     24  H   UNL     1       0.476  -0.334  -0.830  0.00  0.00    -0.082 HD
BRANCH  23  25
ATOM     25  C   UNL     1      -1.375  -0.519   0.009  0.00  0.00    -0.069 C 
ATOM     26  C   UNL     1      -1.352  -2.049   0.001  0.00  0.00    -0.015 C 
ATOM     27  C   UNL     1      -2.787  -2.580   0.011  0.00  0.00    -0.002 C 
ATOM     28  C   UNL     1      -3.527  -2.074  -1.229  0.00  0.00    -0.000 C 
ATOM     29  C   UNL     1      -3.549  -0.544  -1.220  0.00  0.00    -0.002 C 
ATOM     30  C   UNL     1      -2.114  -0.013  -1.231  0.00  0.00    -0.015 C 
ENDBRANCH  23  25
ENDBRANCH  21  23
ENDBRANCH  20  21
ENDBRANCH  19  20
ENDBRANCH   1  19
TORSDOF 7
