REMARK  Name = ZINC65404857
REMARK  5 active torsions:
REMARK  status: ('A' for Active; 'I' for Inactive)
REMARK    1  A    between atoms: C_5  and  C_12
REMARK    2  A    between atoms: C_22  and  C_24
REMARK    3  A    between atoms: N_26  and  C_27
REMARK    4  A    between atoms: C_27  and  C_28
REMARK    5  A    between atoms: C_28  and  O_29
REMARK                            x       y       z     vdW  Elec       q    Type
REMARK                         _______ _______ _______ _____ _____    ______ ____
ROOT
ATOM      1  C   UNL     1       5.406   0.961  -1.282  0.00  0.00    +0.242 C 
ATOM      2  O   UNL     1       5.174   1.794  -2.133  0.00  0.00    -0.273 OA
ATOM      3  N   UNL     1       6.421   0.090  -1.450  0.00  0.00    -0.296 N 
ATOM      4  C   UNL     1       6.630  -0.993  -0.481  0.00  0.00    +0.125 C 
ATOM      5  C   UNL     1       6.877  -2.325  -1.214  0.00  0.00    +0.125 C 
ATOM      6  N   UNL     1       7.895  -2.088  -2.216  0.00  0.00    -0.219 NA
ATOM      7  C   UNL     1       7.377  -1.159  -3.257  0.00  0.00    +0.118 C 
ATOM      8  C   UNL     1       7.324   0.218  -2.615  0.00  0.00    +0.132 C 
ATOM      9  C   UNL     1       8.405  -1.323  -4.342  0.00  0.00    +0.024 C 
ATOM     10  C   UNL     1       9.010  -2.500  -4.081  0.00  0.00    +0.101 C 
ATOM     11  N   UNL     1       8.435  -3.092  -2.935  0.00  0.00    -0.273 N 
ATOM     12  H   UNL     1       8.429  -4.035  -2.710  0.00  0.00    +0.167 HD
ENDROOT
BRANCH   1  17
ATOM     13  C   UNL     1       0.315   2.647   0.303  0.00  0.00    +0.040 A 
ATOM     14  C   UNL     1       1.606   3.031   0.388  0.00  0.00    +0.029 A 
ATOM     15  C   UNL     1       2.652   2.086   0.199  0.00  0.00    +0.043 A 
ATOM     16  N   UNL     1       3.957   2.211   0.230  0.00  0.00    -0.370 N 
ATOM     17  C   UNL     1       4.559   0.900  -0.037  0.00  0.00    +0.190 C 
ATOM     18  C   UNL     1       3.403  -0.054  -0.238  0.00  0.00    +0.016 C 
ATOM     19  C   UNL     1       2.278   0.683  -0.091  0.00  0.00    -0.001 A 
ATOM     20  C   UNL     1       0.852   0.346  -0.167  0.00  0.00    +0.048 A 
ATOM     21  C   UNL     1      -0.065   1.323   0.029  0.00  0.00    +0.124 A 
ATOM     22  F   UNL     1      -1.379   1.016  -0.040  0.00  0.00    -0.205 F 
ATOM     23  H   UNL     1       4.443   3.033   0.400  0.00  0.00    +0.161 HD
ENDBRANCH   1  17
BRANCH  10  24
ATOM     24  C   UNL     1      10.109  -3.083  -4.875  0.00  0.00    +0.259 C 
ATOM     25  O   UNL     1      10.535  -2.492  -5.849  0.00  0.00    -0.269 OA
ATOM     26  N   UNL     1      10.641  -4.269  -4.521  0.00  0.00    -0.308 N 
ATOM     27  H   UNL     1      10.302  -4.740  -3.744  0.00  0.00    +0.149 HD
BRANCH  26  28
ATOM     28  C   UNL     1      11.732  -4.848  -5.309  0.00  0.00    +0.132 C 
BRANCH  28  29
ATOM     29  C   UNL     1      12.149  -6.187  -4.698  0.00  0.00    +0.174 C 
BRANCH  29  30
ATOM     30  O   UNL     1      11.070  -7.117  -4.807  0.00  0.00    -0.393 OA
ATOM     31  H   UNL     1      11.264  -7.989  -4.439  0.00  0.00    +0.209 HD
ENDBRANCH  29  30
ENDBRANCH  28  29
ENDBRANCH  26  28
ENDBRANCH  10  24
TORSDOF 5
