REMARK  Name = ZINC09501593
REMARK  6 active torsions:
REMARK  status: ('A' for Active; 'I' for Inactive)
REMARK    1  A    between atoms: C_1  and  C_2
REMARK    2  A    between atoms: C_2  and  C_4
REMARK    3  A    between atoms: C_2  and  N_47
REMARK    4  A    between atoms: N_9  and  C_10
REMARK    5  A    between atoms: N_14  and  C_17
REMARK    6  A    between atoms: C_20  and  C_22
REMARK                            x       y       z     vdW  Elec       q    Type
REMARK                         _______ _______ _______ _____ _____    ______ ____
ROOT
ATOM      1  C   UNL     1      -4.888   3.575   6.275  0.00  0.00    -0.076 C 
ATOM      2  C   UNL     1      -3.765   4.388   5.683  0.00  0.00    +0.000 C 
ATOM      3  C   UNL     1      -3.167   3.619   4.483  0.00  0.00    +0.104 C 
ATOM      4  N   UNL     1      -2.354   2.559   4.906  0.00  0.00    -0.318 N 
ATOM      5  C   UNL     1      -3.053   1.528   5.699  0.00  0.00    +0.088 C 
ATOM      6  C   UNL     1      -3.155   2.019   7.120  0.00  0.00    -0.059 C 
ATOM      7  N   UNL     1      -4.479   2.664   7.394  0.00  0.00    +0.388 N 
ATOM      8  H   UNL     1      -5.187   1.927   7.490  0.00  0.00    -0.081 HD
ENDROOT
BRANCH   4   9
ATOM      9  C   UNL     1      -1.679   1.990   3.832  0.00  0.00    +0.099 A 
ATOM     10  C   UNL     1      -0.879   2.788   3.020  0.00  0.00    +0.042 A 
ATOM     11  C   UNL     1      -0.209   2.208   1.958  0.00  0.00    +0.017 A 
ATOM     12  C   UNL     1      -0.371   0.846   1.737  0.00  0.00    +0.071 A 
ATOM     13  C   UNL     1      -1.181   0.116   2.582  0.00  0.00    +0.096 A 
ATOM     14  N   UNL     1      -1.850   0.651   3.638  0.00  0.00    -0.349 N 
ATOM     15  H   UNL     1      -2.446   0.083   4.251  0.00  0.00    +0.167 HD
BRANCH  12  16
ATOM     16  C   UNL     1       0.335   0.173   0.589  0.00  0.00    +0.419 C 
ATOM     17  F   UNL     1       0.019  -1.190   0.581  0.00  0.00    -0.166 F 
ATOM     18  F   UNL     1       1.718   0.330   0.735  0.00  0.00    -0.166 F 
ATOM     19  F   UNL     1      -0.075   0.753  -0.616  0.00  0.00    -0.166 F 
ENDBRANCH  12  16
ENDBRANCH   4   9
BRANCH   7  21
ATOM     20  C   UNL     1      -3.714   2.568   9.713  0.00  0.00    -0.004 C 
ATOM     21  C   UNL     1      -4.409   3.425   8.653  0.00  0.00    +0.017 C 
BRANCH  21  22
ATOM     22  C   UNL     1      -5.817   3.729   9.097  0.00  0.00    +0.207 C 
ATOM     23  O   UNL     1      -6.756   3.372   8.418  0.00  0.00    -0.277 OA
ATOM     24  N   UNL     1      -6.032   4.397  10.247  0.00  0.00    -0.242 N 
ATOM     25  C   UNL     1      -7.291   4.668  10.644  0.00  0.00    +0.306 C 
ATOM     26  O   UNL     1      -8.232   4.311   9.964  0.00  0.00    -0.252 OA
ATOM     27  N   UNL     1      -7.505   5.336  11.795  0.00  0.00    -0.302 N 
ATOM     28  C   UNL     1      -8.874   5.632  12.226  0.00  0.00    +0.129 C 
ATOM     29  H   UNL     1      -5.280   4.682  10.790  0.00  0.00    +0.159 HD
ATOM     30  H   UNL     1      -6.754   5.622  12.337  0.00  0.00    +0.150 HD
ENDBRANCH  21  22
ENDBRANCH   7  21
TORSDOF 4
