REMARK  Name = ZINC35668258
REMARK  7 active torsions:
REMARK  status: ('A' for Active; 'I' for Inactive)
REMARK    1  A    between atoms: C_4  and  C_7
REMARK    2  A    between atoms: N_9  and  CA_10
REMARK    3  A    between atoms: CA_10  and  C_27
REMARK    4  A    between atoms: C_11  and  C_12
REMARK    5  A    between atoms: C_15  and  O_18
REMARK    6  A    between atoms: O_18  and  C_19
REMARK    7  A    between atoms: C_19  and  C_20
REMARK                            x       y       z     vdW  Elec       q    Type
REMARK                         _______ _______ _______ _____ _____    ______ ____
ROOT
ATOM      1  CA  UNL     1       4.831  -2.928  -0.773  0.00  0.00    +0.123 C 
ATOM      2  C   UNL     1       4.829  -4.197  -0.294  0.00  0.00    +0.038 C 
ENDROOT
BRANCH   2   3
ATOM      3  C   UNL     1       6.060  -4.997  -0.329  0.00  0.00    -0.023 A 
ATOM      4  C   UNL     1       7.299  -4.392  -0.088  0.00  0.00    +0.011 A 
ATOM      5  C   UNL     1       8.450  -5.147  -0.122  0.00  0.00    +0.046 A 
ATOM      6  C   UNL     1       8.383  -6.508  -0.396  0.00  0.00    +0.121 A 
ATOM      7  C   UNL     1       7.155  -7.115  -0.635  0.00  0.00    +0.046 A 
ATOM      8  C   UNL     1       5.998  -6.370  -0.598  0.00  0.00    +0.011 A 
BRANCH   6   9
ATOM      9  O   UNL     1       9.521  -7.248  -0.429  0.00  0.00    -0.487 OA
BRANCH   9  10
ATOM     10  C   UNL     1       9.381  -8.641  -0.715  0.00  0.00    +0.264 C 
BRANCH  10  11
ATOM     11  C   UNL     1      10.739  -9.294  -0.710  0.00  0.00    -0.010 A 
ATOM     12  C   UNL     1      11.479  -9.359  -1.875  0.00  0.00    +0.008 A 
ATOM     13  C   UNL     1      12.725  -9.958  -1.871  0.00  0.00    +0.015 A 
ATOM     14  C   UNL     1      13.231 -10.492  -0.699  0.00  0.00    +0.013 A 
ATOM     15  C   UNL     1      12.490 -10.426   0.467  0.00  0.00    +0.015 A 
ATOM     16  C   UNL     1      11.247  -9.822   0.462  0.00  0.00    +0.008 A 
ATOM     17  I   UNL     1      15.119 -11.400  -0.692  0.00  0.00    -0.044 I 
ENDBRANCH  10  11
ENDBRANCH   9  10
ENDBRANCH   6   9
ENDBRANCH   2   3
BRANCH   1  20
ATOM     18  C   UNL     1       3.659  -0.898  -1.187  0.00  0.00    +0.248 C 
ATOM     19  O   UNL     1       4.636  -0.465  -1.766  0.00  0.00    -0.270 OA
ATOM     20  N   UNL     1       3.700  -2.118  -0.614  0.00  0.00    -0.276 N 
ATOM     21  H   UNL     1       2.946  -2.434  -0.093  0.00  0.00    +0.155 HD
BRANCH  18  25
ATOM     22  C   UNL     1       0.114   1.432  -0.969  0.00  0.00    +0.000 A 
ATOM     23  C   UNL     1       1.225   1.928  -1.628  0.00  0.00    +0.001 A 
ATOM     24  C   UNL     1       2.380   1.177  -1.702  0.00  0.00    +0.013 A 
ATOM     25  C   UNL     1       2.426  -0.087  -1.111  0.00  0.00    +0.037 A 
ATOM     26  C   UNL     1       1.301  -0.581  -0.447  0.00  0.00    +0.013 A 
ATOM     27  C   UNL     1       0.153   0.180  -0.380  0.00  0.00    +0.001 A 
ENDBRANCH  18  25
ENDBRANCH   1  20
BRANCH   1  28
ATOM     28  C   UNL     1       6.016  -2.405  -1.455  0.00  0.00    +0.400 C 
ATOM     29  O   UNL     1       6.213  -2.675  -2.633  0.00  0.00    -0.239 OA
ATOM     30  OXT UNL     1       6.810  -1.698  -0.848  0.00  0.00    -0.239 OA
ENDBRANCH   1  28
TORSDOF 7
