REMARK  Name = ZINC65374792
REMARK  8 active torsions:
REMARK  status: ('A' for Active; 'I' for Inactive)
REMARK    1  A    between atoms: C_1  and  O_2
REMARK    2  A    between atoms: O_2  and  C_3
REMARK    3  A    between atoms: C_6  and  C_9
REMARK    4  A    between atoms: C_13  and  C_15
REMARK    5  A    between atoms: C_15  and  N_16
REMARK    6  A    between atoms: C_25  and  C_27
REMARK    7  A    between atoms: C_27  and  C_28
REMARK    8  A    between atoms: C_28  and  N_29
REMARK                            x       y       z     vdW  Elec       q    Type
REMARK                         _______ _______ _______ _____ _____    ______ ____
ROOT
ATOM      1  N   UNL     1      -4.748  -6.209   1.208  0.00  0.00    -0.328 N 
ATOM      2  C   UNL     1      -4.281  -7.008   2.230  0.00  0.00    +0.130 A 
ATOM      3  C   UNL     1      -4.407  -8.417   2.167  0.00  0.00    +0.040 A 
ATOM      4  C   UNL     1      -5.003  -9.064   1.079  0.00  0.00    +0.013 A 
ATOM      5  C   UNL     1      -5.096 -10.424   1.075  0.00  0.00    +0.001 A 
ATOM      6  C   UNL     1      -4.606 -11.178   2.138  0.00  0.00    +0.002 A 
ATOM      7  C   UNL     1      -4.020 -10.578   3.213  0.00  0.00    +0.028 A 
ATOM      8  C   UNL     1      -3.908  -9.182   3.250  0.00  0.00    +0.076 A 
ATOM      9  N   UNL     1      -3.340  -8.542   4.283  0.00  0.00    -0.232 NA
ATOM     10  C   UNL     1      -3.250  -7.233   4.287  0.00  0.00    +0.130 A 
ATOM     11  N   UNL     1      -3.697  -6.478   3.296  0.00  0.00    -0.217 NA
ATOM     12  H   UNL     1      -5.173  -6.611   0.434  0.00  0.00    +0.148 HD
ENDROOT
BRANCH   1  13
ATOM     13  C   UNL     1      -4.601  -4.754   1.290  0.00  0.00    +0.118 C 
BRANCH  13  18
ATOM     14  C   UNL     1      -4.952  -2.614   0.037  0.00  0.00    +0.080 C 
ATOM     15  N   UNL     1      -6.134  -2.060   0.041  0.00  0.00    -0.153 NA
ATOM     16  N   UNL     1      -7.156  -3.003   0.050  0.00  0.00    -0.161 NA
ATOM     17  C   UNL     1      -6.709  -4.217   0.051  0.00  0.00    +0.119 C 
ATOM     18  C   UNL     1      -5.197  -4.110   0.037  0.00  0.00    +0.100 C 
BRANCH  14  22
ATOM     19  C   UNL     1      -1.199  -0.637   0.010  0.00  0.00    +0.120 A 
ATOM     20  C   UNL     1      -2.373   0.107   0.020  0.00  0.00    +0.046 A 
ATOM     21  C   UNL     1      -3.594  -0.530   0.028  0.00  0.00    +0.013 A 
ATOM     22  C   UNL     1      -3.651  -1.929   0.027  0.00  0.00    -0.001 A 
ATOM     23  C   UNL     1      -2.466  -2.672   0.017  0.00  0.00    +0.013 A 
ATOM     24  C   UNL     1      -1.250  -2.026   0.003  0.00  0.00    +0.046 A 
BRANCH  19  26
ATOM     25  C   UNL     1      -0.017   1.425   0.010  0.00  0.00    +0.277 C 
ATOM     26  O   UNL     1       0.002  -0.004   0.002  0.00  0.00    -0.495 OA
ENDBRANCH  19  26
ENDBRANCH  14  22
ENDBRANCH  13  18
ENDBRANCH   1  13
BRANCH  10  27
ATOM     27  C   UNL     1      -2.603  -6.560   5.470  0.00  0.00    +0.057 C 
BRANCH  27  28
ATOM     28  C   UNL     1      -1.101  -6.418   5.218  0.00  0.00    -0.079 C 
BRANCH  28  29
ATOM     29  N   UNL     1      -0.471  -5.761   6.371  0.00  0.00    +0.378 N 
ATOM     30  H   UNL     1       0.520  -5.668   6.204  0.00  0.00    -0.090 HD
ATOM     31  H   UNL     1      -0.878  -4.847   6.501  0.00  0.00    -0.090 HD
ATOM     32  H   UNL     1      -0.622  -6.318   7.198  0.00  0.00    -0.090 HD
ENDBRANCH  28  29
ENDBRANCH  27  28
ENDBRANCH  10  27
TORSDOF 7
