REMARK  Name = ZINC37907354
REMARK  10 active torsions:
REMARK  status: ('A' for Active; 'I' for Inactive)
REMARK    1  A    between atoms: C_1  and  C_2
REMARK    2  A    between atoms: C_2  and  C_4
REMARK    3  A    between atoms: C_2  and  N_14
REMARK    4  A    between atoms: C_7  and  C_10
REMARK    5  A    between atoms: C_10  and  C_11
REMARK    6  A    between atoms: C_11  and  C_12
REMARK    7  A    between atoms: C_11  and  C_13
REMARK    8  A    between atoms: N_14  and  C_15
REMARK    9  A    between atoms: C_15  and  C_17
REMARK   10  A    between atoms: C_15  and  C_18
REMARK                            x       y       z     vdW  Elec       q    Type
REMARK                         _______ _______ _______ _____ _____    ______ ____
ROOT
ATOM      1  C   UNL     1      -0.238   1.417   0.007  0.00  0.00    -0.009 C 
ATOM      2  C   UNL     1      -0.042  -0.100  -0.002  0.00  0.00    -0.043 C 
ENDROOT
BRANCH   2   3
ATOM      3  C   UNL     1       0.612  -0.515  -1.295  0.00  0.00    -0.062 A 
ATOM      4  C   UNL     1       1.978  -0.378  -1.453  0.00  0.00    +0.002 A 
ATOM      5  C   UNL     1       2.579  -0.758  -2.639  0.00  0.00    +0.004 A 
ATOM      6  C   UNL     1       1.812  -1.275  -3.667  0.00  0.00    -0.047 A 
ATOM      7  C   UNL     1       0.446  -1.413  -3.508  0.00  0.00    +0.004 A 
ATOM      8  C   UNL     1      -0.153  -1.037  -2.321  0.00  0.00    +0.002 A 
BRANCH   6   9
ATOM      9  C   UNL     1       2.466  -1.689  -4.960  0.00  0.00    +0.038 C 
BRANCH   9  10
ATOM     10  C   UNL     1       2.883  -3.158  -4.874  0.00  0.00    -0.013 C 
ATOM     11  C   UNL     1       1.636  -4.036  -4.752  0.00  0.00    +0.007 C 
ATOM     12  C   UNL     1       3.657  -3.544  -6.136  0.00  0.00    +0.007 C 
ENDBRANCH   9  10
ENDBRANCH   6   9
ENDBRANCH   2   3
BRANCH   2  13
ATOM     13  N   UNL     1       0.813  -0.491   1.126  0.00  0.00    +0.389 N 
ATOM     14  H   UNL     1       1.026  -1.475   1.063  0.00  0.00    -0.084 HD
ATOM     15  H   UNL     1       1.670   0.041   1.098  0.00  0.00    -0.084 HD
BRANCH  13  16
ATOM     16  C   UNL     1       0.111  -0.222   2.389  0.00  0.00    -0.022 C 
ATOM     17  C   UNL     1       1.052  -0.495   3.563  0.00  0.00    -0.007 C 
BRANCH  16  18
ATOM     18  C   UNL     1      -1.095  -1.119   2.493  0.00  0.00    +0.049 A 
ATOM     19  C   UNL     1      -2.250  -0.856   3.237  0.00  0.00    +0.042 A 
ATOM     20  C   UNL     1      -3.097  -1.899   3.073  0.00  0.00    +0.105 A 
ATOM     21  N   UNL     1      -2.500  -2.789   2.253  0.00  0.00    -0.285 N 
ATOM     22  H   UNL     1      -2.874  -3.634   1.959  0.00  0.00    +0.188 HD
ATOM     23  N   UNL     1      -1.246  -2.275   1.899  0.00  0.00    -0.181 NA
ENDBRANCH  16  18
ENDBRANCH  13  16
ENDBRANCH   2  13
TORSDOF 6
