REMARK  Name = ZINC11898386
REMARK  10 active torsions:
REMARK  status: ('A' for Active; 'I' for Inactive)
REMARK    1  A    between atoms: C_1  and  C_2
REMARK    2  A    between atoms: C_5  and  O_32
REMARK    3  A    between atoms: C_6  and  N_8
REMARK    4  A    between atoms: C_9  and  C_11
REMARK    5  A    between atoms: N_13  and  C_14
REMARK    6  A    between atoms: C_14  and  C_15
REMARK    7  A    between atoms: C_15  and  C_17
REMARK    8  A    between atoms: C_15  and  N_63
REMARK    9  A    between atoms: N_21  and  C_22
REMARK   10  A    between atoms: O_32  and  C_33
REMARK                            x       y       z     vdW  Elec       q    Type
REMARK                         _______ _______ _______ _____ _____    ______ ____
ROOT
ATOM      1  C   UNL     1      -2.348  -1.359   1.455  0.00  0.00    +0.095 C 
ENDROOT
BRANCH   1   4
ATOM      2  C   UNL     1      -4.520  -2.460   1.525  0.00  0.00    +0.299 C 
ATOM      3  O   UNL     1      -4.844  -1.700   2.414  0.00  0.00    -0.265 OA
ATOM      4  N   UNL     1      -3.292  -2.372   0.977  0.00  0.00    -0.309 N 
ATOM      5  H   UNL     1      -3.032  -2.980   0.267  0.00  0.00    +0.149 HD
BRANCH   2   7
ATOM      6  N   UNL     1      -6.710  -3.582   1.586  0.00  0.00    -0.275 N 
ATOM      7  C   UNL     1      -5.482  -3.494   1.039  0.00  0.00    +0.303 C 
ATOM      8  O   UNL     1      -5.158  -4.254   0.150  0.00  0.00    -0.265 OA
ATOM      9  H   UNL     1      -6.996  -2.928   2.243  0.00  0.00    +0.155 HD
BRANCH   6  15
ATOM     10  C   UNL     1      -7.363  -8.037  -0.384  0.00  0.00    +0.044 C 
ATOM     11  C   UNL     1      -7.917  -6.788   0.251  0.00  0.00    -0.048 A 
ATOM     12  C   UNL     1      -9.279  -6.665   0.457  0.00  0.00    +0.007 A 
ATOM     13  C   UNL     1      -9.794  -5.521   1.038  0.00  0.00    +0.048 A 
ATOM     14  C   UNL     1      -8.945  -4.493   1.415  0.00  0.00    +0.141 A 
ATOM     15  C   UNL     1      -7.572  -4.616   1.208  0.00  0.00    +0.076 A 
ATOM     16  C   UNL     1      -7.064  -5.766   0.619  0.00  0.00    +0.030 A 
BRANCH  14  17
ATOM     17  O   UNL     1      -9.450  -3.368   1.987  0.00  0.00    -0.493 OA
ATOM     18  C   UNL     1     -10.866  -3.312   2.169  0.00  0.00    +0.277 C 
ENDBRANCH  14  17
ENDBRANCH   6  15
ENDBRANCH   2   7
ENDBRANCH   1   4
BRANCH   1  19
ATOM     19  C   UNL     1      -0.987  -1.574   0.788  0.00  0.00    -0.003 C 
BRANCH  19  29
ATOM     20  C   UNL     1      -1.151  -3.987   0.635  0.00  0.00    -0.073 C 
ATOM     21  C   UNL     1      -0.317  -5.255   0.824  0.00  0.00    +0.017 C 
ATOM     22  C   UNL     1       0.106  -5.383   2.265  0.00  0.00    -0.048 A 
ATOM     23  C   UNL     1       0.558  -6.615   2.714  0.00  0.00    +0.004 A 
ATOM     24  C   UNL     1       0.959  -6.775   4.025  0.00  0.00    +0.000 A 
ATOM     25  C   UNL     1       0.908  -5.702   4.896  0.00  0.00    +0.000 A 
ATOM     26  C   UNL     1       0.457  -4.476   4.450  0.00  0.00    +0.002 A 
ATOM     27  C   UNL     1       0.053  -4.314   3.133  0.00  0.00    -0.061 A 
ATOM     28  C   UNL     1      -0.437  -2.958   2.695  0.00  0.00    -0.042 C 
ATOM     29  N   UNL     1      -0.400  -2.861   1.226  0.00  0.00    +0.389 N 
ATOM     30  H   UNL     1       0.576  -2.907   0.911  0.00  0.00    -0.080 HD
ENDBRANCH  19  29
BRANCH  19  31
ATOM     31  C   UNL     1      -0.056  -0.455   1.175  0.00  0.00    +0.006 A 
ATOM     32  C   UNL     1       1.171  -0.598   1.715  0.00  0.00    +0.021 A 
ATOM     33  C   UNL     1       1.696   0.693   1.919  0.00  0.00    +0.019 A 
ATOM     34  C   UNL     1       0.770   1.577   1.495  0.00  0.00    +0.085 A 
ATOM     35  N   UNL     1      -0.307   0.878   1.037  0.00  0.00    -0.355 N 
ATOM     36  C   UNL     1      -1.531   1.463   0.482  0.00  0.00    +0.148 C 
ENDBRANCH  19  31
ENDBRANCH   1  19
TORSDOF 7
