REMARK  Name = ZINC62595569
REMARK  9 active torsions:
REMARK  status: ('A' for Active; 'I' for Inactive)
REMARK    1  A    between atoms: C_1  and  C_2
REMARK    2  A    between atoms: C_2  and  N_3
REMARK    3  A    between atoms: N_3  and  C_4
REMARK    4  A    between atoms: C_4  and  C_6
REMARK    5  A    between atoms: C_4  and  C_20
REMARK    6  A    between atoms: C_6  and  C_7
REMARK    7  A    between atoms: C_7  and  O_8
REMARK    8  A    between atoms: O_8  and  C_9
REMARK    9  A    between atoms: C_12  and  N_16
REMARK                            x       y       z     vdW  Elec       q    Type
REMARK                         _______ _______ _______ _____ _____    ______ ____
ROOT
ATOM      1  C   UNL     1       3.034  -2.039   2.154  0.00  0.00    +0.228 C 
ENDROOT
BRANCH   1   2
ATOM      2  C   UNL     1       1.578  -2.465   2.355  0.00  0.00    +0.034 C 
BRANCH   2   3
ATOM      3  C   UNL     1       0.733  -1.960   1.184  0.00  0.00    +0.019 C 
BRANCH   3   4
ATOM      4  C   UNL     1      -0.675  -2.482   1.319  0.00  0.00    +0.197 C 
ATOM      5  O   UNL     1      -1.603  -1.707   1.412  0.00  0.00    -0.278 OA
ATOM      6  N   UNL     1      -0.902  -3.810   1.335  0.00  0.00    -0.331 N 
ATOM      7  H   UNL     1      -0.160  -4.430   1.260  0.00  0.00    +0.145 HD
ATOM      8  H   UNL     1      -1.808  -4.146   1.422  0.00  0.00    +0.145 HD
ENDBRANCH   3   4
BRANCH   3   9
ATOM      9  N   UNL     1       0.713  -0.491   1.192  0.00  0.00    +0.387 N 
ATOM     10  H   UNL     1       1.659  -0.141   1.185  0.00  0.00    -0.085 HD
ATOM     11  H   UNL     1       0.240  -0.165   2.022  0.00  0.00    -0.085 HD
BRANCH   9  13
ATOM     12  C   UNL     1      -0.019   1.526   0.010  0.00  0.00    -0.017 C 
ATOM     13  C   UNL     1       0.002  -0.004   0.002  0.00  0.00    -0.085 C 
ENDBRANCH   9  13
ENDBRANCH   3   9
ENDBRANCH   2   3
ENDBRANCH   1   2
BRANCH   1  14
ATOM     14  O   UNL     1       3.823  -2.511   3.247  0.00  0.00    -0.490 OA
BRANCH  14  15
ATOM     15  C   UNL     1       5.150  -2.216   3.223  0.00  0.00    +0.148 A 
ATOM     16  C   UNL     1       6.044  -3.082   2.610  0.00  0.00    +0.063 A 
ATOM     17  C   UNL     1       7.392  -2.779   2.586  0.00  0.00    +0.051 A 
ATOM     18  C   UNL     1       7.851  -1.615   3.173  0.00  0.00    +0.129 A 
ATOM     19  C   UNL     1       6.963  -0.750   3.785  0.00  0.00    +0.051 A 
ATOM     20  C   UNL     1       5.613  -1.044   3.807  0.00  0.00    +0.063 A 
ATOM     21 BR   UNL     1       4.398   0.143   4.637  0.00  0.00    -0.046 Br
ATOM     22 BR   UNL     1       5.418  -4.676   1.808  0.00  0.00    -0.046 Br
BRANCH  18  23
ATOM     23  N   UNL     1       9.296  -1.294   3.147  0.00  0.00    +0.056 N 
ATOM     24  O   UNL     1      10.073  -2.050   2.613  0.00  0.00    -0.126 OA
ATOM     25  O   UNL     1       9.698  -0.276   3.660  0.00  0.00    -0.126 OA
ENDBRANCH  18  23
ENDBRANCH  14  15
ENDBRANCH   1  14
TORSDOF 8
