REMARK  Name = ZINC63941670
REMARK  6 active torsions:
REMARK  status: ('A' for Active; 'I' for Inactive)
REMARK    1  A    between atoms: C_1  and  C_2
REMARK    2  A    between atoms: C_4  and  C_8
REMARK    3  A    between atoms: C_8  and  O_9
REMARK    4  A    between atoms: O_9  and  C_10
REMARK    5  A    between atoms: C_10  and  C_12
REMARK    6  A    between atoms: C_12  and  N_13
REMARK                            x       y       z     vdW  Elec       q    Type
REMARK                         _______ _______ _______ _____ _____    ______ ____
ROOT
ATOM      1  C   UNL     1      -0.450  -2.120   4.868  0.00  0.00    +0.246 C 
ENDROOT
BRANCH   1   2
ATOM      2  N   UNL     1      -0.983  -2.848   6.023  0.00  0.00    -0.292 N 
ATOM      3  C   UNL     1      -2.186  -2.451   6.600  0.00  0.00    +0.069 A 
ATOM      4  C   UNL     1      -2.876  -1.363   6.076  0.00  0.00    +0.028 A 
ATOM      5  C   UNL     1      -4.069  -0.964   6.643  0.00  0.00    +0.002 A 
ATOM      6  C   UNL     1      -4.584  -1.643   7.735  0.00  0.00    +0.002 A 
ATOM      7  C   UNL     1      -3.908  -2.723   8.264  0.00  0.00    +0.028 A 
ATOM      8  C   UNL     1      -2.705  -3.136   7.700  0.00  0.00    +0.066 A 
ATOM      9  N   UNL     1      -2.030  -4.227   8.239  0.00  0.00    -0.316 N 
ATOM     10  H   UNL     1      -2.399  -4.696   9.004  0.00  0.00    +0.169 HD
ATOM     11  C   UNL     1      -0.862  -4.633   7.700  0.00  0.00    +0.314 A 
ATOM     12  O   UNL     1      -0.269  -5.585   8.166  0.00  0.00    -0.262 OA
ATOM     13  C   UNL     1      -0.310  -3.905   6.521  0.00  0.00    +0.317 A 
ATOM     14  O   UNL     1       0.738  -4.258   6.018  0.00  0.00    -0.262 OA
ENDBRANCH   1   2
BRANCH   1  15
ATOM     15  C   UNL     1      -0.979  -2.735   3.599  0.00  0.00    +0.327 C 
ATOM     16  O   UNL     1      -1.725  -3.685   3.652  0.00  0.00    -0.249 OA
BRANCH  15  17
ATOM     17  O   UNL     1      -0.623  -2.229   2.408  0.00  0.00    -0.459 OA
BRANCH  17  18
ATOM     18  C   UNL     1      -1.162  -2.862   1.246  0.00  0.00    +0.288 C 
BRANCH  18  22
ATOM     19  C   UNL     1      -0.018   1.503   0.010  0.00  0.00    +0.085 C 
ATOM     20  C   UNL     1       0.002  -0.004   0.002  0.00  0.00    +0.100 C 
ATOM     21  N   UNL     1      -1.054  -0.741   0.003  0.00  0.00    -0.344 N 
ATOM     22  C   UNL     1      -0.646  -2.151  -0.007  0.00  0.00    +0.280 C 
ATOM     23  O   UNL     1       0.790  -2.128  -0.015  0.00  0.00    -0.245 OA
ATOM     24  N   UNL     1       1.142  -0.754  -0.013  0.00  0.00    -0.252 N 
ATOM     25  H   UNL     1       2.047  -0.404  -0.020  0.00  0.00    +0.195 HD
ATOM     26  H   UNL     1      -1.968  -0.417   0.010  0.00  0.00    +0.163 HD
ENDBRANCH  18  22
ENDBRANCH  17  18
ENDBRANCH  15  17
ENDBRANCH   1  15
TORSDOF 5
