REMARK  Name = ZINC08781123
REMARK  15 active torsions:
REMARK  status: ('A' for Active; 'I' for Inactive)
REMARK    1  A    between atoms: C_1  and  C_2
REMARK    2  A    between atoms: C_4  and  C_10
REMARK    3  A    between atoms: C_6  and  N_7
REMARK    4  A    between atoms: N_11  and  N_12
REMARK    5  A    between atoms: C_13  and  C_15
REMARK    6  A    between atoms: C_15  and  C_16
REMARK    7  A    between atoms: C_16  and  C_17
REMARK    8  A    between atoms: C_17  and  C_18
REMARK    9  A    between atoms: C_18  and  C_19
REMARK   10  A    between atoms: C_19  and  C_20
REMARK   11  A    between atoms: C_20  and  C_21
REMARK   12  A    between atoms: N_23  and  N_24
REMARK   13  A    between atoms: C_25  and  C_26
REMARK   14  A    between atoms: C_28  and  C_34
REMARK   15  A    between atoms: C_29  and  N_31
REMARK                            x       y       z     vdW  Elec       q    Type
REMARK                         _______ _______ _______ _____ _____    ______ ____
ROOT
ATOM      1  C   UNL     1       0.088  -8.076  -6.933  0.00  0.00    +0.000 C 
ENDROOT
BRANCH   1   2
ATOM      2  C   UNL     1       0.070  -6.669  -6.334  0.00  0.00    +0.009 C 
BRANCH   2   3
ATOM      3  C   UNL     1       0.078  -6.764  -4.807  0.00  0.00    +0.097 C 
BRANCH   3   5
ATOM      4  N   UNL     1       0.064  -5.214  -2.880  0.00  0.00    -0.207 N 
ATOM      5  C   UNL     1       0.061  -5.377  -4.218  0.00  0.00    +0.232 C 
ATOM      6  O   UNL     1       0.044  -4.412  -4.944  0.00  0.00    -0.274 OA
ATOM      7  H   UNL     1       0.077  -5.989  -2.296  0.00  0.00    +0.177 HD
BRANCH   4   9
ATOM      8  C   UNL     1       0.052  -3.865  -1.046  0.00  0.00    +0.145 C 
ATOM      9  N   UNL     1       0.049  -4.027  -2.375  0.00  0.00    -0.187 NA
BRANCH   8  13
ATOM     10  C   UNL     1      -0.018   1.503   0.010  0.00  0.00    +0.054 C 
ATOM     11  C   UNL     1       0.002  -0.004   0.002  0.00  0.00    +0.017 A 
ATOM     12  S   UNL     1       0.011  -1.017  -1.337  0.00  0.00    -0.090 S 
ATOM     13  C   UNL     1       0.036  -2.595  -0.505  0.00  0.00    +0.034 A 
ATOM     14  C   UNL     1       0.037  -2.183   0.920  0.00  0.00    +0.050 A 
ATOM     15  C   UNL     1       0.024  -0.863   1.112  0.00  0.00    +0.137 A 
BRANCH  15  16
ATOM     16  N   UNL     1       0.029  -0.309   2.485  0.00  0.00    +0.057 N 
ATOM     17  O   UNL     1       0.050  -1.120   3.522  0.00  0.00    -0.126 OA
ATOM     18  O   UNL     1       0.013   0.995   2.668  0.00  0.00    -0.126 OA
ENDBRANCH  15  16
ENDBRANCH   8  13
ENDBRANCH   4   9
ENDBRANCH   3   5
ENDBRANCH   2   3
ENDBRANCH   1   2
BRANCH   1  19
ATOM     19  C   UNL     1       0.080  -7.981  -8.460  0.00  0.00    +0.000 C 
BRANCH  19  20
ATOM     20  C   UNL     1       0.098  -9.389  -9.059  0.00  0.00    +0.009 C 
BRANCH  20  21
ATOM     21  C   UNL     1       0.090  -9.294 -10.586  0.00  0.00    +0.097 C 
BRANCH  21  22
ATOM     22  C   UNL     1       0.107 -10.681 -11.176  0.00  0.00    +0.232 C 
ATOM     23  O   UNL     1       0.123 -11.646 -10.450  0.00  0.00    -0.274 OA
ATOM     24  N   UNL     1       0.104 -10.844 -12.514  0.00  0.00    -0.207 N 
ATOM     25  H   UNL     1       0.091 -10.069 -13.097  0.00  0.00    +0.177 HD
BRANCH  24  26
ATOM     26  N   UNL     1       0.119 -12.031 -13.019  0.00  0.00    -0.187 NA
ATOM     27  C   UNL     1       0.116 -12.193 -14.348  0.00  0.00    +0.145 C 
BRANCH  27  28
ATOM     28  C   UNL     1       0.132 -13.463 -14.888  0.00  0.00    +0.034 A 
ATOM     29  S   UNL     1       0.149 -15.040 -14.056  0.00  0.00    -0.090 S 
ATOM     30  C   UNL     1       0.163 -16.054 -15.396  0.00  0.00    +0.017 A 
ATOM     31  C   UNL     1       0.154 -15.194 -16.506  0.00  0.00    +0.137 A 
ATOM     32  C   UNL     1       0.132 -13.875 -16.314  0.00  0.00    +0.050 A 
ATOM     33  C   UNL     1       0.181 -17.561 -15.404  0.00  0.00    +0.054 C 
BRANCH  31  34
ATOM     34  N   UNL     1       0.163 -15.748 -17.878  0.00  0.00    +0.057 N 
ATOM     35  O   UNL     1       0.155 -14.938 -18.916  0.00  0.00    -0.126 OA
ATOM     36  O   UNL     1       0.179 -17.052 -18.062  0.00  0.00    -0.126 OA
ENDBRANCH  31  34
ENDBRANCH  27  28
ENDBRANCH  24  26
ENDBRANCH  21  22
ENDBRANCH  20  21
ENDBRANCH  19  20
ENDBRANCH   1  19
TORSDOF 13
