REMARK  Name = ZINC19321641
REMARK  3 active torsions:
REMARK  status: ('A' for Active; 'I' for Inactive)
REMARK    1  A    between atoms: C_4  and  C_7
REMARK    2  A    between atoms: C_7  and  N_22
REMARK    3  A    between atoms: C_9  and  O_21
REMARK                            x       y       z     vdW  Elec       q    Type
REMARK                         _______ _______ _______ _____ _____    ______ ____
ROOT
ATOM      1  C   UNL     1      -1.332   2.114   0.020  0.00  0.00    +0.075 C 
ATOM      2  C   UNL     1      -1.795   2.369   1.475  0.00  0.00    +0.063 C 
ATOM      3  C   UNL     1      -1.222   3.780   1.709  0.00  0.00    +0.152 C 
ATOM      4  C   UNL     1      -2.197   4.641   2.453  0.00  0.00    +0.146 A 
ATOM      5  C   UNL     1      -2.553   5.949   2.027  0.00  0.00    +0.130 A 
ATOM      6  N   UNL     1      -3.416   6.331   2.922  0.00  0.00    +0.035 N 
ATOM      7  O   UNL     1      -4.085   7.579   2.940  0.00  0.00    -0.128 OA
ATOM      8  O   UNL     1      -3.555   5.444   3.741  0.00  0.00    -0.226 OA
ATOM      9  N   UNL     1      -2.884   4.451   3.527  0.00  0.00    -0.049 NA
ATOM     10  C   UNL     1      -2.024   6.669   0.832  0.00  0.00    +0.068 C 
ATOM     11  C   UNL     1      -1.037   5.848   0.019  0.00  0.00    +0.062 C 
ATOM     12  C   UNL     1      -1.121   4.375   0.312  0.00  0.00    +0.071 C 
ATOM     13  N   UNL     1      -1.174   3.449  -0.566  0.00  0.00    -0.177 N 
ATOM     14  O   UNL     1      -1.089   3.687  -1.959  0.00  0.00    -0.170 OA
ENDROOT
BRANCH   1  18
ATOM     15  C   UNL     1       2.396   0.029  -0.021  0.00  0.00    +0.000 A 
ATOM     16  C   UNL     1       1.208  -0.679  -0.014  0.00  0.00    +0.000 A 
ATOM     17  C   UNL     1       0.002  -0.004   0.002  0.00  0.00    +0.004 A 
ATOM     18  C   UNL     1      -0.017   1.378   0.010  0.00  0.00    -0.036 A 
ATOM     19  C   UNL     1       1.171   2.086   0.002  0.00  0.00    +0.004 A 
ATOM     20  C   UNL     1       2.377   1.411  -0.014  0.00  0.00    +0.000 A 
ENDBRANCH   1  18
BRANCH   1  21
ATOM     21  N   UNL     1      -2.349   1.349  -0.713  0.00  0.00    +0.399 N 
ATOM     22  H   UNL     1      -3.303   1.898  -0.697  0.00  0.00    -0.086 HD
ATOM     23  H   UNL     1      -2.484   0.367  -0.237  0.00  0.00    -0.086 HD
ATOM     24  H   UNL     1      -2.024   1.210  -1.755  0.00  0.00    -0.086 HD
ENDBRANCH   1  21
BRANCH   3  25
ATOM     25  O   UNL     1       0.053   3.728   2.353  0.00  0.00    -0.376 OA
ATOM     26  H   UNL     1       0.589   4.660   2.587  0.00  0.00    +0.211 HD
ENDBRANCH   3  25
TORSDOF 3
