REMARK  Name = ZINC40126515
REMARK  6 active torsions:
REMARK  status: ('A' for Active; 'I' for Inactive)
REMARK    1  A    between atoms: C_3  and  C_8
REMARK    2  A    between atoms: C_10  and  C_16
REMARK    3  A    between atoms: C_16  and  C_18
REMARK    4  A    between atoms: C_22  and  O_24
REMARK    5  A    between atoms: O_24  and  C_25
REMARK    6  A    between atoms: C_25  and  C_26
REMARK                            x       y       z     vdW  Elec       q    Type
REMARK                         _______ _______ _______ _____ _____    ______ ____
ROOT
ATOM      1  C   UNL     1       3.429   2.795   2.542  0.00  0.00    +0.195 C 
ATOM      2  O   UNL     1       4.041   3.041   3.564  0.00  0.00    -0.287 OA
ENDROOT
BRANCH   1   4
ATOM      3  C   UNL     1       3.668   0.677   0.951  0.00  0.00    +0.142 C 
ATOM      4  C   UNL     1       4.075   2.037   1.466  0.00  0.00    +0.076 C 
ATOM      5  C   UNL     1       5.152   2.422   0.742  0.00  0.00    +0.249 C 
ATOM      6  C   UNL     1       5.479   1.367  -0.240  0.00  0.00    +0.285 C 
ATOM      7  O   UNL     1       6.396   1.415  -1.037  0.00  0.00    -0.267 OA
ATOM      8  N   UNL     1       4.612   0.343  -0.121  0.00  0.00    -0.298 N 
ATOM      9  O   UNL     1       5.822   3.588   0.892  0.00  0.00    -0.282 OA
ATOM     10  H   UNL     1       4.612  -0.470  -0.650  0.00  0.00    +0.150 HD
BRANCH   3  13
ATOM     11  C   UNL     1       2.688  -1.749   3.674  0.00  0.00    +0.001 A 
ATOM     12  C   UNL     1       2.606  -0.813   2.660  0.00  0.00    +0.006 A 
ATOM     13  C   UNL     1       3.758  -0.344   2.057  0.00  0.00    -0.022 A 
ATOM     14  C   UNL     1       4.992  -0.811   2.467  0.00  0.00    +0.021 A 
ATOM     15  C   UNL     1       5.075  -1.747   3.482  0.00  0.00    +0.018 A 
ATOM     16  C   UNL     1       3.921  -2.216   4.085  0.00  0.00    +0.015 A 
ATOM     17 BR   UNL     1       6.763  -2.387   4.043  0.00  0.00    -0.050 Br
ENDBRANCH   3  13
ENDBRANCH   1   4
BRANCH   1  18
ATOM     18  C   UNL     1       2.034   3.259   2.385  0.00  0.00    +0.026 A 
ATOM     19  C   UNL     1       1.366   3.073   1.172  0.00  0.00    +0.012 A 
ATOM     20  C   UNL     1       0.065   3.508   1.029  0.00  0.00    +0.004 A 
ATOM     21  C   UNL     1      -0.582   4.127   2.083  0.00  0.00    +0.046 A 
ATOM     22  C   UNL     1       0.074   4.317   3.292  0.00  0.00    +0.122 A 
ATOM     23  C   UNL     1       1.379   3.880   3.449  0.00  0.00    +0.057 A 
BRANCH  22  24
ATOM     24  O   UNL     1      -0.567   4.927   4.324  0.00  0.00    -0.487 OA
BRANCH  24  25
ATOM     25  C   UNL     1      -1.913   5.347   4.094  0.00  0.00    +0.264 C 
BRANCH  25  26
ATOM     26  C   UNL     1      -2.456   5.997   5.341  0.00  0.00    -0.010 A 
ATOM     27  C   UNL     1      -3.096   5.231   6.297  0.00  0.00    +0.008 A 
ATOM     28  C   UNL     1      -3.594   5.827   7.440  0.00  0.00    +0.020 A 
ATOM     29  C   UNL     1      -3.451   7.191   7.628  0.00  0.00    +0.041 A 
ATOM     30  C   UNL     1      -2.810   7.956   6.670  0.00  0.00    +0.020 A 
ATOM     31  C   UNL     1      -2.308   7.358   5.530  0.00  0.00    +0.008 A 
ATOM     32 CL   UNL     1      -4.077   7.940   9.063  0.00  0.00    -0.084 Cl
ENDBRANCH  25  26
ENDBRANCH  24  25
ENDBRANCH  22  24
ENDBRANCH   1  18
TORSDOF 6
