REMARK  Name = ZINC28048822
REMARK  10 active torsions:
REMARK  status: ('A' for Active; 'I' for Inactive)
REMARK    1  A    between atoms: C_1  and  C_2
REMARK    2  A    between atoms: C_2  and  C_3
REMARK    3  A    between atoms: C_3  and  N_4
REMARK    4  A    between atoms: C_13  and  O_14
REMARK    5  A    between atoms: C_15  and  N_16
REMARK    6  A    between atoms: N_19  and  C_20
REMARK    7  A    between atoms: C_20  and  C_21
REMARK    8  A    between atoms: C_21  and  C_22
REMARK    9  A    between atoms: C_22  and  O_23
REMARK   10  A    between atoms: O_23  and  C_24
REMARK                            x       y       z     vdW  Elec       q    Type
REMARK                         _______ _______ _______ _____ _____    ______ ____
ROOT
ATOM      1  N   UNL     1      -2.029  -0.821  -1.797  0.00  0.00    -0.382 N 
ATOM      2  C   UNL     1      -1.025  -1.114  -0.893  0.00  0.00    +0.075 A 
ATOM      3  C   UNL     1       0.215  -0.323  -0.852  0.00  0.00    +0.042 A 
ATOM      4  C   UNL     1       0.414   0.748  -1.727  0.00  0.00    +0.013 A 
ATOM      5  C   UNL     1       1.585   1.469  -1.664  0.00  0.00    +0.001 A 
ATOM      6  C   UNL     1       2.563   1.137  -0.739  0.00  0.00    +0.004 A 
ATOM      7  C   UNL     1       2.379   0.083   0.131  0.00  0.00    +0.047 A 
ATOM      8  C   UNL     1       1.205  -0.658   0.085  0.00  0.00    +0.141 A 
ATOM      9  O   UNL     1       1.011  -1.693   0.931  0.00  0.00    -0.424 OA
ATOM     10  C   UNL     1      -0.113  -2.427   0.910  0.00  0.00    +0.309 A 
ATOM     11  C   UNL     1      -1.155  -2.160   0.004  0.00  0.00    +0.140 A 
ATOM     12  H   UNL     1      -2.512   0.167  -1.781  0.00  0.00    +0.160 HD
ENDROOT
BRANCH  11  13
ATOM     13  N   UNL     1      -2.319  -2.949   0.009  0.00  0.00    -0.262 N 
ATOM     14  C   UNL     1      -2.264  -4.233  -0.397  0.00  0.00    +0.304 C 
ATOM     15  O   UNL     1      -1.194  -4.735  -0.683  0.00  0.00    -0.253 OA
ATOM     16  N   UNL     1      -3.395  -4.961  -0.486  0.00  0.00    -0.299 N 
ATOM     17  H   UNL     1      -3.274  -2.519   0.345  0.00  0.00    +0.157 HD
ATOM     18  H   UNL     1      -4.363  -4.506  -0.228  0.00  0.00    +0.150 HD
BRANCH  16  19
ATOM     19  C   UNL     1      -3.336  -6.356  -0.928  0.00  0.00    +0.108 C 
BRANCH  19  20
ATOM     20  C   UNL     1      -4.747  -6.948  -0.941  0.00  0.00    +0.047 C 
BRANCH  20  21
ATOM     21  C   UNL     1      -4.685  -8.405  -1.402  0.00  0.00    +0.161 C 
BRANCH  21  22
ATOM     22  O   UNL     1      -6.003  -8.957  -1.415  0.00  0.00    -0.383 OA
ATOM     23  C   UNL     1      -6.057 -10.323  -1.833  0.00  0.00    +0.193 C 
ENDBRANCH  21  22
ENDBRANCH  20  21
ENDBRANCH  19  20
ENDBRANCH  16  19
ENDBRANCH  11  13
BRANCH  10  24
ATOM     24  O   UNL     1      -0.233  -3.350   1.697  0.00  0.00    -0.479 OA
ATOM     25  H   UNL     1      -1.148  -3.961   1.692  0.00  0.00    +0.295 HD
ENDBRANCH  10  24
BRANCH   1  26
ATOM     26  C   UNL     1      -2.290  -1.964  -2.682  0.00  0.00    +0.112 C 
BRANCH  26  28
ATOM     27  C   UNL     1      -3.676  -2.794  -4.588  0.00  0.00    +0.005 C 
ATOM     28  C   UNL     1      -3.404  -1.603  -3.666  0.00  0.00    +0.017 C 
ENDBRANCH  26  28
ENDBRANCH   1  26
TORSDOF 8
