REMARK  Name = ZINC53250561
REMARK  8 active torsions:
REMARK  status: ('A' for Active; 'I' for Inactive)
REMARK    1  A    between atoms: C_1  and  N_2
REMARK    2  A    between atoms: C_6  and  N_9
REMARK    3  A    between atoms: N_9  and  C_10
REMARK    4  A    between atoms: N_9  and  C_11
REMARK    5  A    between atoms: C_13  and  C_19
REMARK    6  A    between atoms: C_14  and  N_18
REMARK    7  A    between atoms: C_19  and  O_21
REMARK    8  A    between atoms: O_21  and  C_22
REMARK                            x       y       z     vdW  Elec       q    Type
REMARK                         _______ _______ _______ _____ _____    ______ ____
ROOT
ATOM      1  C   UNL     1       0.681  -3.154   3.461  0.00  0.00    +0.066 A 
ATOM      2  C   UNL     1       0.711  -4.514   3.221  0.00  0.00    +0.042 A 
ATOM      3  C   UNL     1       0.056  -5.390   4.093  0.00  0.00    +0.081 A 
ATOM      4  C   UNL     1      -0.629  -4.879   5.208  0.00  0.00    +0.042 A 
ATOM      5  C   UNL     1      -0.651  -3.510   5.436  0.00  0.00    +0.063 A 
ATOM      6  C   UNL     1       0.004  -2.652   4.572  0.00  0.00    +0.146 A 
ATOM      7  F   UNL     1      -0.017  -1.321   4.802  0.00  0.00    -0.203 F 
ENDROOT
BRANCH   4   8
ATOM      8  N   UNL     1      -1.284  -5.742   6.080  0.00  0.00    -0.357 N 
ATOM      9  H   UNL     1      -1.202  -6.701   5.966  0.00  0.00    +0.142 HD
ATOM     10  H   UNL     1      -1.824  -5.384   6.803  0.00  0.00    +0.142 HD
ENDBRANCH   4   8
BRANCH   1  11
ATOM     11  N   UNL     1       1.337  -2.276   2.588  0.00  0.00    -0.329 N 
ATOM     12  C   UNL     1       2.739  -1.920   2.824  0.00  0.00    +0.129 C 
BRANCH  11  18
ATOM     13  C   UNL     1      -0.188   1.839   0.538  0.00  0.00    -0.096 C 
ATOM     14  N   UNL     1      -0.108   0.379   0.394  0.00  0.00    +0.379 N 
ATOM     15  C   UNL     1       0.605   0.050  -0.846  0.00  0.00    -0.079 C 
ATOM     16  C   UNL     1       0.621  -1.468  -1.043  0.00  0.00    -0.017 C 
ATOM     17  C   UNL     1       1.330  -2.123   0.145  0.00  0.00    +0.019 C 
ATOM     18  C   UNL     1       0.622  -1.713   1.440  0.00  0.00    +0.057 C 
ATOM     19  C   UNL     1       0.607  -0.186   1.544  0.00  0.00    -0.057 C 
ATOM     20  H   UNL     1      -1.040  -0.005   0.356  0.00  0.00    -0.082 HD
ENDBRANCH  11  18
ENDBRANCH   1  11
BRANCH   3  21
ATOM     21  C   UNL     1       0.083  -6.840   3.844  0.00  0.00    +0.341 C 
ATOM     22  O   UNL     1      -0.394  -7.606   4.659  0.00  0.00    -0.245 OA
BRANCH  21  23
ATOM     23  O   UNL     1       0.638  -7.319   2.713  0.00  0.00    -0.464 OA
ATOM     24  C   UNL     1       0.630  -8.737   2.536  0.00  0.00    +0.280 C 
ENDBRANCH  21  23
ENDBRANCH   3  21
TORSDOF 5
