REMARK  Name = ZINC65371664
REMARK  3 active torsions:
REMARK  status: ('A' for Active; 'I' for Inactive)
REMARK    1  A    between atoms: C_7  and  C_10
REMARK    2  A    between atoms: C_10  and  C_11
REMARK    3  A    between atoms: C_11  and  N_12
REMARK                            x       y       z     vdW  Elec       q    Type
REMARK                         _______ _______ _______ _____ _____    ______ ____
ROOT
ATOM      1  N   UNL     1      -0.458  -4.798  -1.460  0.00  0.00    -0.328 N 
ATOM      2  C   UNL     1      -0.820  -5.396  -2.654  0.00  0.00    +0.130 A 
ATOM      3  C   UNL     1      -1.622  -6.571  -2.657  0.00  0.00    +0.051 A 
ATOM      4  C   UNL     1      -2.170  -7.312  -1.522  0.00  0.00    -0.022 A 
ATOM      5  C   UNL     1      -2.907  -8.408  -1.802  0.00  0.00    +0.009 A 
ATOM      6  S   UNL     1      -2.917  -8.517  -3.570  0.00  0.00    -0.072 S 
ATOM      7  C   UNL     1      -1.928  -7.090  -3.932  0.00  0.00    +0.114 A 
ATOM      8  N   UNL     1      -1.491  -6.513  -5.034  0.00  0.00    -0.228 NA
ATOM      9  C   UNL     1      -0.750  -5.424  -4.968  0.00  0.00    +0.224 A 
ATOM     10  N   UNL     1      -0.429  -4.879  -3.808  0.00  0.00    -0.220 NA
ATOM     11  C   UNL     1      -3.562  -9.320  -0.812  0.00  0.00    +0.124 C 
ATOM     12  N   UNL     1      -2.988  -9.046   0.519  0.00  0.00    -0.311 NA
ATOM     13  C   UNL     1      -2.991  -7.602   0.796  0.00  0.00    +0.086 C 
ATOM     14  C   UNL     1      -1.944  -6.898  -0.070  0.00  0.00    +0.052 C 
ATOM     15  H   UNL     1      -0.682  -5.223  -0.618  0.00  0.00    +0.147 HD
ATOM     16  H   UNL     1      -3.482  -9.553   1.237  0.00  0.00    +0.122 HD
ENDROOT
BRANCH   1  17
ATOM     17  C   UNL     1       0.263  -3.522  -1.469  0.00  0.00    +0.107 C 
BRANCH  17  18
ATOM     18  C   UNL     1       0.539  -3.083  -0.029  0.00  0.00    +0.052 C 
BRANCH  18  25
ATOM     19  C   UNL     1      -0.863   1.273   0.304  0.00  0.00    +0.001 A 
ATOM     20  C   UNL     1       0.182   2.205   0.248  0.00  0.00    +0.002 A 
ATOM     21  C   UNL     1       1.475   1.844   0.110  0.00  0.00    +0.026 A 
ATOM     22  C   UNL     1       1.832   0.471   0.014  0.00  0.00    +0.043 A 
ATOM     23  N   UNL     1       2.993  -0.122  -0.123  0.00  0.00    -0.380 N 
ATOM     24  C   UNL     1       2.775  -1.572  -0.170  0.00  0.00    +0.144 C 
ATOM     25  C   UNL     1       1.281  -1.772  -0.038  0.00  0.00    -0.040 C 
ATOM     26  C   UNL     1       0.746  -0.534   0.070  0.00  0.00    -0.001 A 
ATOM     27  C   UNL     1      -0.634  -0.057   0.221  0.00  0.00    +0.010 A 
ATOM     28  H   UNL     1       3.852   0.323  -0.184  0.00  0.00    +0.160 HD
ENDBRANCH  18  25
ENDBRANCH  17  18
ENDBRANCH   1  17
TORSDOF 3
