REMARK  Name = ZINC46036594
REMARK  4 active torsions:
REMARK  status: ('A' for Active; 'I' for Inactive)
REMARK    1  A    between atoms: C_1  and  C_2
REMARK    2  A    between atoms: N_5  and  S_8
REMARK    3  A    between atoms: S_8  and  N_11
REMARK    4  A    between atoms: N_11  and  C_12
REMARK                            x       y       z     vdW  Elec       q    Type
REMARK                         _______ _______ _______ _____ _____    ______ ____
ROOT
ATOM      1  N   UNL     1       3.943  -2.728  -0.053  0.00  0.00    -0.178 NA
ATOM      2  H   UNL     1       4.535  -2.768  -0.821  0.00  0.00    +0.149 HD
ENDROOT
BRANCH   1   3
ATOM      3  C   UNL     1       4.292  -1.891   1.098  0.00  0.00    +0.062 C 
ATOM      4  C   UNL     1       5.317  -2.611   2.017  0.00  0.00    +0.000 C 
ATOM      5  C   UNL     1       6.301  -1.502   2.464  0.00  0.00    -0.077 C 
ATOM      6  N   UNL     1       5.778  -0.253   1.906  0.00  0.00    +0.383 N 
ATOM      7  C   UNL     1       5.079  -0.646   0.654  0.00  0.00    -0.050 C 
ATOM      8  C   UNL     1       4.192   0.521   0.240  0.00  0.00    -0.014 C 
ATOM      9  C   UNL     1       5.114   1.710  -0.074  0.00  0.00    -0.003 C 
ATOM     10  C   UNL     1       6.015   2.022   1.120  0.00  0.00    -0.019 C 
ATOM     11  C   UNL     1       6.768   0.762   1.578  0.00  0.00    -0.078 C 
ATOM     12  H   UNL     1       5.099   0.137   2.543  0.00  0.00    -0.081 HD
ENDBRANCH   1   3
BRANCH   1  13
ATOM     13  S   UNL     1       2.539  -3.606  -0.043  0.00  0.00    +0.097 S 
ATOM     14  O   UNL     1       2.499  -4.295   1.199  0.00  0.00    -0.141 OA
ATOM     15  O   UNL     1       2.474  -4.282  -1.291  0.00  0.00    -0.141 OA
BRANCH  13  20
ATOM     16  C   UNL     1      -0.019   1.526   0.010  0.00  0.00    +0.007 C 
ATOM     17  C   UNL     1       0.002  -0.004   0.002  0.00  0.00    -0.012 C 
ATOM     18  C   UNL     1       0.717  -0.497  -1.258  0.00  0.00    +0.020 C 
ATOM     19  C   UNL     1       0.705  -2.029  -1.280  0.00  0.00    +0.111 C 
ATOM     20  N   UNL     1       1.285  -2.525  -0.025  0.00  0.00    -0.167 NA
ATOM     21  C   UNL     1       0.731  -2.043   1.248  0.00  0.00    +0.111 C 
ATOM     22  C   UNL     1       0.742  -0.511   1.242  0.00  0.00    +0.020 C 
ENDBRANCH  13  20
ENDBRANCH   1  13
TORSDOF 3
