REMARK  Name = ZINC39662395
REMARK  5 active torsions:
REMARK  status: ('A' for Active; 'I' for Inactive)
REMARK    1  A    between atoms: C_4  and  C_7
REMARK    2  A    between atoms: C_7  and  C_9
REMARK    3  A    between atoms: C_7  and  N_11
REMARK    4  A    between atoms: C_12  and  C_14
REMARK    5  A    between atoms: C_25  and  C_27
REMARK                            x       y       z     vdW  Elec       q    Type
REMARK                         _______ _______ _______ _____ _____    ______ ____
ROOT
ATOM      1  C   UNL     1       4.677  -4.210   2.174  0.00  0.00    +0.100 C 
ATOM      2  C   UNL     1       3.946  -3.620   3.401  0.00  0.00    +0.121 C 
ATOM      3  N   UNL     1       4.672  -4.170   4.569  0.00  0.00    -0.296 N 
ATOM      4  C   UNL     1       6.098  -4.138   4.166  0.00  0.00    +0.115 C 
ATOM      5  C   UNL     1       6.089  -4.548   2.680  0.00  0.00    -0.004 C 
ATOM      6  C   UNL     1       7.133  -3.748   1.906  0.00  0.00    -0.010 C 
ATOM      7  C   UNL     1       8.532  -4.144   2.386  0.00  0.00    -0.082 C 
ATOM      8  N   UNL     1       8.734  -5.583   2.177  0.00  0.00    +0.379 N 
ATOM      9  C   UNL     1       7.786  -6.346   2.997  0.00  0.00    -0.082 C 
ATOM     10  C   UNL     1       6.356  -6.043   2.543  0.00  0.00    -0.010 C 
ATOM     11  C   UNL     1       4.153  -4.604   5.736  0.00  0.00    +0.248 C 
ATOM     12  O   UNL     1       4.891  -4.941   6.641  0.00  0.00    -0.270 OA
ATOM     13  H   UNL     1       8.588  -5.803   1.203  0.00  0.00    -0.086 HD
ATOM     14  H   UNL     1       9.677  -5.830   2.437  0.00  0.00    -0.086 HD
ENDROOT
BRANCH  11  15
ATOM     15  C   UNL     1       2.688  -4.668   5.913  0.00  0.00    +0.057 A 
ATOM     16  C   UNL     1       1.867  -3.700   5.330  0.00  0.00    +0.014 A 
ATOM     17  C   UNL     1       0.500  -3.766   5.499  0.00  0.00    +0.002 A 
ATOM     18  C   UNL     1      -0.061  -4.787   6.246  0.00  0.00    +0.021 A 
ATOM     19  C   UNL     1       0.745  -5.750   6.829  0.00  0.00    +0.060 A 
ATOM     20  C   UNL     1       2.117  -5.700   6.662  0.00  0.00    +0.071 A 
ATOM     21 CL   UNL     1       3.126  -6.912   7.386  0.00  0.00    -0.081 Cl
ATOM     22 CL   UNL     1       0.032  -7.026   7.765  0.00  0.00    -0.082 Cl
ENDBRANCH  11  15
BRANCH   1  24
ATOM     23  N   UNL     1       4.779  -3.596  -0.220  0.00  0.00    -0.296 N 
ATOM     24  C   UNL     1       4.746  -3.192   1.065  0.00  0.00    +0.219 C 
ATOM     25  O   UNL     1       4.772  -2.008   1.329  0.00  0.00    -0.275 OA
ATOM     26  H   UNL     1       4.758  -4.543  -0.431  0.00  0.00    +0.150 HD
BRANCH  23  27
ATOM     27  C   UNL     1       4.846  -2.606  -1.298  0.00  0.00    +0.207 C 
BRANCH  27  31
ATOM     28  C   UNL     1       3.219  -4.281  -4.875  0.00  0.00    +0.000 A 
ATOM     29  C   UNL     1       2.953  -2.966  -4.544  0.00  0.00    +0.000 A 
ATOM     30  C   UNL     1       3.479  -2.424  -3.387  0.00  0.00    +0.006 A 
ATOM     31  C   UNL     1       4.271  -3.197  -2.559  0.00  0.00    -0.013 A 
ATOM     32  C   UNL     1       4.537  -4.513  -2.890  0.00  0.00    +0.006 A 
ATOM     33  C   UNL     1       4.012  -5.055  -4.048  0.00  0.00    +0.000 A 
ENDBRANCH  27  31
BRANCH  27  34
ATOM     34  C   UNL     1       6.250  -2.227  -1.529  0.00  0.00    +0.090 C 
ATOM     35  N   UNL     1       7.333  -1.935  -1.707  0.00  0.00    -0.194 NA
ENDBRANCH  27  34
ENDBRANCH  23  27
ENDBRANCH   1  24
TORSDOF 5
