REMARK  Name = ZINC62709967
REMARK  6 active torsions:
REMARK  status: ('A' for Active; 'I' for Inactive)
REMARK    1  A    between atoms: C_1  and  C_2
REMARK    2  A    between atoms: C_2  and  C_3
REMARK    3  A    between atoms: C_2  and  C_4
REMARK    4  A    between atoms: C_10  and  N_16
REMARK    5  A    between atoms: C_17  and  N_23
REMARK    6  A    between atoms: C_18  and  C_21
REMARK                            x       y       z     vdW  Elec       q    Type
REMARK                         _______ _______ _______ _____ _____    ______ ____
ROOT
ATOM      1  C   UNL     1      -1.412  -0.526   0.013  0.00  0.00    -0.044 A 
ATOM      2  C   UNL     1      -2.259  -0.204   1.057  0.00  0.00    +0.007 A 
ATOM      3  C   UNL     1      -3.554  -0.686   1.077  0.00  0.00    +0.046 A 
ATOM      4  C   UNL     1      -4.003  -1.492   0.039  0.00  0.00    +0.126 A 
ATOM      5  C   UNL     1      -3.158  -1.798  -1.008  0.00  0.00    +0.019 A 
ATOM      6  C   UNL     1      -1.863  -1.322  -1.026  0.00  0.00    +0.013 A 
ATOM      7  C   UNL     1      -3.673  -2.637  -2.162  0.00  0.00    +0.143 C 
ATOM      8  C   UNL     1      -3.916  -4.061  -1.661  0.00  0.00    +0.035 C 
ATOM      9  C   UNL     1      -5.278  -4.173  -0.992  0.00  0.00    +0.043 C 
ATOM     10  C   UNL     1      -5.378  -3.396   0.304  0.00  0.00    +0.229 C 
ATOM     11  O   UNL     1      -5.270  -1.989   0.067  0.00  0.00    -0.492 OA
ENDROOT
BRANCH   7  12
ATOM     12  N   UNL     1      -2.679  -2.654  -3.238  0.00  0.00    -0.242 N 
ATOM     13  C   UNL     1      -2.873  -2.208  -4.497  0.00  0.00    +0.133 A 
ATOM     14  C   UNL     1      -1.682  -2.408  -5.190  0.00  0.00    +0.110 A 
ATOM     15  C   UNL     1      -0.770  -2.995  -4.283  0.00  0.00    +0.155 A 
ATOM     16  N   UNL     1      -1.368  -3.131  -3.133  0.00  0.00    -0.176 NA
BRANCH  13  17
ATOM     17  N   UNL     1      -4.035  -1.657  -5.003  0.00  0.00    -0.342 N 
ATOM     18  H   UNL     1      -4.814  -1.562  -4.434  0.00  0.00    +0.144 HD
ATOM     19  H   UNL     1      -4.071  -1.366  -5.927  0.00  0.00    +0.144 HD
ENDBRANCH  13  17
BRANCH  14  20
ATOM     20  C   UNL     1      -1.430  -2.082  -6.561  0.00  0.00    +0.104 C 
ATOM     21  N   UNL     1      -1.230  -1.823  -7.649  0.00  0.00    -0.191 NA
ENDBRANCH  14  20
ENDBRANCH   7  12
BRANCH   1  23
ATOM     22  C   UNL     1      -0.019   1.526   0.010  0.00  0.00    +0.012 C 
ATOM     23  C   UNL     1       0.002  -0.004   0.002  0.00  0.00    +0.013 C 
ATOM     24  C   UNL     1       0.742  -0.511   1.242  0.00  0.00    +0.012 C 
ENDBRANCH   1  23
TORSDOF 4
