REMARK  Name = ZINC20353193
REMARK  8 active torsions:
REMARK  status: ('A' for Active; 'I' for Inactive)
REMARK    1  A    between atoms: C_1  and  C_2
REMARK    2  A    between atoms: C_3  and  C_8
REMARK    3  A    between atoms: N_5  and  C_7
REMARK    4  A    between atoms: C_8  and  C_10
REMARK    5  A    between atoms: C_8  and  N_11
REMARK    6  A    between atoms: N_11  and  C_12
REMARK    7  A    between atoms: C_12  and  C_13
REMARK    8  A    between atoms: C_15  and  C_19
REMARK                            x       y       z     vdW  Elec       q    Type
REMARK                         _______ _______ _______ _____ _____    ______ ____
ROOT
ATOM      1  C   UNL     1       2.256   0.718   0.771  0.00  0.00    -0.026 C 
ENDROOT
BRANCH   1   2
ATOM      2  C   UNL     1       3.657   1.271   0.738  0.00  0.00    +0.020 A 
ATOM      3  C   UNL     1       4.635   0.904  -0.119  0.00  0.00    +0.051 A 
ATOM      4  C   UNL     1       5.783   1.661   0.187  0.00  0.00    +0.095 A 
ATOM      5  N   UNL     1       5.492   2.446   1.202  0.00  0.00    -0.174 NA
ATOM      6  N   UNL     1       4.159   2.215   1.563  0.00  0.00    -0.283 N 
ATOM      7  H   UNL     1       3.524   2.652   2.348  0.00  0.00    +0.188 HD
BRANCH   4   8
ATOM      8  C   UNL     1       7.092   1.583  -0.509  0.00  0.00    +0.037 A 
ATOM      9  C   UNL     1       8.151   2.389  -0.099  0.00  0.00    +0.013 A 
ATOM     10  C   UNL     1       9.366   2.312  -0.750  0.00  0.00    +0.001 A 
ATOM     11  C   UNL     1       9.534   1.437  -1.808  0.00  0.00    +0.003 A 
ATOM     12  C   UNL     1       8.487   0.633  -2.221  0.00  0.00    +0.039 A 
ATOM     13  C   UNL     1       7.267   0.697  -1.573  0.00  0.00    +0.133 A 
ATOM     14  F   UNL     1       6.246  -0.092  -1.973  0.00  0.00    -0.205 F 
ENDBRANCH   4   8
ENDBRANCH   1   2
BRANCH   1  15
ATOM     15  N   UNL     1       1.365   1.594  -0.002  0.00  0.00    +0.387 N 
ATOM     16  H   UNL     1       1.731   1.642  -1.039  0.00  0.00    -0.085 HD
ATOM     17  H   UNL     1       1.388   2.601   0.441  0.00  0.00    -0.085 HD
BRANCH  15  18
ATOM     18  C   UNL     1      -0.013   1.086   0.008  0.00  0.00    -0.040 C 
ATOM     19  C   UNL     1      -0.729   1.579   1.267  0.00  0.00    -0.009 C 
BRANCH  18  22
ATOM     20  C   UNL     1      -2.633  -0.181  -1.245  0.00  0.00    +0.068 C 
ATOM     21  C   UNL     1      -1.898   1.026  -1.767  0.00  0.00    +0.062 A 
ATOM     22  C   UNL     1      -0.742   1.585  -1.213  0.00  0.00    -0.021 A 
ATOM     23  C   UNL     1      -0.389   2.649  -1.971  0.00  0.00    +0.110 A 
ATOM     24  N   UNL     1      -1.294   2.764  -2.965  0.00  0.00    -0.274 N 
ATOM     25  N   UNL     1      -2.234   1.736  -2.813  0.00  0.00    -0.177 NA
ATOM     26  C   UNL     1      -1.295   3.784  -4.017  0.00  0.00    +0.172 C 
ENDBRANCH  18  22
ENDBRANCH  15  18
ENDBRANCH   1  15
TORSDOF 5
