REMARK  Name = ZINC38819113
REMARK  7 active torsions:
REMARK  status: ('A' for Active; 'I' for Inactive)
REMARK    1  A    between atoms: C_1  and  C_2
REMARK    2  A    between atoms: C_7  and  C_12
REMARK    3  A    between atoms: C_13  and  N_28
REMARK    4  A    between atoms: N_14  and  C_18
REMARK    5  A    between atoms: C_21  and  C_24
REMARK    6  A    between atoms: C_24  and  O_26
REMARK    7  A    between atoms: O_26  and  C_27
REMARK                            x       y       z     vdW  Elec       q    Type
REMARK                         _______ _______ _______ _____ _____    ______ ____
ROOT
ATOM      1  C   UNL     1      -1.166  -5.036   2.113  0.00  0.00    +0.074 C 
ATOM      2  C   UNL     1      -1.164  -6.218   2.814  0.00  0.00    +0.099 C 
ATOM      3  N   UNL     1      -2.405  -6.790   2.843  0.00  0.00    -0.281 N 
ATOM      4  C   UNL     1      -3.315  -5.909   2.095  0.00  0.00    +0.191 C 
ATOM      5  C   UNL     1      -2.443  -4.759   1.637  0.00  0.00    +0.183 C 
ATOM      6  O   UNL     1      -2.789  -3.791   0.985  0.00  0.00    -0.290 OA
ENDROOT
BRANCH   1  13
ATOM      7  C   UNL     1      -0.255   1.602   0.125  0.00  0.00    +0.044 C 
ATOM      8  C   UNL     1      -0.104   0.103   0.185  0.00  0.00    -0.048 A 
ATOM      9  C   UNL     1       0.188  -0.594  -1.001  0.00  0.00    +0.005 A 
ATOM     10  C   UNL     1       0.338  -1.933  -1.038  0.00  0.00    +0.027 A 
ATOM     11  C   UNL     1       0.196  -2.713   0.200  0.00  0.00    +0.060 A 
ATOM     12  N   UNL     1       0.285  -3.986   0.459  0.00  0.00    -0.359 N 
ATOM     13  C   UNL     1       0.042  -4.161   1.896  0.00  0.00    +0.212 C 
ATOM     14  N   UNL     1      -0.202  -2.820   2.441  0.00  0.00    -0.359 N 
ATOM     15  C   UNL     1      -0.112  -1.975   1.455  0.00  0.00    +0.061 A 
ATOM     16  C   UNL     1      -0.250  -0.514   1.375  0.00  0.00    +0.030 A 
ATOM     17  H   UNL     1       0.477  -4.689  -0.181  0.00  0.00    +0.162 HD
ATOM     18  H   UNL     1      -0.394  -2.603   3.367  0.00  0.00    +0.162 HD
ENDBRANCH   1  13
BRANCH   3  19
ATOM     19  C   UNL     1      -2.746  -7.987   3.467  0.00  0.00    +0.035 A 
ATOM     20  C   UNL     1      -3.603  -7.980   4.564  0.00  0.00    +0.024 A 
ATOM     21  C   UNL     1      -3.942  -9.161   5.183  0.00  0.00    +0.017 A 
ATOM     22  C   UNL     1      -3.424 -10.370   4.708  0.00  0.00    +0.059 A 
ATOM     23  C   UNL     1      -2.563 -10.374   3.607  0.00  0.00    +0.017 A 
ATOM     24  C   UNL     1      -2.233  -9.190   2.989  0.00  0.00    +0.024 A 
BRANCH  22  25
ATOM     25  C   UNL     1      -3.784 -11.638   5.369  0.00  0.00    +0.339 C 
ATOM     26  O   UNL     1      -4.532 -11.633   6.327  0.00  0.00    -0.245 OA
BRANCH  25  27
ATOM     27  O   UNL     1      -3.284 -12.803   4.911  0.00  0.00    -0.464 OA
ATOM     28  C   UNL     1      -3.676 -13.992   5.599  0.00  0.00    +0.280 C 
ENDBRANCH  25  27
ENDBRANCH  22  25
ENDBRANCH   3  19
BRANCH   2  29
ATOM     29  N   UNL     1      -0.055  -6.757   3.409  0.00  0.00    -0.346 N 
ATOM     30  H   UNL     1       0.813  -6.345   3.279  0.00  0.00    +0.143 HD
ATOM     31  H   UNL     1      -0.138  -7.551   3.959  0.00  0.00    +0.143 HD
ENDBRANCH   2  29
TORSDOF 5
