REMARK  Name = ZINC27931599
REMARK  3 active torsions:
REMARK  status: ('A' for Active; 'I' for Inactive)
REMARK    1  A    between atoms: C_1  and  C_2
REMARK    2  A    between atoms: C_5  and  N_9
REMARK    3  A    between atoms: C_6  and  C_8
REMARK                            x       y       z     vdW  Elec       q    Type
REMARK                         _______ _______ _______ _____ _____    ______ ____
ROOT
ATOM      1  N   UNL     1       2.403   1.107  -0.015  0.00  0.00    -0.269 N 
ATOM      2  C   UNL     1       2.533  -0.060   0.647  0.00  0.00    +0.310 C 
ATOM      3  O   UNL     1       1.565  -0.567   1.181  0.00  0.00    -0.252 OA
ATOM      4  N   UNL     1       3.735  -0.665   0.717  0.00  0.00    -0.247 N 
ATOM      5  C   UNL     1       3.869  -1.869   1.400  0.00  0.00    +0.189 A 
ATOM      6  N   UNL     1       2.957  -2.580   2.042  0.00  0.00    -0.126 NA
ATOM      7  N   UNL     1       3.243  -3.666   2.618  0.00  0.00    -0.148 NA
ATOM      8  C   UNL     1       4.475  -4.133   2.600  0.00  0.00    +0.183 A 
ATOM      9  S   UNL     1       5.280  -2.857   1.639  0.00  0.00    -0.039 S 
ATOM     10  H   UNL     1       3.260   1.528  -0.560  0.00  0.00    +0.156 HD
ATOM     11  H   UNL     1       4.610  -0.207   0.234  0.00  0.00    +0.158 HD
ENDROOT
BRANCH   1  16
ATOM     12  C   UNL     1      -2.566   3.845   0.010  0.00  0.00    +0.044 C 
ATOM     13  C   UNL     1      -1.246   3.118   0.004  0.00  0.00    -0.050 A 
ATOM     14  C   UNL     1      -1.220   1.735  -0.004  0.00  0.00    +0.005 A 
ATOM     15  C   UNL     1      -0.013   1.065  -0.004  0.00  0.00    +0.024 A 
ATOM     16  C   UNL     1       1.177   1.782  -0.008  0.00  0.00    +0.038 A 
ATOM     17  C   UNL     1       1.148   3.170  -0.006  0.00  0.00    -0.029 A 
ATOM     18  C   UNL     1      -0.063   3.834  -0.000  0.00  0.00    +0.008 A 
ATOM     19  C   UNL     1       2.437   3.952  -0.010  0.00  0.00    +0.045 C 
ENDBRANCH   1  16
TORSDOF 1
