REMARK  Name = ZINC19793473
REMARK  11 active torsions:
REMARK  status: ('A' for Active; 'I' for Inactive)
REMARK    1  A    between atoms: C_1  and  C_2
REMARK    2  A    between atoms: C_2  and  C_3
REMARK    3  A    between atoms: C_3  and  N_4
REMARK    4  A    between atoms: N_4  and  C_5
REMARK    5  A    between atoms: N_4  and  C_8
REMARK    6  A    between atoms: C_5  and  C_6
REMARK    7  A    between atoms: C_6  and  C_7
REMARK    8  A    between atoms: C_8  and  C_9
REMARK    9  A    between atoms: C_10  and  C_22
REMARK   10  A    between atoms: C_14  and  C_21
REMARK   11  A    between atoms: C_16  and  C_20
REMARK                            x       y       z     vdW  Elec       q    Type
REMARK                         _______ _______ _______ _____ _____    ______ ____
ROOT
ATOM      1  C   UNL     1      -2.514   0.147   0.264  0.00  0.00    +0.002 A 
ATOM      2  C   UNL     1      -2.523   1.534   0.173  0.00  0.00    +0.018 A 
ATOM      3  N   UNL     1      -1.429   2.244   0.316  0.00  0.00    -0.358 N 
ATOM      4  C   UNL     1      -0.243   1.667   0.545  0.00  0.00    +0.051 A 
ATOM      5  C   UNL     1       0.922   2.440   0.690  0.00  0.00    +0.029 A 
ATOM      6  C   UNL     1       2.114   1.828   0.928  0.00  0.00    -0.048 A 
ATOM      7  C   UNL     1       2.201   0.441   1.032  0.00  0.00    +0.007 A 
ATOM      8  C   UNL     1       1.093  -0.340   0.897  0.00  0.00    -0.037 A 
ATOM      9  C   UNL     1      -0.151   0.259   0.650  0.00  0.00    +0.048 A 
ATOM     10  C   UNL     1      -1.325  -0.516   0.504  0.00  0.00    +0.191 A 
ATOM     11  O   UNL     1      -1.285  -1.868   0.597  0.00  0.00    -0.287 OA
ATOM     12  C   UNL     1       1.204  -1.838   1.011  0.00  0.00    +0.044 C 
ATOM     13  C   UNL     1       3.359   2.663   1.083  0.00  0.00    +0.044 C 
ATOM     14  C   UNL     1      -3.827   2.243  -0.089  0.00  0.00    +0.063 C 
ATOM     15  H   UNL     1      -1.472   3.341   0.248  0.00  0.00    +0.166 HD
ENDROOT
BRANCH   1  16
ATOM     16  C   UNL     1      -3.794  -0.630   0.099  0.00  0.00    -0.037 C 
BRANCH  16  17
ATOM     17  N   UNL     1      -4.438  -0.796   1.409  0.00  0.00    +0.382 N 
ATOM     18  H   UNL     1      -4.518   0.198   1.875  0.00  0.00    -0.081 HD
BRANCH  17  19
ATOM     19  C   UNL     1      -5.796  -1.337   1.264  0.00  0.00    -0.079 C 
BRANCH  19  21
ATOM     20  C   UNL     1      -8.147  -0.799   0.610  0.00  0.00    +0.002 C 
ATOM     21  C   UNL     1      -6.734  -0.234   0.769  0.00  0.00    -0.022 C 
ENDBRANCH  19  21
ENDBRANCH  17  19
BRANCH  17  22
ATOM     22  C   UNL     1      -3.625  -1.644   2.291  0.00  0.00    -0.079 C 
BRANCH  22  23
ATOM     23  C   UNL     1      -4.227  -1.640   3.698  0.00  0.00    -0.022 C 
ATOM     24  C   UNL     1      -3.311  -2.417   4.646  0.00  0.00    +0.002 C 
ENDBRANCH  22  23
ENDBRANCH  17  22
ENDBRANCH  16  17
ENDBRANCH   1  16
TORSDOF 6
