REMARK  Name = ZINC61766727
REMARK  5 active torsions:
REMARK  status: ('A' for Active; 'I' for Inactive)
REMARK    1  A    between atoms: C_1  and  C_2
REMARK    2  A    between atoms: C_7  and  C_9
REMARK    3  A    between atoms: C_7  and  N_11
REMARK    4  A    between atoms: C_9  and  O_10
REMARK    5  A    between atoms: N_15  and  C_19
REMARK                            x       y       z     vdW  Elec       q    Type
REMARK                         _______ _______ _______ _____ _____    ______ ____
ROOT
ATOM      1  N   UNL     1      -0.605  -2.553   1.232  0.00  0.00    -0.317 N 
ATOM      2  C   UNL     1      -1.489  -2.165   2.230  0.00  0.00    +0.185 A 
ATOM      3  C   UNL     1      -2.829  -2.759   2.309  0.00  0.00    +0.291 A 
ATOM      4  O   UNL     1      -3.187  -3.601   1.503  0.00  0.00    -0.264 OA
ATOM      5  N   UNL     1      -3.656  -2.351   3.297  0.00  0.00    -0.308 N 
ATOM      6  C   UNL     1      -3.220  -1.408   4.180  0.00  0.00    +0.109 A 
ATOM      7  C   UNL     1      -1.981  -0.882   4.077  0.00  0.00    +0.131 A 
ATOM      8  N   UNL     1      -1.135  -1.264   3.120  0.00  0.00    -0.234 NA
ATOM      9  H   UNL     1      -0.885  -3.190   0.556  0.00  0.00    +0.148 HD
ENDROOT
BRANCH   1  15
ATOM     10  C   UNL     1      -0.104   1.358  -0.476  0.00  0.00    +0.007 C 
ATOM     11  C   UNL     1      -0.033  -0.160  -0.295  0.00  0.00    -0.012 C 
ATOM     12  C   UNL     1       0.741  -0.776  -1.462  0.00  0.00    +0.003 C 
ATOM     13  C   UNL     1       0.812  -2.294  -1.281  0.00  0.00    +0.002 C 
ATOM     14  C   UNL     1       1.526  -2.618   0.033  0.00  0.00    +0.028 C 
ATOM     15  C   UNL     1       0.752  -2.001   1.200  0.00  0.00    +0.057 C 
ATOM     16  C   UNL     1       0.681  -0.484   1.019  0.00  0.00    +0.031 C 
BRANCH  15  17
ATOM     17  C   UNL     1       1.466  -2.325   2.514  0.00  0.00    +0.181 C 
BRANCH  17  18
ATOM     18  O   UNL     1       1.421  -3.735   2.745  0.00  0.00    -0.393 OA
ATOM     19  H   UNL     1       1.856  -4.013   3.563  0.00  0.00    +0.209 HD
ENDBRANCH  17  18
ENDBRANCH  15  17
ENDBRANCH   1  15
BRANCH   5  20
ATOM     20  C   UNL     1      -5.003  -2.914   3.417  0.00  0.00    +0.090 C 
ATOM     21  C   UNL     1      -5.952  -2.265   4.426  0.00  0.00    +0.027 C 
ATOM     22  C   UNL     1      -5.351  -3.642   4.716  0.00  0.00    +0.027 C 
ENDBRANCH   5  20
TORSDOF 4
