REMARK  Name = ZINC39685741
REMARK  13 active torsions:
REMARK  status: ('A' for Active; 'I' for Inactive)
REMARK    1  A    between atoms: C_1  and  C_2
REMARK    2  A    between atoms: C_2  and  C_3
REMARK    3  A    between atoms: C_6  and  C_9
REMARK    4  A    between atoms: C_13  and  C_22
REMARK    5  A    between atoms: N_24  and  C_25
REMARK    6  A    between atoms: C_25  and  C_27
REMARK    7  A    between atoms: C_25  and  C_30
REMARK    8  A    between atoms: C_27  and  C_28
REMARK    9  A    between atoms: C_27  and  C_29
REMARK   10  A    between atoms: N_32  and  C_33
REMARK   11  A    between atoms: C_33  and  C_34
REMARK   12  A    between atoms: C_33  and  C_35
REMARK   13  A    between atoms: C_33  and  C_36
REMARK                            x       y       z     vdW  Elec       q    Type
REMARK                         _______ _______ _______ _____ _____    ______ ____
ROOT
ATOM      1  C   UNL     1      -4.932  -1.601  -0.265  0.00  0.00    +0.247 C 
ATOM      2  O   UNL     1      -5.287  -1.793   0.881  0.00  0.00    -0.270 OA
ATOM      3  N   UNL     1      -5.769  -1.877  -1.285  0.00  0.00    -0.296 N 
ATOM      4  C   UNL     1      -5.477  -1.835  -2.737  0.00  0.00    +0.121 C 
ATOM      5  C   UNL     1      -6.220  -3.058  -3.320  0.00  0.00    +0.100 C 
ATOM      6  C   UNL     1      -7.344  -3.352  -2.312  0.00  0.00    -0.004 C 
ATOM      7  C   UNL     1      -7.189  -2.298  -1.206  0.00  0.00    +0.115 C 
ATOM      8  C   UNL     1      -7.177  -4.751  -1.727  0.00  0.00    -0.010 C 
ATOM      9  C   UNL     1      -8.338  -5.041  -0.771  0.00  0.00    -0.082 C 
ATOM     10  N   UNL     1      -9.609  -4.941  -1.498  0.00  0.00    +0.379 N 
ATOM     11  C   UNL     1      -9.805  -3.568  -1.979  0.00  0.00    -0.082 C 
ATOM     12  C   UNL     1      -8.706  -3.216  -2.985  0.00  0.00    -0.010 C 
ATOM     13  H   UNL     1      -9.595  -5.573  -2.285  0.00  0.00    -0.086 HD
ATOM     14  H   UNL     1     -10.368  -5.192  -0.882  0.00  0.00    -0.086 HD
ENDROOT
BRANCH   1  18
ATOM     15  C   UNL     1      -1.054  -0.060  -1.060  0.00  0.00    -0.048 A 
ATOM     16  C   UNL     1      -1.313  -0.685   0.147  0.00  0.00    +0.004 A 
ATOM     17  C   UNL     1      -2.570  -1.188   0.411  0.00  0.00    +0.013 A 
ATOM     18  C   UNL     1      -3.583  -1.064  -0.542  0.00  0.00    +0.037 A 
ATOM     19  C   UNL     1      -3.315  -0.432  -1.757  0.00  0.00    +0.013 A 
ATOM     20  C   UNL     1      -2.055   0.071  -2.007  0.00  0.00    +0.004 A 
BRANCH  15  22
ATOM     21  C   UNL     1       0.404   1.936  -0.857  0.00  0.00    +0.009 C 
ATOM     22  C   UNL     1       0.321   0.487  -1.342  0.00  0.00    +0.032 C 
ENDBRANCH  15  22
ENDBRANCH   1  18
BRANCH   5  23
ATOM     23  C   UNL     1      -5.287  -4.237  -3.427  0.00  0.00    +0.219 C 
ATOM     24  O   UNL     1      -5.261  -4.900  -4.442  0.00  0.00    -0.275 OA
ATOM     25  N   UNL     1      -4.481  -4.554  -2.394  0.00  0.00    -0.303 N 
ATOM     26  H   UNL     1      -4.502  -4.024  -1.582  0.00  0.00    +0.149 HD
BRANCH  25  27
ATOM     27  C   UNL     1      -3.574  -5.700  -2.498  0.00  0.00    +0.161 C 
BRANCH  27  28
ATOM     28  C   UNL     1      -3.261  -6.220  -1.119  0.00  0.00    +0.234 C 
ATOM     29  O   UNL     1      -3.748  -5.686  -0.144  0.00  0.00    -0.274 OA
ATOM     30  N   UNL     1      -2.441  -7.278  -0.967  0.00  0.00    -0.309 N 
ATOM     31  H   UNL     1      -2.052  -7.706  -1.746  0.00  0.00    +0.149 HD
BRANCH  30  32
ATOM     32  C   UNL     1      -2.137  -7.784   0.374  0.00  0.00    +0.026 C 
ATOM     33  C   UNL     1      -3.433  -8.220   1.061  0.00  0.00    +0.031 C 
ATOM     34  C   UNL     1      -1.190  -8.980   0.265  0.00  0.00    +0.031 C 
ATOM     35  C   UNL     1      -1.471  -6.679   1.196  0.00  0.00    +0.031 C 
ENDBRANCH  30  32
ENDBRANCH  27  28
BRANCH  27  36
ATOM     36  C   UNL     1      -2.278  -5.264  -3.185  0.00  0.00    +0.012 C 
ATOM     37  C   UNL     1      -2.596  -4.737  -4.585  0.00  0.00    +0.009 C 
ATOM     38  C   UNL     1      -1.612  -4.160  -2.362  0.00  0.00    +0.009 C 
ENDBRANCH  27  36
ENDBRANCH  25  27
ENDBRANCH   5  23
TORSDOF 7
