REMARK  Name = ZINC07524803
REMARK  13 active torsions:
REMARK  status: ('A' for Active; 'I' for Inactive)
REMARK    1  A    between atoms: C_1  and  C_2
REMARK    2  A    between atoms: C_2  and  C_3
REMARK    3  A    between atoms: C_3  and  C_4
REMARK    4  A    between atoms: C_4  and  N_5
REMARK    5  A    between atoms: C_9  and  C_11
REMARK    6  A    between atoms: C_11  and  N_12
REMARK    7  A    between atoms: N_12  and  C_13
REMARK    8  A    between atoms: N_12  and  C_14
REMARK    9  A    between atoms: C_14  and  C_15
REMARK   10  A    between atoms: N_17  and  C_18
REMARK   11  A    between atoms: C_19  and  C_26
REMARK   12  A    between atoms: C_21  and  C_25
REMARK   13  A    between atoms: C_23  and  C_24
REMARK                            x       y       z     vdW  Elec       q    Type
REMARK                         _______ _______ _______ _____ _____    ______ ____
ROOT
ATOM      1  N   UNL     1      -6.437  -7.608   1.680  0.00  0.00    +0.389 N 
ATOM      2  C   UNL     1      -5.133  -8.056   1.174  0.00  0.00    -0.095 C 
ATOM      3  H   UNL     1      -6.557  -7.928   2.630  0.00  0.00    -0.081 HD
ENDROOT
BRANCH   1   4
ATOM      4  C   UNL     1      -6.497  -6.140   1.648  0.00  0.00    +0.019 C 
BRANCH   4   9
ATOM      5  N   UNL     1      -4.322  -2.398   3.741  0.00  0.00    -0.299 N 
ATOM      6  C   UNL     1      -4.447  -3.733   3.602  0.00  0.00    +0.306 C 
ATOM      7  O   UNL     1      -3.741  -4.481   4.250  0.00  0.00    -0.252 OA
ATOM      8  N   UNL     1      -5.356  -4.239   2.745  0.00  0.00    -0.242 N 
ATOM      9  C   UNL     1      -5.481  -5.574   2.606  0.00  0.00    +0.204 C 
ATOM     10  O   UNL     1      -4.777  -6.319   3.253  0.00  0.00    -0.277 OA
ATOM     11  H   UNL     1      -4.886  -1.802   3.223  0.00  0.00    +0.150 HD
ATOM     12  H   UNL     1      -5.920  -3.643   2.227  0.00  0.00    +0.159 HD
BRANCH   5  13
ATOM     13  C   UNL     1      -3.335  -1.848   4.673  0.00  0.00    +0.106 C 
BRANCH  13  14
ATOM     14  C   UNL     1      -3.397  -0.320   4.638  0.00  0.00    +0.018 C 
BRANCH  14  16
ATOM     15  C   UNL     1      -2.429   1.783   5.578  0.00  0.00    +0.004 C 
ATOM     16  C   UNL     1      -2.366   0.255   5.612  0.00  0.00    -0.002 C 
ENDBRANCH  14  16
ENDBRANCH  13  14
ENDBRANCH   5  13
ENDBRANCH   4   9
ENDBRANCH   1   4
BRANCH   1  17
ATOM     17  C   UNL     1      -7.505  -8.160   0.838  0.00  0.00    +0.019 C 
BRANCH  17  18
ATOM     18  C   UNL     1      -7.522  -9.662   0.968  0.00  0.00    +0.201 C 
ATOM     19  O   UNL     1      -6.722 -10.216   1.691  0.00  0.00    -0.278 OA
ATOM     20  N   UNL     1      -8.425 -10.388   0.280  0.00  0.00    -0.287 N 
ATOM     21  H   UNL     1      -9.099  -9.942  -0.256  0.00  0.00    +0.155 HD
BRANCH  20  22
ATOM     22  C   UNL     1      -8.390 -11.786   0.339  0.00  0.00    +0.039 A 
ATOM     23  C   UNL     1      -7.211 -12.464   0.063  0.00  0.00    -0.029 A 
ATOM     24  C   UNL     1      -7.180 -13.844   0.122  0.00  0.00    +0.008 A 
ATOM     25  C   UNL     1      -8.322 -14.549   0.455  0.00  0.00    -0.050 A 
ATOM     26  C   UNL     1      -9.498 -13.876   0.730  0.00  0.00    +0.008 A 
ATOM     27  C   UNL     1      -9.534 -12.496   0.679  0.00  0.00    -0.029 A 
ATOM     28  C   UNL     1     -10.815 -11.763   0.985  0.00  0.00    +0.045 C 
ATOM     29  C   UNL     1      -8.284 -16.054   0.519  0.00  0.00    +0.044 C 
ATOM     30  C   UNL     1      -5.966 -11.697  -0.301  0.00  0.00    +0.045 C 
ENDBRANCH  20  22
ENDBRANCH  17  18
ENDBRANCH   1  17
TORSDOF 8
