REMARK  Name = ZINC39663151
REMARK  4 active torsions:
REMARK  status: ('A' for Active; 'I' for Inactive)
REMARK    1  A    between atoms: C_1  and  N_2
REMARK    2  A    between atoms: C_6  and  C_7
REMARK    3  A    between atoms: C_11  and  C_20
REMARK    4  A    between atoms: N_22  and  C_23
REMARK                            x       y       z     vdW  Elec       q    Type
REMARK                         _______ _______ _______ _____ _____    ______ ____
ROOT
ATOM      1  C   UNL     1      -0.176  -0.368   2.552  0.00  0.00    +0.263 C 
ATOM      2  O   UNL     1      -0.133  -1.178   3.459  0.00  0.00    -0.268 OA
ATOM      3  N   UNL     1      -0.391   0.935   2.821  0.00  0.00    -0.295 N 
ATOM      4  C   UNL     1      -0.617   2.037   1.855  0.00  0.00    +0.121 C 
ATOM      5  C   UNL     1      -1.706   2.914   2.512  0.00  0.00    +0.100 C 
ATOM      6  C   UNL     1      -1.594   2.618   4.017  0.00  0.00    -0.004 C 
ATOM      7  C   UNL     1      -0.462   1.589   4.149  0.00  0.00    +0.115 C 
ATOM      8  C   UNL     1      -2.900   2.026   4.538  0.00  0.00    -0.010 C 
ATOM      9  C   UNL     1      -2.783   1.793   6.047  0.00  0.00    -0.082 C 
ATOM     10  N   UNL     1      -2.497   3.066   6.720  0.00  0.00    +0.379 N 
ATOM     11  C   UNL     1      -1.195   3.583   6.281  0.00  0.00    -0.082 C 
ATOM     12  C   UNL     1      -1.244   3.891   4.782  0.00  0.00    -0.010 C 
ATOM     13  H   UNL     1      -3.217   3.735   6.491  0.00  0.00    -0.086 HD
ATOM     14  H   UNL     1      -2.481   2.921   7.718  0.00  0.00    -0.086 HD
ENDROOT
BRANCH   1  20
ATOM     15  C   UNL     1      -0.010  -3.305   1.579  0.00  0.00    +0.149 C 
ATOM     16  N   UNL     1       0.081  -2.114   0.730  0.00  0.00    -0.346 N 
ATOM     17  C   UNL     1       0.246  -2.113  -0.616  0.00  0.00    +0.086 A 
ATOM     18  C   UNL     1       0.284  -0.831  -1.051  0.00  0.00    +0.020 A 
ATOM     19  C   UNL     1       0.138   0.004   0.060  0.00  0.00    +0.032 A 
ATOM     20  C   UNL     1       0.006  -0.810   1.165  0.00  0.00    +0.104 A 
ENDBRANCH   1  20
BRANCH   5  21
ATOM     21  C   UNL     1      -1.439   4.372   2.241  0.00  0.00    +0.218 C 
ATOM     22  O   UNL     1      -0.298   4.776   2.164  0.00  0.00    -0.275 OA
ATOM     23  N   UNL     1      -2.469   5.227   2.083  0.00  0.00    -0.314 N 
ATOM     24  H   UNL     1      -3.381   4.904   2.144  0.00  0.00    +0.149 HD
BRANCH  23  25
ATOM     25  C   UNL     1      -2.210   6.645   1.819  0.00  0.00    +0.059 C 
ATOM     26  C   UNL     1      -2.003   6.858   0.318  0.00  0.00    -0.056 C 
ATOM     27  N   UNL     1      -3.011   7.786  -0.201  0.00  0.00    +0.381 N 
ATOM     28  C   UNL     1      -4.358   7.240  -0.016  0.00  0.00    -0.078 C 
ATOM     29  C   UNL     1      -4.643   7.040   1.475  0.00  0.00    -0.014 C 
ATOM     30  C   UNL     1      -3.410   7.482   2.280  0.00  0.00    +0.004 C 
ATOM     31  C   UNL     1      -3.126   8.955   1.958  0.00  0.00    -0.014 C 
ATOM     32  C   UNL     1      -2.891   9.093   0.449  0.00  0.00    -0.078 C 
ATOM     33  H   UNL     1      -2.857   7.905  -1.190  0.00  0.00    -0.082 HD
ENDBRANCH  23  25
ENDBRANCH   5  21
TORSDOF 3
