REMARK  Name = ZINC67271504
REMARK  6 active torsions:
REMARK  status: ('A' for Active; 'I' for Inactive)
REMARK    1  A    between atoms: C_1  and  C_2
REMARK    2  A    between atoms: C_5  and  C_8
REMARK    3  A    between atoms: C_8  and  C_10
REMARK    4  A    between atoms: C_8  and  N_26
REMARK    5  A    between atoms: C_10  and  N_11
REMARK    6  A    between atoms: C_12  and  C_14
REMARK                            x       y       z     vdW  Elec       q    Type
REMARK                         _______ _______ _______ _____ _____    ______ ____
ROOT
ATOM      1  N   UNL     1      -1.318  -6.281   0.232  0.00  0.00    -0.316 N 
ATOM      2  C   UNL     1      -2.465  -6.980   0.342  0.00  0.00    +0.216 C 
ATOM      3  O   UNL     1      -3.523  -6.396   0.450  0.00  0.00    -0.276 OA
ATOM      4  H   UNL     1      -0.472  -6.748   0.146  0.00  0.00    +0.149 HD
ENDROOT
BRANCH   2   5
ATOM      5  C   UNL     1      -2.434  -8.487   0.332  0.00  0.00    +0.075 C 
ATOM      6  C   UNL     1      -1.828  -8.975  -0.985  0.00  0.00    +0.015 C 
ATOM      7  C   UNL     1      -1.785 -10.505  -0.989  0.00  0.00    +0.036 C 
ATOM      8  C   UNL     1      -3.197 -11.057  -0.824  0.00  0.00    +0.112 C 
ATOM      9  C   UNL     1      -3.824 -10.558   0.473  0.00  0.00    +0.036 C 
ATOM     10  C   UNL     1      -3.858  -9.027   0.471  0.00  0.00    +0.015 C 
ATOM     11  C   UNL     1      -4.055 -10.672  -2.007  0.00  0.00    +0.244 C 
ATOM     12  O   UNL     1      -4.345  -9.553  -2.371  0.00  0.00    -0.273 OA
ATOM     13  N   UNL     1      -4.431 -11.838  -2.574  0.00  0.00    -0.238 N 
ATOM     14  C   UNL     1      -3.931 -12.890  -1.914  0.00  0.00    +0.307 C 
ATOM     15  O   UNL     1      -4.131 -14.046  -2.234  0.00  0.00    -0.252 OA
ATOM     16  N   UNL     1      -3.182 -12.525  -0.857  0.00  0.00    -0.285 N 
ATOM     17  H   UNL     1      -4.994 -11.905  -3.361  0.00  0.00    +0.159 HD
ATOM     18  H   UNL     1      -2.723 -13.115  -0.238  0.00  0.00    +0.151 HD
ENDBRANCH   2   5
BRANCH   1  19
ATOM     19  C   UNL     1      -1.348  -4.817   0.242  0.00  0.00    +0.093 C 
BRANCH  19  20
ATOM     20  C   UNL     1       0.057  -4.275  -0.027  0.00  0.00    -0.020 C 
BRANCH  20  25
ATOM     21  C   UNL     1       1.667  -5.689  -5.394  0.00  0.00    +0.044 C 
ATOM     22  C   UNL     1       1.248  -5.320  -3.994  0.00  0.00    -0.050 A 
ATOM     23  C   UNL     1       1.702  -6.060  -2.919  0.00  0.00    +0.003 A 
ATOM     24  C   UNL     1       1.317  -5.722  -1.635  0.00  0.00    +0.002 A 
ATOM     25  C   UNL     1       0.478  -4.643  -1.427  0.00  0.00    -0.059 A 
ATOM     26  C   UNL     1       0.024  -3.903  -2.502  0.00  0.00    +0.002 A 
ATOM     27  C   UNL     1       0.412  -4.239  -3.786  0.00  0.00    +0.003 A 
ENDBRANCH  20  25
BRANCH  20  28
ATOM     28  N   UNL     1       0.054  -2.813   0.115  0.00  0.00    +0.385 N 
ATOM     29  C   UNL     1       1.387  -2.277  -0.234  0.00  0.00    -0.078 C 
ATOM     30  C   UNL     1       1.604  -1.092   0.740  0.00  0.00    -0.020 C 
ATOM     31  C   UNL     1       0.950  -1.631   2.039  0.00  0.00    -0.020 C 
ATOM     32  C   UNL     1      -0.247  -2.451   1.512  0.00  0.00    -0.078 C 
ATOM     33  H   UNL     1      -0.641  -2.413  -0.497  0.00  0.00    -0.081 HD
ENDBRANCH  20  28
ENDBRANCH  19  20
ENDBRANCH   1  19
TORSDOF 5
