REMARK  Name = ZINC14458852
REMARK  7 active torsions:
REMARK  status: ('A' for Active; 'I' for Inactive)
REMARK    1  A    between atoms: C_1  and  O_2
REMARK    2  A    between atoms: O_2  and  C_3
REMARK    3  A    between atoms: C_5  and  C_10
REMARK    4  A    between atoms: C_8  and  O_9
REMARK    5  A    between atoms: C_21  and  S_26
REMARK    6  A    between atoms: S_26  and  N_29
REMARK    7  A    between atoms: N_29  and  C_30
REMARK                            x       y       z     vdW  Elec       q    Type
REMARK                         _______ _______ _______ _____ _____    ______ ____
ROOT
ATOM      1  C   UNL     1       1.393   1.693  -0.002  0.00  0.00    +0.105 C 
ATOM      2  C   UNL     1      -0.013   1.086   0.008  0.00  0.00    +0.029 C 
ATOM      3  C   UNL     1      -0.788   1.690  -1.199  0.00  0.00    +0.033 C 
ATOM      4  C   UNL     1      -1.303   3.017  -0.645  0.00  0.00    -0.030 C 
ATOM      5  C   UNL     1      -1.317   3.001   0.665  0.00  0.00    -0.023 C 
ATOM      6  C   UNL     1      -0.830   1.667   1.178  0.00  0.00    +0.049 C 
ATOM      7  C   UNL     1      -0.046   1.840   2.425  0.00  0.00    -0.018 A 
ATOM      8  C   UNL     1      -0.721   2.132   3.603  0.00  0.00    +0.034 A 
ATOM      9  C   UNL     1      -0.030   2.286   4.787  0.00  0.00    +0.106 A 
ATOM     10  C   UNL     1       1.346   2.151   4.815  0.00  0.00    +0.030 A 
ATOM     11  C   UNL     1       2.029   1.860   3.651  0.00  0.00    +0.025 A 
ATOM     12  C   UNL     1       1.333   1.706   2.458  0.00  0.00    +0.031 A 
ATOM     13  N   UNL     1       2.039   1.416   1.285  0.00  0.00    -0.336 N 
ATOM     14  H   UNL     1       2.933   1.040   1.322  0.00  0.00    +0.147 HD
ENDROOT
BRANCH   1  17
ATOM     15  C   UNL     1       3.104   1.195  -3.333  0.00  0.00    +0.162 A 
ATOM     16  C   UNL     1       2.358   1.757  -2.310  0.00  0.00    +0.054 A 
ATOM     17  C   UNL     1       2.200   1.078  -1.116  0.00  0.00    -0.023 A 
ATOM     18  C   UNL     1       2.778  -0.166  -0.943  0.00  0.00    +0.009 A 
ATOM     19  C   UNL     1       3.520  -0.735  -1.962  0.00  0.00    +0.049 A 
ATOM     20  C   UNL     1       3.686  -0.058  -3.159  0.00  0.00    +0.158 A 
BRANCH  15  22
ATOM     21  C   UNL     1       2.639   3.144  -4.614  0.00  0.00    +0.277 C 
ATOM     22  O   UNL     1       3.264   1.863  -4.506  0.00  0.00    -0.491 OA
ENDBRANCH  15  22
BRANCH  20  23
ATOM     23  O   UNL     1       4.415  -0.616  -4.162  0.00  0.00    -0.503 OA
ATOM     24  H   UNL     1       3.896  -1.160  -4.770  0.00  0.00    +0.292 HD
ENDBRANCH  20  23
ENDBRANCH   1  17
BRANCH   9  25
ATOM     25  S   UNL     1      -0.905   2.658   6.271  0.00  0.00    +0.059 S 
ATOM     26  O   UNL     1       0.023   3.291   7.141  0.00  0.00    -0.153 OA
ATOM     27  O   UNL     1      -2.125   3.272   5.880  0.00  0.00    -0.153 OA
BRANCH  25  28
ATOM     28  N   UNL     1      -1.306   1.214   6.977  0.00  0.00    -0.187 NA
ATOM     29  H   UNL     1      -2.238   0.960   7.064  0.00  0.00    +0.148 HD
BRANCH  28  30
ATOM     30  C   UNL     1      -0.254   0.322   7.470  0.00  0.00    +0.077 C 
ATOM     31  C   UNL     1       0.080  -0.714   6.395  0.00  0.00    +0.020 C 
ATOM     32  C   UNL     1       1.179  -1.646   6.910  0.00  0.00    +0.002 C 
ATOM     33  C   UNL     1       0.693  -2.360   8.172  0.00  0.00    +0.000 C 
ATOM     34  C   UNL     1       0.358  -1.323   9.247  0.00  0.00    +0.002 C 
ATOM     35  C   UNL     1      -0.741  -0.392   8.733  0.00  0.00    +0.020 C 
ENDBRANCH  28  30
ENDBRANCH  25  28
ENDBRANCH   9  25
TORSDOF 6
