REMARK  Name = ZINC62704596
REMARK  12 active torsions:
REMARK  status: ('A' for Active; 'I' for Inactive)
REMARK    1  A    between atoms: C_1  and  C_2
REMARK    2  A    between atoms: C_2  and  C_3
REMARK    3  A    between atoms: C_3  and  C_4
REMARK    4  A    between atoms: C_4  and  C_6
REMARK    5  A    between atoms: C_4  and  N_7
REMARK    6  A    between atoms: C_8  and  C_10
REMARK    7  A    between atoms: C_10  and  O_11
REMARK    8  A    between atoms: O_11  and  C_12
REMARK    9  A    between atoms: C_15  and  C_19
REMARK   10  A    between atoms: C_19  and  C_20
REMARK   11  A    between atoms: C_20  and  C_22
REMARK   12  A    between atoms: C_20  and  N_23
REMARK                            x       y       z     vdW  Elec       q    Type
REMARK                         _______ _______ _______ _____ _____    ______ ____
ROOT
ATOM      1  C   UNL     1       1.477  -6.129  -3.501  0.00  0.00    +0.135 A 
ATOM      2  C   UNL     1       1.518  -5.463  -4.716  0.00  0.00    +0.047 A 
ATOM      3  C   UNL     1       2.108  -6.062  -5.812  0.00  0.00    +0.007 A 
ATOM      4  C   UNL     1       2.658  -7.325  -5.699  0.00  0.00    -0.048 A 
ATOM      5  C   UNL     1       2.619  -7.993  -4.489  0.00  0.00    +0.022 A 
ATOM      6  C   UNL     1       2.034  -7.395  -3.387  0.00  0.00    +0.060 A 
ATOM      7 BR   UNL     1       1.989  -8.305  -1.730  0.00  0.00    -0.047 Br
ENDROOT
BRANCH   1   8
ATOM      8  O   UNL     1       0.897  -5.542  -2.421  0.00  0.00    -0.482 OA
BRANCH   8   9
ATOM      9  C   UNL     1       0.343  -4.238  -2.611  0.00  0.00    +0.324 C 
BRANCH   9  11
ATOM     10  N   UNL     1      -0.834  -2.537  -1.256  0.00  0.00    -0.310 N 
ATOM     11  C   UNL     1      -0.252  -3.751  -1.315  0.00  0.00    +0.251 C 
ATOM     12  O   UNL     1      -0.206  -4.451  -0.326  0.00  0.00    -0.272 OA
ATOM     13  H   UNL     1      -0.871  -1.977  -2.047  0.00  0.00    +0.149 HD
BRANCH  10  14
ATOM     14  C   UNL     1      -1.413  -2.063   0.004  0.00  0.00    +0.070 C 
ATOM     15  C   UNL     1      -2.841  -2.594   0.141  0.00  0.00    +0.028 C 
BRANCH  14  16
ATOM     16  C   UNL     1      -1.433  -0.534   0.013  0.00  0.00    +0.022 C 
BRANCH  16  18
ATOM     17  C   UNL     1      -0.019   1.526   0.010  0.00  0.00    +0.004 C 
ATOM     18  C   UNL     1       0.002  -0.004   0.002  0.00  0.00    -0.002 C 
ENDBRANCH  16  18
ENDBRANCH  14  16
ENDBRANCH  10  14
ENDBRANCH   9  11
ENDBRANCH   8   9
ENDBRANCH   1   8
BRANCH   4  19
ATOM     19  C   UNL     1       3.301  -7.977  -6.896  0.00  0.00    +0.019 C 
BRANCH  19  20
ATOM     20  C   UNL     1       4.786  -7.612  -6.939  0.00  0.00    -0.074 C 
ATOM     21  C   UNL     1       5.411  -8.169  -8.219  0.00  0.00    -0.014 C 
BRANCH  20  22
ATOM     22  N   UNL     1       5.465  -8.190  -5.771  0.00  0.00    +0.380 N 
ATOM     23  H   UNL     1       5.365  -9.194  -5.786  0.00  0.00    -0.090 HD
ATOM     24  H   UNL     1       6.445  -7.950  -5.799  0.00  0.00    -0.090 HD
ATOM     25  H   UNL     1       5.053  -7.823  -4.926  0.00  0.00    -0.090 HD
ENDBRANCH  20  22
ENDBRANCH  19  20
ENDBRANCH   4  19
TORSDOF 9
