REMARK  Name = ZINC06781480
REMARK  7 active torsions:
REMARK  status: ('A' for Active; 'I' for Inactive)
REMARK    1  A    between atoms: C_1  and  C_2
REMARK    2  A    between atoms: C_2  and  C_3
REMARK    3  A    between atoms: C_2  and  C_4
REMARK    4  A    between atoms: C_2  and  C_5
REMARK    5  A    between atoms: C_12  and  N_26
REMARK    6  A    between atoms: C_13  and  C_24
REMARK    7  A    between atoms: C_14  and  C_16
REMARK                            x       y       z     vdW  Elec       q    Type
REMARK                         _______ _______ _______ _____ _____    ______ ____
ROOT
ATOM      1  C   UNL     1       0.854  -0.282  -1.268  0.00  0.00    +0.049 A 
ATOM      2  C   UNL     1       0.959  -1.559  -1.666  0.00  0.00    +0.050 A 
ATOM      3  C   UNL     1       1.684  -1.583  -2.877  0.00  0.00    +0.245 A 
ATOM      4  N   UNL     1       1.999  -0.358  -3.182  0.00  0.00    -0.135 NA
ATOM      5  N   UNL     1       1.483   0.487  -2.187  0.00  0.00    -0.277 N 
ATOM      6  H   UNL     1       1.565   1.453  -2.161  0.00  0.00    +0.189 HD
ATOM      7  O   UNL     1       1.952  -2.743  -3.534  0.00  0.00    -0.421 OA
ATOM      8  C   UNL     1       1.280  -3.845  -3.147  0.00  0.00    +0.201 C 
ATOM      9  C   UNL     1       0.564  -3.944  -2.007  0.00  0.00    +0.098 C 
ATOM     10  C   UNL     1       0.436  -2.815  -1.016  0.00  0.00    +0.107 C 
ENDROOT
BRANCH  10  11
ATOM     11  C   UNL     1       1.246  -3.125   0.216  0.00  0.00    +0.036 A 
ATOM     12  C   UNL     1       2.628  -3.171   0.143  0.00  0.00    +0.130 A 
ATOM     13  C   UNL     1       3.371  -3.456   1.276  0.00  0.00    +0.039 A 
ATOM     14  C   UNL     1       2.734  -3.695   2.480  0.00  0.00    +0.006 A 
ATOM     15  C   UNL     1       1.355  -3.649   2.553  0.00  0.00    +0.039 A 
ATOM     16  C   UNL     1       0.610  -3.358   1.423  0.00  0.00    +0.130 A 
ATOM     17  F   UNL     1      -0.738  -3.308   1.497  0.00  0.00    -0.205 F 
ATOM     18  F   UNL     1       3.251  -2.939  -1.033  0.00  0.00    -0.205 F 
ENDBRANCH  10  11
BRANCH   1  20
ATOM     19  C   UNL     1       0.121   1.738  -0.030  0.00  0.00    +0.017 C 
ATOM     20  C   UNL     1       0.157   0.208  -0.025  0.00  0.00    +0.004 C 
ATOM     21  C   UNL     1       0.915  -0.280   1.211  0.00  0.00    +0.017 C 
ATOM     22  C   UNL     1      -1.273  -0.336   0.006  0.00  0.00    +0.017 C 
ENDBRANCH   1  20
BRANCH   8  23
ATOM     23  N   UNL     1       1.326  -4.943  -3.969  0.00  0.00    -0.328 N 
ATOM     24  H   UNL     1       1.830  -4.909  -4.797  0.00  0.00    +0.145 HD
ATOM     25  H   UNL     1       0.854  -5.754  -3.723  0.00  0.00    +0.145 HD
ENDBRANCH   8  23
BRANCH   9  26
ATOM     26  C   UNL     1      -0.105  -5.178  -1.726  0.00  0.00    +0.101 C 
ATOM     27  N   UNL     1      -0.635  -6.158  -1.502  0.00  0.00    -0.191 NA
ENDBRANCH   9  26
TORSDOF 4
