REMARK  Name = ZINC51488453
REMARK  8 active torsions:
REMARK  status: ('A' for Active; 'I' for Inactive)
REMARK    1  A    between atoms: C_1  and  C_2
REMARK    2  A    between atoms: C_2  and  N_3
REMARK    3  A    between atoms: N_3  and  C_4
REMARK    4  A    between atoms: C_4  and  C_5
REMARK    5  A    between atoms: C_9  and  N_11
REMARK    6  A    between atoms: C_13  and  C_20
REMARK    7  A    between atoms: C_16  and  C_18
REMARK    8  A    between atoms: C_16  and  C_19
REMARK                            x       y       z     vdW  Elec       q    Type
REMARK                         _______ _______ _______ _____ _____    ______ ____
ROOT
ATOM      1  C   UNL     1       1.511  -2.260   2.478  0.00  0.00    +0.045 A 
ATOM      2  C   UNL     1       2.828  -2.656   2.351  0.00  0.00    +0.060 A 
ATOM      3  C   UNL     1       3.443  -3.321   3.404  0.00  0.00    +0.025 A 
ATOM      4  C   UNL     1       2.709  -3.563   4.551  0.00  0.00    +0.045 A 
ATOM      5  C   UNL     1       1.387  -3.135   4.610  0.00  0.00    +0.122 A 
ATOM      6  N   UNL     1       0.837  -2.500   3.587  0.00  0.00    -0.237 NA
ATOM      7 CL   UNL     1       3.705  -2.328   0.889  0.00  0.00    -0.082 Cl
ENDROOT
BRANCH   5   8
ATOM      8  N   UNL     1       0.637  -3.373   5.757  0.00  0.00    -0.310 N 
ATOM      9  C   UNL     1      -0.818  -3.149   5.771  0.00  0.00    +0.138 C 
ATOM     10  C   UNL     1      -1.162  -2.284   6.989  0.00  0.00    +0.133 C 
ATOM     11  O   UNL     1      -0.599  -2.877   8.162  0.00  0.00    -0.368 OA
ATOM     12  C   UNL     1       0.828  -2.957   8.150  0.00  0.00    +0.080 C 
ATOM     13  C   UNL     1       1.273  -3.862   6.991  0.00  0.00    +0.141 C 
ATOM     14  C   UNL     1       1.317  -3.547   9.474  0.00  0.00    +0.043 C 
ATOM     15  C   UNL     1       1.417  -1.556   7.966  0.00  0.00    +0.043 C 
ATOM     16  C   UNL     1      -2.682  -2.194   7.139  0.00  0.00    +0.039 C 
ENDBRANCH   5   8
BRANCH   1  17
ATOM     17  C   UNL     1       0.837  -1.539   1.339  0.00  0.00    -0.025 C 
BRANCH  17  18
ATOM     18  N   UNL     1       1.039  -0.091   1.488  0.00  0.00    +0.383 N 
ATOM     19  H   UNL     1       2.027   0.113   1.478  0.00  0.00    -0.085 HD
ATOM     20  H   UNL     1       0.641   0.216   2.363  0.00  0.00    -0.085 HD
BRANCH  18  22
ATOM     21  C   UNL     1       0.594   2.119   0.534  0.00  0.00    -0.017 C 
ATOM     22  C   UNL     1       0.383   0.612   0.378  0.00  0.00    -0.086 C 
ENDBRANCH  18  22
ENDBRANCH  17  18
ENDBRANCH   1  17
TORSDOF 4
