REMARK  Name = ZINC43474200
REMARK  5 active torsions:
REMARK  status: ('A' for Active; 'I' for Inactive)
REMARK    1  A    between atoms: C_1  and  C_2
REMARK    2  A    between atoms: C_2  and  C_4
REMARK    3  A    between atoms: C_2  and  N_10
REMARK    4  A    between atoms: N_10  and  C_11
REMARK    5  A    between atoms: C_14  and  N_18
REMARK                            x       y       z     vdW  Elec       q    Type
REMARK                         _______ _______ _______ _____ _____    ______ ____
ROOT
ATOM      1  N   UNL     1      -1.372  -0.511   0.012  0.00  0.00    -0.334 N 
ATOM      2  H   UNL     1      -1.810  -0.743  -0.822  0.00  0.00    +0.147 HD
ENDROOT
BRANCH   1   3
ATOM      3  C   UNL     1      -2.053  -0.661   1.225  0.00  0.00    +0.063 A 
ATOM      4  C   UNL     1      -1.431  -0.324   2.419  0.00  0.00    +0.028 A 
ATOM      5  C   UNL     1      -2.106  -0.472   3.615  0.00  0.00    +0.035 A 
ATOM      6  C   UNL     1      -3.401  -0.956   3.625  0.00  0.00    +0.129 A 
ATOM      7  C   UNL     1      -4.026  -1.293   2.438  0.00  0.00    +0.073 A 
ATOM      8  C   UNL     1      -3.358  -1.142   1.236  0.00  0.00    +0.146 A 
ATOM      9  F   UNL     1      -3.970  -1.466   0.077  0.00  0.00    -0.203 F 
BRANCH   6  10
ATOM     10  N   UNL     1      -4.121  -1.113   4.908  0.00  0.00    +0.057 N 
ATOM     11  O   UNL     1      -3.576  -0.818   5.947  0.00  0.00    -0.126 OA
ATOM     12  O   UNL     1      -5.254  -1.535   4.919  0.00  0.00    -0.126 OA
ENDBRANCH   6  10
ENDBRANCH   1   3
BRANCH   1  14
ATOM     13  C   UNL     1      -0.019   1.526   0.010  0.00  0.00    +0.034 C 
ATOM     14  C   UNL     1       0.002  -0.004   0.002  0.00  0.00    +0.118 C 
BRANCH  14  15
ATOM     15  C   UNL     1       0.707  -0.490  -1.238  0.00  0.00    +0.083 A 
ATOM     16  C   UNL     1       2.089  -0.656  -1.384  0.00  0.00    +0.046 A 
ATOM     17  C   UNL     1       2.323  -1.108  -2.638  0.00  0.00    +0.105 A 
ATOM     18  N   UNL     1       1.133  -1.224  -3.263  0.00  0.00    -0.284 N 
ATOM     19  H   UNL     1       0.994  -1.526  -4.174  0.00  0.00    +0.188 HD
ATOM     20  N   UNL     1       0.133  -0.835  -2.362  0.00  0.00    -0.177 NA
ENDBRANCH  14  15
ENDBRANCH   1  14
TORSDOF 4
