REMARK  Name = ZINC14987393
REMARK  12 active torsions:
REMARK  status: ('A' for Active; 'I' for Inactive)
REMARK    1  A    between atoms: C_1  and  C_2
REMARK    2  A    between atoms: C_5  and  C_9
REMARK    3  A    between atoms: C_6  and  C_8
REMARK    4  A    between atoms: N_11  and  C_12
REMARK    5  A    between atoms: C_15  and  N_18
REMARK    6  A    between atoms: C_21  and  N_63
REMARK    7  A    between atoms: C_24  and  N_63
REMARK    8  A    between atoms: C_25  and  C_26
REMARK    9  A    between atoms: C_25  and  N_63
REMARK   10  A    between atoms: C_26  and  C_28
REMARK   11  A    between atoms: C_26  and  O_30
REMARK   12  A    between atoms: C_28  and  O_29
REMARK                            x       y       z     vdW  Elec       q    Type
REMARK                         _______ _______ _______ _____ _____    ______ ____
ROOT
ATOM      1  C   UNL     1       0.988  -0.021  -4.622  0.00  0.00    +0.034 A 
ATOM      2  C   UNL     1      -0.083   0.858  -4.703  0.00  0.00    +0.025 A 
ATOM      3  C   UNL     1      -0.652   1.361  -3.550  0.00  0.00    +0.025 A 
ATOM      4  C   UNL     1      -0.152   0.988  -2.309  0.00  0.00    +0.030 A 
ATOM      5  C   UNL     1       0.923   0.112  -2.228  0.00  0.00    +0.025 A 
ATOM      6  C   UNL     1       1.488  -0.395  -3.381  0.00  0.00    +0.025 A 
ENDROOT
BRANCH   4   7
ATOM      7  N   UNL     1      -0.728   1.498  -1.140  0.00  0.00    -0.330 N 
ATOM      8  C   UNL     1      -0.049   0.976   0.052  0.00  0.00    +0.103 C 
ATOM      9  C   UNL     1      -0.793   1.437   1.308  0.00  0.00    +0.004 C 
ATOM     10  C   UNL     1      -0.823   2.968   1.344  0.00  0.00    -0.066 C 
ATOM     11  C   UNL     1      -1.492   3.488   0.068  0.00  0.00    +0.004 C 
ATOM     12  C   UNL     1      -0.727   2.967  -1.151  0.00  0.00    +0.103 C 
BRANCH  10  14
ATOM     13  C   UNL     1      -2.919   2.799   2.544  0.00  0.00    -0.096 C 
ATOM     14  N   UNL     1      -1.590   3.445   2.514  0.00  0.00    +0.381 N 
ATOM     15  H   UNL     1      -1.714   4.461   2.439  0.00  0.00    -0.082 HD
BRANCH  14  16
ATOM     16  C   UNL     1      -0.853   3.142   3.759  0.00  0.00    -0.045 C 
BRANCH  16  17
ATOM     17  C   UNL     1      -1.552   3.838   4.928  0.00  0.00    +0.123 C 
BRANCH  17  18
ATOM     18  O   UNL     1      -1.582   5.247   4.694  0.00  0.00    -0.391 OA
ATOM     19  H   UNL     1      -0.707   5.650   4.604  0.00  0.00    +0.210 HD
ENDBRANCH  17  18
BRANCH  17  20
ATOM     20  C   UNL     1      -0.788   3.552   6.222  0.00  0.00    +0.185 C 
BRANCH  20  21
ATOM     21  O   UNL     1      -1.503   4.104   7.330  0.00  0.00    -0.393 OA
ATOM     22  H   UNL     1      -1.075   3.960   8.185  0.00  0.00    +0.210 HD
ENDBRANCH  20  21
ENDBRANCH  17  20
ENDBRANCH  16  17
ENDBRANCH  14  16
ENDBRANCH  10  14
ENDBRANCH   4   7
BRANCH   1  25
ATOM     23  C   UNL     1       2.061  -1.785  -5.807  0.00  0.00    +0.249 C 
ATOM     24  O   UNL     1       1.923  -2.505  -4.837  0.00  0.00    -0.270 OA
ATOM     25  N   UNL     1       1.565  -0.532  -5.792  0.00  0.00    -0.281 N 
ATOM     26  H   UNL     1       1.608   0.016  -6.590  0.00  0.00    +0.155 HD
BRANCH  23  31
ATOM     27  C   UNL     1       4.827  -3.728 -10.464  0.00  0.00    +0.044 C 
ATOM     28  C   UNL     1       4.103  -3.219  -9.244  0.00  0.00    -0.050 A 
ATOM     29  C   UNL     1       3.481  -1.983  -9.278  0.00  0.00    +0.004 A 
ATOM     30  C   UNL     1       2.816  -1.512  -8.165  0.00  0.00    +0.013 A 
ATOM     31  C   UNL     1       2.771  -2.284  -7.003  0.00  0.00    +0.040 A 
ATOM     32  C   UNL     1       3.405  -3.528  -6.974  0.00  0.00    -0.038 A 
ATOM     33  C   UNL     1       4.062  -3.990  -8.096  0.00  0.00    +0.007 A 
ATOM     34  C   UNL     1       3.366  -4.366  -5.723  0.00  0.00    +0.044 C 
ENDBRANCH  23  31
ENDBRANCH   1  25
TORSDOF 9
