REMARK  Name = ZINC61271323
REMARK  9 active torsions:
REMARK  status: ('A' for Active; 'I' for Inactive)
REMARK    1  A    between atoms: C_1  and  C_2
REMARK    2  A    between atoms: C_2  and  N_3
REMARK    3  A    between atoms: N_3  and  C_4
REMARK    4  A    between atoms: C_4  and  C_6
REMARK    5  A    between atoms: C_4  and  C_7
REMARK    6  A    between atoms: C_7  and  C_8
REMARK    7  A    between atoms: N_10  and  C_11
REMARK    8  A    between atoms: C_13  and  C_19
REMARK    9  A    between atoms: C_16  and  C_17
REMARK                            x       y       z     vdW  Elec       q    Type
REMARK                         _______ _______ _______ _____ _____    ______ ____
ROOT
ATOM      1  C   UNL     1      -5.063  -2.226   3.124  0.00  0.00    +0.040 A 
ATOM      2  C   UNL     1      -4.171  -2.089   4.176  0.00  0.00    +0.036 A 
ATOM      3  C   UNL     1      -4.649  -1.825   5.460  0.00  0.00    +0.041 A 
ATOM      4  C   UNL     1      -6.022  -1.700   5.677  0.00  0.00    +0.051 A 
ATOM      5  C   UNL     1      -6.904  -1.838   4.622  0.00  0.00    +0.129 A 
ATOM      6  C   UNL     1      -6.428  -2.095   3.347  0.00  0.00    +0.006 A 
ATOM      7  C   UNL     1      -7.394  -2.238   2.200  0.00  0.00    +0.048 C 
ATOM      8  F   UNL     1      -8.232  -1.718   4.834  0.00  0.00    -0.205 F 
ENDROOT
BRANCH   3   9
ATOM      9  C   UNL     1      -3.703  -1.678   6.587  0.00  0.00    +0.242 C 
ATOM     10  O   UNL     1      -2.508  -1.788   6.396  0.00  0.00    -0.270 OA
ATOM     11  N   UNL     1      -4.166  -1.423   7.827  0.00  0.00    -0.325 N 
ATOM     12  H   UNL     1      -5.120  -1.336   7.979  0.00  0.00    +0.145 HD
ATOM     13  H   UNL     1      -3.546  -1.327   8.566  0.00  0.00    +0.145 HD
ENDBRANCH   3   9
BRANCH   1  16
ATOM     14  C   UNL     1      -3.335  -2.130   1.491  0.00  0.00    +0.216 C 
ATOM     15  O   UNL     1      -2.655  -1.489   2.264  0.00  0.00    -0.276 OA
ATOM     16  N   UNL     1      -4.588  -2.490   1.834  0.00  0.00    -0.285 N 
ATOM     17  H   UNL     1      -5.160  -2.933   1.188  0.00  0.00    +0.155 HD
BRANCH  14  18
ATOM     18  C   UNL     1      -2.780  -2.524   0.146  0.00  0.00    +0.080 C 
BRANCH  18  19
ATOM     19  C   UNL     1      -1.351  -1.995   0.010  0.00  0.00    -0.066 C 
ATOM     20  C   UNL     1      -0.743  -2.500  -1.300  0.00  0.00    -0.013 C 
BRANCH  19  21
ATOM     21  N   UNL     1      -1.371  -0.526   0.007  0.00  0.00    +0.381 N 
ATOM     22  H   UNL     1      -1.846  -0.195   0.833  0.00  0.00    -0.086 HD
ATOM     23  H   UNL     1      -1.857  -0.198  -0.815  0.00  0.00    -0.086 HD
BRANCH  21  25
ATOM     24  C   UNL     1      -0.014   1.512  -0.007  0.00  0.00    -0.017 C 
ATOM     25  C   UNL     1       0.007  -0.018  -0.004  0.00  0.00    -0.086 C 
ENDBRANCH  21  25
ENDBRANCH  19  21
ENDBRANCH  18  19
ENDBRANCH  14  18
ENDBRANCH   1  16
TORSDOF 6
