REMARK  Name = ZINC61685572
REMARK  2 active torsions:
REMARK  status: ('A' for Active; 'I' for Inactive)
REMARK    1  A    between atoms: C_3  and  C_9
REMARK    2  A    between atoms: C_4  and  O_8
REMARK                            x       y       z     vdW  Elec       q    Type
REMARK                         _______ _______ _______ _____ _____    ______ ____
ROOT
ATOM      1  C   UNL     1      -0.017   1.382   0.010  0.00  0.00    +0.016 A 
ATOM      2  C   UNL     1       1.163   2.093   0.002  0.00  0.00    +0.018 A 
ATOM      3  C   UNL     1       2.385   1.415  -0.013  0.00  0.00    +0.078 A 
ATOM      4  C   UNL     1       2.400   0.013  -0.021  0.00  0.00    +0.130 A 
ATOM      5  C   UNL     1       1.204  -0.687  -0.013  0.00  0.00    +0.061 A 
ATOM      6  C   UNL     1       0.002  -0.004   0.002  0.00  0.00    +0.021 A 
ATOM      7 BR   UNL     1      -1.626  -0.967   0.013  0.00  0.00    -0.050 Br
ENDROOT
BRANCH   3   8
ATOM      8  C   UNL     1       3.652   2.171  -0.022  0.00  0.00    +0.253 C 
ATOM      9  O   UNL     1       4.713   1.577  -0.035  0.00  0.00    -0.270 OA
ATOM     10  N   UNL     1       3.633   3.518  -0.015  0.00  0.00    -0.264 N 
ATOM     11  C   UNL     1       4.830   4.232  -0.023  0.00  0.00    +0.168 A 
ATOM     12  C   UNL     1       6.130   3.677  -0.044  0.00  0.00    +0.088 A 
ATOM     13  C   UNL     1       7.016   4.689  -0.046  0.00  0.00    +0.232 A 
ATOM     14  O   UNL     1       6.332   5.844  -0.027  0.00  0.00    -0.361 OA
ATOM     15  N   UNL     1       4.950   5.535  -0.018  0.00  0.00    -0.063 NA
ATOM     16  H   UNL     1       2.786   3.991  -0.004  0.00  0.00    +0.157 HD
ENDBRANCH   3   8
BRANCH   4  17
ATOM     17  O   UNL     1       3.581  -0.655  -0.036  0.00  0.00    -0.506 OA
ATOM     18  H   UNL     1       3.932  -0.854   0.843  0.00  0.00    +0.292 HD
ENDBRANCH   4  17
TORSDOF 2
