REMARK  Name = ZINC50309212
REMARK  6 active torsions:
REMARK  status: ('A' for Active; 'I' for Inactive)
REMARK    1  A    between atoms: C_1  and  C_2
REMARK    2  A    between atoms: C_2  and  C_3
REMARK    3  A    between atoms: C_2  and  C_4
REMARK    4  A    between atoms: C_2  and  C_5
REMARK    5  A    between atoms: N_9  and  C_10
REMARK    6  A    between atoms: C_15  and  N_16
REMARK                            x       y       z     vdW  Elec       q    Type
REMARK                         _______ _______ _______ _____ _____    ______ ____
ROOT
ATOM      1  C   UNL     1       2.862   1.574  -0.274  0.00  0.00    +0.090 A 
ATOM      2  C   UNL     1       2.245   1.633   0.967  0.00  0.00    +0.032 A 
ATOM      3  C   UNL     1       2.650   2.571   1.897  0.00  0.00    +0.040 A 
ATOM      4  C   UNL     1       3.673   3.455   1.594  0.00  0.00    +0.125 A 
ATOM      5  C   UNL     1       4.294   3.402   0.359  0.00  0.00    +0.063 A 
ATOM      6  C   UNL     1       3.896   2.459  -0.578  0.00  0.00    +0.053 A 
ATOM      7  F   UNL     1       4.065   4.370   2.507  0.00  0.00    -0.205 F 
ENDROOT
BRANCH   1  12
ATOM      8  C   UNL     1       1.471  -0.298  -1.085  0.00  0.00    +0.162 A 
ATOM      9  N   UNL     1       1.417  -0.975  -2.202  0.00  0.00    -0.112 NA
ATOM     10  N   UNL     1       2.299  -0.549  -3.032  0.00  0.00    -0.023 NA
ATOM     11  N   UNL     1       2.971   0.420  -2.510  0.00  0.00    -0.039 NA
ATOM     12  N   UNL     1       2.450   0.622  -1.220  0.00  0.00    -0.195 N 
BRANCH   8  14
ATOM     13  C   UNL     1      -0.161   0.791   0.432  0.00  0.00    +0.019 C 
ATOM     14  C   UNL     1       0.598  -0.502   0.127  0.00  0.00    +0.024 C 
ATOM     15  C   UNL     1       1.470  -0.876   1.327  0.00  0.00    +0.019 C 
ATOM     16  C   UNL     1      -0.402  -1.627  -0.148  0.00  0.00    +0.019 C 
ENDBRANCH   8  14
ENDBRANCH   1  12
BRANCH   6  17
ATOM     17  N   UNL     1       4.525   2.400  -1.824  0.00  0.00    -0.356 N 
ATOM     18  H   UNL     1       4.091   1.950  -2.565  0.00  0.00    +0.142 HD
ATOM     19  H   UNL     1       5.396   2.809  -1.947  0.00  0.00    +0.142 HD
ENDBRANCH   6  17
TORSDOF 3
