REMARK  Name = ZINC14543260
REMARK  5 active torsions:
REMARK  status: ('A' for Active; 'I' for Inactive)
REMARK    1  A    between atoms: C_1  and  N_2
REMARK    2  A    between atoms: C_3  and  C_5
REMARK    3  A    between atoms: N_8  and  C_10
REMARK    4  A    between atoms: C_13  and  N_49
REMARK    5  A    between atoms: C_16  and  N_49
REMARK                            x       y       z     vdW  Elec       q    Type
REMARK                         _______ _______ _______ _____ _____    ______ ____
ROOT
ATOM      1  C   UNL     1      -5.126   0.682   3.479  0.00  0.00    +0.150 A 
ATOM      2  C   UNL     1      -3.844   0.459   2.948  0.00  0.00    +0.004 A 
ATOM      3  C   UNL     1      -3.628  -0.876   3.044  0.00  0.00    +0.043 A 
ATOM      4  N   UNL     1      -4.725  -1.417   3.599  0.00  0.00    -0.270 N 
ATOM      5  N   UNL     1      -5.593  -0.498   3.850  0.00  0.00    -0.166 NA
ATOM      6  C   UNL     1      -4.908  -2.844   3.878  0.00  0.00    +0.172 C 
ATOM      7  C   UNL     1      -2.363  -1.557   2.589  0.00  0.00    +0.054 C 
ATOM      8  C   UNL     1      -1.274  -0.490   2.421  0.00  0.00    -0.009 C 
ATOM      9  C   UNL     1      -1.813   0.665   1.572  0.00  0.00    -0.067 C 
ATOM     10  C   UNL     1      -2.864   1.444   2.374  0.00  0.00    +0.023 C 
ENDROOT
BRANCH   1  13
ATOM     11  C   UNL     1      -7.740   3.329   4.250  0.00  0.00    +0.128 C 
ATOM     12  N   UNL     1      -7.054   2.040   4.132  0.00  0.00    -0.313 N 
ATOM     13  C   UNL     1      -5.818   1.981   3.599  0.00  0.00    +0.264 C 
ATOM     14  O   UNL     1      -5.272   2.998   3.216  0.00  0.00    -0.268 OA
ATOM     15  H   UNL     1      -7.490   1.229   4.437  0.00  0.00    +0.149 HD
ENDBRANCH   1  13
BRANCH   9  16
ATOM     16  N   UNL     1      -0.705   1.572   1.216  0.00  0.00    +0.383 N 
ATOM     17  H   UNL     1      -0.038   1.614   1.996  0.00  0.00    -0.085 HD
ATOM     18  H   UNL     1      -1.081   2.511   1.037  0.00  0.00    -0.085 HD
BRANCH  16  19
ATOM     19  C   UNL     1      -0.013   1.086   0.008  0.00  0.00    -0.071 C 
ATOM     20  C   UNL     1      -0.719   1.589  -1.222  0.00  0.00    -0.016 C 
ATOM     21  C   UNL     1      -0.658   0.584  -2.389  0.00  0.00    -0.002 C 
ATOM     22  C   UNL     1       0.725  -0.078  -2.535  0.00  0.00    -0.000 C 
ATOM     23  C   UNL     1       1.854   0.899  -2.349  0.00  0.00    -0.000 C 
ATOM     24  C   UNL     1       2.305   0.852  -0.875  0.00  0.00    -0.002 C 
ATOM     25  C   UNL     1       1.433   1.624  -0.003  0.00  0.00    -0.016 C 
ENDBRANCH  16  19
ENDBRANCH   9  16
TORSDOF 3
