REMARK  Name = ZINC49714663
REMARK  6 active torsions:
REMARK  status: ('A' for Active; 'I' for Inactive)
REMARK    1  A    between atoms: C_1  and  C_2
REMARK    2  A    between atoms: C_5  and  N_12
REMARK    3  A    between atoms: C_7  and  S_8
REMARK    4  A    between atoms: S_8  and  N_11
REMARK    5  A    between atoms: N_12  and  C_13
REMARK    6  A    between atoms: C_13  and  C_14
REMARK                            x       y       z     vdW  Elec       q    Type
REMARK                         _______ _______ _______ _____ _____    ______ ____
ROOT
ATOM      1  C   UNL     1      -0.018   1.503   0.010  0.00  0.00    +0.046 C 
ATOM      2  C   UNL     1       0.002  -0.004   0.002  0.00  0.00    -0.024 A 
ATOM      3  C   UNL     1       0.006  -0.687  -1.200  0.00  0.00    +0.007 A 
ATOM      4  C   UNL     1       0.024  -2.068  -1.212  0.00  0.00    +0.023 A 
ATOM      5  C   UNL     1       0.040  -2.771  -0.013  0.00  0.00    +0.029 A 
ATOM      6  C   UNL     1       0.036  -2.081   1.192  0.00  0.00    +0.051 A 
ATOM      7  C   UNL     1       0.023  -0.700   1.196  0.00  0.00    +0.110 A 
ENDROOT
BRANCH   7   8
ATOM      8  S   UNL     1       0.025   0.175   2.725  0.00  0.00    +0.056 S 
ATOM      9  O   UNL     1      -1.014   1.141   2.642  0.00  0.00    -0.153 OA
ATOM     10  O   UNL     1       0.076  -0.803   3.754  0.00  0.00    -0.153 OA
BRANCH   8  11
ATOM     11  N   UNL     1       1.449   1.018   2.804  0.00  0.00    -0.204 NA
ATOM     12  H   UNL     1       1.489   1.857   3.290  0.00  0.00    +0.144 HD
ATOM     13  H   UNL     1       2.242   0.674   2.365  0.00  0.00    +0.144 HD
ENDBRANCH   8  11
ENDBRANCH   7   8
BRANCH   5  14
ATOM     14  N   UNL     1       0.058  -4.167  -0.021  0.00  0.00    -0.337 N 
ATOM     15  H   UNL     1       0.069  -4.657   0.816  0.00  0.00    +0.147 HD
BRANCH  14  16
ATOM     16  C   UNL     1       0.061  -4.893  -1.294  0.00  0.00    +0.173 C 
BRANCH  16  17
ATOM     17  C   UNL     1       0.082  -6.376  -1.026  0.00  0.00    +0.102 A 
ATOM     18  N   UNL     1       0.458  -6.949   0.105  0.00  0.00    -0.349 N 
ATOM     19  H   UNL     1       0.766  -6.488   0.901  0.00  0.00    +0.166 HD
ATOM     20  C   UNL     1       0.339  -8.286  -0.038  0.00  0.00    +0.101 A 
ATOM     21  C   UNL     1      -0.119  -8.517  -1.284  0.00  0.00    +0.101 A 
ATOM     22  N   UNL     1      -0.277  -7.318  -1.883  0.00  0.00    -0.349 N 
ATOM     23  H   UNL     1      -0.598  -7.172  -2.787  0.00  0.00    +0.166 HD
ENDBRANCH  16  17
ENDBRANCH  14  16
ENDBRANCH   5  14
TORSDOF 5
