REMARK  Name = ZINC53073294
REMARK  5 active torsions:
REMARK  status: ('A' for Active; 'I' for Inactive)
REMARK    1  A    between atoms: C_1  and  C_2
REMARK    2  A    between atoms: C_2  and  C_3
REMARK    3  A    between atoms: C_3  and  O_4
REMARK    4  A    between atoms: O_4  and  C_5
REMARK    5  A    between atoms: C_8  and  C_11
REMARK                            x       y       z     vdW  Elec       q    Type
REMARK                         _______ _______ _______ _____ _____    ______ ____
ROOT
ATOM      1  C   UNL     1      -6.397  -4.588   0.038  0.00  0.00    +0.131 C 
ATOM      2  C   UNL     1      -6.742  -5.048  -1.381  0.00  0.00    -0.045 C 
ATOM      3  N   UNL     1      -8.014  -5.782  -1.359  0.00  0.00    +0.386 N 
ATOM      4  C   UNL     1      -7.888  -6.953  -0.480  0.00  0.00    -0.044 C 
ATOM      5  C   UNL     1      -6.780  -7.868  -1.004  0.00  0.00    -0.010 C 
ATOM      6  C   UNL     1      -7.128  -8.330  -2.420  0.00  0.00    -0.001 C 
ATOM      7  C   UNL     1      -8.453  -9.095  -2.396  0.00  0.00    -0.000 C 
ATOM      8  C   UNL     1      -9.561  -8.180  -1.872  0.00  0.00    -0.001 C 
ATOM      9  C   UNL     1      -9.213  -7.717  -0.455  0.00  0.00    -0.010 C 
ATOM     10  C   UNL     1      -7.540  -6.490   0.937  0.00  0.00    +0.148 C 
ATOM     11  O   UNL     1      -6.331  -5.726   0.901  0.00  0.00    -0.375 OA
ATOM     12  H   UNL     1      -8.745  -5.179  -1.013  0.00  0.00    -0.085 HD
ATOM     13  H   UNL     1      -8.243  -6.087  -2.293  0.00  0.00    -0.085 HD
ENDROOT
BRANCH   1  17
ATOM     14  C   UNL     1      -2.616  -2.596   0.013  0.00  0.00    +0.121 A 
ATOM     15  C   UNL     1      -3.791  -1.857   0.022  0.00  0.00    +0.046 A 
ATOM     16  C   UNL     1      -5.012  -2.504   0.030  0.00  0.00    +0.009 A 
ATOM     17  C   UNL     1      -5.064  -3.885   0.029  0.00  0.00    -0.020 A 
ATOM     18  C   UNL     1      -3.895  -4.624   0.020  0.00  0.00    +0.009 A 
ATOM     19  C   UNL     1      -2.671  -3.982   0.006  0.00  0.00    +0.046 A 
BRANCH  14  20
ATOM     20  O   UNL     1      -1.414  -1.962   0.005  0.00  0.00    -0.492 OA
BRANCH  20  21
ATOM     21  C   UNL     1      -1.433  -0.534   0.013  0.00  0.00    +0.229 C 
BRANCH  21  23
ATOM     22  C   UNL     1      -0.019   1.526   0.010  0.00  0.00    +0.007 C 
ATOM     23  C   UNL     1       0.002  -0.004   0.002  0.00  0.00    +0.038 C 
ENDBRANCH  21  23
ENDBRANCH  20  21
ENDBRANCH  14  20
ENDBRANCH   1  17
TORSDOF 4
