REMARK  Name = ZINC49193608
REMARK  7 active torsions:
REMARK  status: ('A' for Active; 'I' for Inactive)
REMARK    1  A    between atoms: C_1  and  C_2
REMARK    2  A    between atoms: C_2  and  N_3
REMARK    3  A    between atoms: C_4  and  C_6
REMARK    4  A    between atoms: C_6  and  C_8
REMARK    5  A    between atoms: C_6  and  N_9
REMARK    6  A    between atoms: N_9  and  C_10
REMARK    7  A    between atoms: C_19  and  N_20
REMARK                            x       y       z     vdW  Elec       q    Type
REMARK                         _______ _______ _______ _____ _____    ______ ____
ROOT
ATOM      1  C   UNL     1      -4.738  -4.508  -1.119  0.00  0.00    +0.059 A 
ATOM      2  C   UNL     1      -5.116  -5.869  -1.115  0.00  0.00    +0.022 A 
ATOM      3  C   UNL     1      -4.883  -6.687   0.000  0.00  0.00    +0.027 A 
ATOM      4  C   UNL     1      -5.262  -7.996  -0.033  0.00  0.00    +0.019 A 
ATOM      5  C   UNL     1      -5.879  -8.532  -1.162  0.00  0.00    +0.017 A 
ATOM      6  C   UNL     1      -6.120  -7.766  -2.261  0.00  0.00    +0.027 A 
ATOM      7  C   UNL     1      -5.743  -6.411  -2.264  0.00  0.00    +0.048 A 
ATOM      8  N   UNL     1      -5.970  -5.638  -3.331  0.00  0.00    -0.359 N 
ATOM      9  C   UNL     1      -5.625  -4.371  -3.352  0.00  0.00    +0.107 A 
ATOM     10  C   UNL     1      -5.009  -3.761  -2.260  0.00  0.00    +0.063 A 
ATOM     11 BR   UNL     1      -4.947  -9.098   1.471  0.00  0.00    -0.050 Br
ATOM     12  H   UNL     1      -6.400  -6.022  -4.111  0.00  0.00    +0.165 HD
ENDROOT
BRANCH  10  13
ATOM     13  N   UNL     1      -4.660  -2.404  -2.315  0.00  0.00    -0.355 N 
ATOM     14  H   UNL     1      -4.136  -2.009  -1.601  0.00  0.00    +0.142 HD
ATOM     15  H   UNL     1      -4.943  -1.860  -3.067  0.00  0.00    +0.142 HD
ENDBRANCH  10  13
BRANCH   1  16
ATOM     16  N   UNL     1      -4.120  -3.931  -0.014  0.00  0.00    -0.331 N 
ATOM     17  H   UNL     1      -4.596  -3.865   0.828  0.00  0.00    +0.147 HD
BRANCH  16  18
ATOM     18  C   UNL     1      -2.749  -3.425  -0.123  0.00  0.00    +0.154 C 
ATOM     19  C   UNL     1      -2.474  -2.448   1.022  0.00  0.00    +0.038 C 
BRANCH  18  21
ATOM     20  N   UNL     1      -0.455  -4.348  -0.123  0.00  0.00    -0.314 N 
ATOM     21  C   UNL     1      -1.780  -4.576  -0.044  0.00  0.00    +0.233 C 
ATOM     22  O   UNL     1      -2.194  -5.709   0.089  0.00  0.00    -0.274 OA
ATOM     23  H   UNL     1      -0.124  -3.442  -0.230  0.00  0.00    +0.149 HD
BRANCH  20  25
ATOM     24  C   UNL     1       1.919  -4.938  -0.160  0.00  0.00    +0.024 C 
ATOM     25  C   UNL     1       0.487  -5.467  -0.046  0.00  0.00    +0.101 C 
ENDBRANCH  20  25
ENDBRANCH  18  21
ENDBRANCH  16  18
ENDBRANCH   1  16
TORSDOF 5
