REMARK  Name = ZINC46223705
REMARK  7 active torsions:
REMARK  status: ('A' for Active; 'I' for Inactive)
REMARK    1  A    between atoms: C_1  and  C_2
REMARK    2  A    between atoms: C_2  and  C_26
REMARK    3  A    between atoms: C_4  and  N_10
REMARK    4  A    between atoms: C_6  and  C_8
REMARK    5  A    between atoms: C_6  and  C_9
REMARK    6  A    between atoms: C_11  and  C_13
REMARK    7  A    between atoms: N_18  and  C_20
REMARK                            x       y       z     vdW  Elec       q    Type
REMARK                         _______ _______ _______ _____ _____    ______ ____
ROOT
ATOM      1  N   UNL     1       2.640  -0.832  -2.614  0.00  0.00    -0.312 N 
ATOM      2  C   UNL     1       3.792  -0.347  -3.119  0.00  0.00    +0.218 C 
ATOM      3  O   UNL     1       4.404   0.511  -2.519  0.00  0.00    -0.275 OA
ATOM      4  H   UNL     1       2.151  -1.519  -3.094  0.00  0.00    +0.149 HD
ENDROOT
BRANCH   1   8
ATOM      5  C   UNL     1       0.038   1.504   0.064  0.00  0.00    -0.010 C 
ATOM      6  C   UNL     1       0.055  -0.028   0.045  0.00  0.00    -0.072 C 
ATOM      7  C   UNL     1       0.612  -0.522  -1.286  0.00  0.00    +0.009 C 
ATOM      8  C   UNL     1       2.127  -0.322  -1.337  0.00  0.00    +0.070 C 
ATOM      9  C   UNL     1       2.750  -1.116  -0.189  0.00  0.00    +0.009 C 
ATOM     10  C   UNL     1       2.209  -0.628   1.151  0.00  0.00    -0.072 C 
ATOM     11  N   UNL     1       0.759  -0.563   1.197  0.00  0.00    +0.386 N 
ATOM     12  C   UNL     1       2.669  -1.635   2.230  0.00  0.00    -0.010 C 
ATOM     13  C   UNL     1       2.838   0.725   1.502  0.00  0.00    -0.010 C 
ATOM     14  C   UNL     1      -1.416  -0.498   0.133  0.00  0.00    -0.010 C 
ATOM     15  H   UNL     1       0.488  -0.018   2.021  0.00  0.00    -0.084 HD
ATOM     16  H   UNL     1       0.402  -1.506   1.380  0.00  0.00    -0.084 HD
ENDBRANCH   1   8
BRANCH   2  17
ATOM     17  C   UNL     1       4.319  -0.871  -4.430  0.00  0.00    +0.101 C 
ATOM     18  C   UNL     1       3.358  -0.526  -5.591  0.00  0.00    +0.110 C 
ATOM     19  C   UNL     1       3.893   0.778  -6.141  0.00  0.00    +0.221 C 
ATOM     20  O   UNL     1       3.279   1.529  -6.868  0.00  0.00    -0.275 OA
ATOM     21  N   UNL     1       5.148   0.982  -5.705  0.00  0.00    -0.271 N 
ATOM     22  C   UNL     1       5.603  -0.121  -4.849  0.00  0.00    +0.127 C 
BRANCH  21  23
ATOM     23  C   UNL     1       5.923   2.102  -6.027  0.00  0.00    +0.036 A 
ATOM     24  C   UNL     1       5.448   3.039  -6.936  0.00  0.00    +0.023 A 
ATOM     25  C   UNL     1       6.215   4.144  -7.251  0.00  0.00    +0.002 A 
ATOM     26  C   UNL     1       7.454   4.317  -6.664  0.00  0.00    +0.000 A 
ATOM     27  C   UNL     1       7.931   3.386  -5.759  0.00  0.00    +0.002 A 
ATOM     28  C   UNL     1       7.166   2.282  -5.435  0.00  0.00    +0.023 A 
ENDBRANCH  21  23
ENDBRANCH   2  17
TORSDOF 3
