REMARK  Name = ZINC61270384
REMARK  7 active torsions:
REMARK  status: ('A' for Active; 'I' for Inactive)
REMARK    1  A    between atoms: C_1  and  C_2
REMARK    2  A    between atoms: C_2  and  N_3
REMARK    3  A    between atoms: N_3  and  C_4
REMARK    4  A    between atoms: C_4  and  C_6
REMARK    5  A    between atoms: C_4  and  C_7
REMARK    6  A    between atoms: C_7  and  C_8
REMARK    7  A    between atoms: N_10  and  C_11
REMARK                            x       y       z     vdW  Elec       q    Type
REMARK                         _______ _______ _______ _____ _____    ______ ____
ROOT
ATOM      1  C   UNL     1       0.413  -2.051  -3.674  0.00  0.00    +0.216 C 
ATOM      2  O   UNL     1      -0.606  -1.431  -3.459  0.00  0.00    -0.276 OA
ATOM      3  N   UNL     1       0.748  -2.381  -4.938  0.00  0.00    -0.285 N 
ATOM      4  H   UNL     1       1.601  -2.806  -5.119  0.00  0.00    +0.155 HD
ENDROOT
BRANCH   3   5
ATOM      5  C   UNL     1      -0.137  -2.108  -5.990  0.00  0.00    +0.051 A 
ATOM      6  C   UNL     1      -1.498  -1.997  -5.742  0.00  0.00    +0.073 A 
ATOM      7  C   UNL     1      -2.373  -1.728  -6.783  0.00  0.00    +0.164 A 
ATOM      8  C   UNL     1      -1.884  -1.567  -8.075  0.00  0.00    +0.163 A 
ATOM      9  C   UNL     1      -0.524  -1.680  -8.320  0.00  0.00    +0.066 A 
ATOM     10  C   UNL     1       0.349  -1.944  -7.281  0.00  0.00    +0.043 A 
ATOM     11 BR   UNL     1       2.204  -2.090  -7.619  0.00  0.00    -0.048 Br
ATOM     12  O   UNL     1      -2.728  -1.294  -9.109  0.00  0.00    -0.485 OA
ATOM     13  C   UNL     1      -4.118  -1.556  -8.892  0.00  0.00    +0.270 C 
ATOM     14  C   UNL     1      -4.507  -0.984  -7.521  0.00  0.00    +0.270 C 
ATOM     15  O   UNL     1      -3.705  -1.625  -6.524  0.00  0.00    -0.485 OA
ENDBRANCH   3   5
BRANCH   1  16
ATOM     16  C   UNL     1       1.306  -2.455  -2.529  0.00  0.00    +0.080 C 
BRANCH  16  17
ATOM     17  C   UNL     1       0.702  -1.962  -1.213  0.00  0.00    -0.066 C 
ATOM     18  C   UNL     1       1.541  -2.477  -0.042  0.00  0.00    -0.013 C 
BRANCH  17  19
ATOM     19  N   UNL     1       0.691  -0.493  -1.199  0.00  0.00    +0.381 N 
ATOM     20  H   UNL     1       0.208  -0.152  -2.017  0.00  0.00    -0.086 HD
ATOM     21  H   UNL     1       1.640  -0.149  -1.202  0.00  0.00    -0.086 HD
BRANCH  19  23
ATOM     22  C   UNL     1      -0.007   1.511   0.024  0.00  0.00    -0.017 C 
ATOM     23  C   UNL     1       0.004  -0.019   0.009  0.00  0.00    -0.086 C 
ENDBRANCH  19  23
ENDBRANCH  17  19
ENDBRANCH  16  17
ENDBRANCH   1  16
TORSDOF 5
