REMARK  Name = ZINC37162348
REMARK  8 active torsions:
REMARK  status: ('A' for Active; 'I' for Inactive)
REMARK    1  A    between atoms: C_1  and  C_2
REMARK    2  A    between atoms: C_2  and  C_3
REMARK    3  A    between atoms: C_3  and  C_4
REMARK    4  A    between atoms: C_8  and  C_23
REMARK    5  A    between atoms: C_10  and  O_13
REMARK    6  A    between atoms: O_13  and  C_14
REMARK    7  A    between atoms: C_17  and  C_20
REMARK    8  A    between atoms: C_23  and  N_24
REMARK                            x       y       z     vdW  Elec       q    Type
REMARK                         _______ _______ _______ _____ _____    ______ ____
ROOT
ATOM      1  C   UNL     1       0.681  -1.869   1.639  0.00  0.00    -0.007 C 
ATOM      2  C   UNL     1       1.428  -2.142   0.332  0.00  0.00    +0.004 C 
ATOM      3  C   UNL     1       1.452  -3.648   0.064  0.00  0.00    +0.005 C 
ATOM      4  C   UNL     1       2.163  -4.360   1.216  0.00  0.00    +0.012 C 
ATOM      5  C   UNL     1       1.415  -4.087   2.523  0.00  0.00    +0.175 C 
ATOM      6  C   UNL     1       1.391  -2.581   2.791  0.00  0.00    +0.048 C 
ENDROOT
BRANCH   1   7
ATOM      7  C   UNL     1       0.657  -0.363   1.907  0.00  0.00    +0.003 C 
BRANCH   7   9
ATOM      8  C   UNL     1      -0.185   1.843   1.088  0.00  0.00    +0.004 C 
ATOM      9  C   UNL     1      -0.161   0.337   0.820  0.00  0.00    -0.003 C 
ENDBRANCH   7   9
ENDBRANCH   1   7
BRANCH   5  10
ATOM     10  O   UNL     1       0.076  -4.573   2.416  0.00  0.00    -0.489 OA
BRANCH  10  11
ATOM     11  C   UNL     1      -0.558  -4.893   3.573  0.00  0.00    +0.121 A 
ATOM     12  C   UNL     1      -1.816  -5.481   3.534  0.00  0.00    +0.046 A 
ATOM     13  C   UNL     1      -2.462  -5.807   4.706  0.00  0.00    +0.016 A 
ATOM     14  C   UNL     1      -1.851  -5.546   5.935  0.00  0.00    +0.037 A 
ATOM     15  C   UNL     1      -0.585  -4.955   5.969  0.00  0.00    +0.016 A 
ATOM     16  C   UNL     1       0.057  -4.637   4.793  0.00  0.00    +0.046 A 
BRANCH  14  17
ATOM     17  C   UNL     1      -2.540  -5.893   7.193  0.00  0.00    +0.242 C 
ATOM     18  O   UNL     1      -3.641  -6.407   7.161  0.00  0.00    -0.270 OA
ATOM     19  N   UNL     1      -1.948  -5.641   8.377  0.00  0.00    -0.325 N 
ATOM     20  H   UNL     1      -1.069  -5.231   8.403  0.00  0.00    +0.145 HD
ATOM     21  H   UNL     1      -2.401  -5.869   9.204  0.00  0.00    +0.145 HD
ENDBRANCH  14  17
ENDBRANCH  10  11
ENDBRANCH   5  10
BRANCH   4  22
ATOM     22  C   UNL     1       2.187  -5.866   0.948  0.00  0.00    -0.079 C 
BRANCH  22  23
ATOM     23  N   UNL     1       3.005  -6.139  -0.242  0.00  0.00    +0.378 N 
ATOM     24  H   UNL     1       2.611  -5.661  -1.038  0.00  0.00    -0.090 HD
ATOM     25  H   UNL     1       3.946  -5.810  -0.085  0.00  0.00    -0.090 HD
ATOM     26  H   UNL     1       3.021  -7.132  -0.419  0.00  0.00    -0.090 HD
ENDBRANCH  22  23
ENDBRANCH   4  22
TORSDOF 7
