REMARK  Name = ZINC64736684
REMARK  9 active torsions:
REMARK  status: ('A' for Active; 'I' for Inactive)
REMARK    1  A    between atoms: C_1  and  C_2
REMARK    2  A    between atoms: N_6  and  C_7
REMARK    3  A    between atoms: C_7  and  C_8
REMARK    4  A    between atoms: C_8  and  C_9
REMARK    5  A    between atoms: C_8  and  C_10
REMARK    6  A    between atoms: C_10  and  N_11
REMARK    7  A    between atoms: C_12  and  C_14
REMARK    8  A    between atoms: C_17  and  N_23
REMARK    9  A    between atoms: C_18  and  N_20
REMARK                            x       y       z     vdW  Elec       q    Type
REMARK                         _______ _______ _______ _____ _____    ______ ____
ROOT
ATOM      1  N   UNL     1      -3.312  -0.047   4.569  0.00  0.00    -0.311 N 
ATOM      2  C   UNL     1      -3.531   0.309   5.851  0.00  0.00    +0.244 C 
ATOM      3  O   UNL     1      -2.594   0.598   6.570  0.00  0.00    -0.270 OA
ATOM      4  H   UNL     1      -4.059  -0.277   3.996  0.00  0.00    +0.149 HD
ENDROOT
BRANCH   2   5
ATOM      5  C   UNL     1      -4.907   0.348   6.381  0.00  0.00    +0.039 A 
ATOM      6  C   UNL     1      -5.985   0.010   5.557  0.00  0.00    +0.015 A 
ATOM      7  C   UNL     1      -7.267   0.047   6.054  0.00  0.00    +0.026 A 
ATOM      8  C   UNL     1      -7.492   0.420   7.376  0.00  0.00    +0.055 A 
ATOM      9  C   UNL     1      -6.421   0.757   8.199  0.00  0.00    +0.147 A 
ATOM     10  C   UNL     1      -5.136   0.717   7.709  0.00  0.00    +0.047 A 
BRANCH   9  11
ATOM     11  N   UNL     1      -6.665   1.155   9.604  0.00  0.00    +0.058 N 
ATOM     12  O   UNL     1      -6.003   2.032  10.108  0.00  0.00    -0.126 OA
ATOM     13  O   UNL     1      -7.526   0.602  10.248  0.00  0.00    -0.126 OA
ENDBRANCH   9  11
BRANCH   8  14
ATOM     14  N   UNL     1      -8.789   0.457   7.876  0.00  0.00    -0.356 N 
ATOM     15  H   UNL     1      -9.526   0.133   7.335  0.00  0.00    +0.142 HD
ATOM     16  H   UNL     1      -8.957   0.806   8.765  0.00  0.00    +0.142 HD
ENDBRANCH   8  14
ENDBRANCH   2   5
BRANCH   1  17
ATOM     17  C   UNL     1      -1.945  -0.085   4.043  0.00  0.00    +0.109 C 
BRANCH  17  18
ATOM     18  C   UNL     1      -1.976  -0.516   2.576  0.00  0.00    +0.023 C 
ATOM     19  C   UNL     1      -2.699   0.547   1.746  0.00  0.00    +0.011 C 
BRANCH  18  20
ATOM     20  C   UNL     1      -0.544  -0.677   2.061  0.00  0.00    +0.127 C 
BRANCH  20  26
ATOM     21  C   UNL     1      -0.988  -3.647   1.298  0.00  0.00    +0.084 C 
ATOM     22  C   UNL     1      -0.764  -2.501   0.346  0.00  0.00    +0.084 A 
ATOM     23  N   UNL     1      -0.729  -2.589  -0.956  0.00  0.00    -0.350 N 
ATOM     24  C   UNL     1      -0.510  -1.373  -1.476  0.00  0.00    +0.101 A 
ATOM     25  C   UNL     1      -0.406  -0.497  -0.458  0.00  0.00    +0.104 A 
ATOM     26  N   UNL     1      -0.572  -1.211   0.697  0.00  0.00    -0.336 N 
ATOM     27  H   UNL     1      -0.843  -3.406  -1.466  0.00  0.00    +0.166 HD
ENDBRANCH  20  26
ENDBRANCH  18  20
ENDBRANCH  17  18
ENDBRANCH   1  17
TORSDOF 7
