REMARK  Name = ZINC66468071
REMARK  5 active torsions:
REMARK  status: ('A' for Active; 'I' for Inactive)
REMARK    1  A    between atoms: C_1  and  C_2
REMARK    2  A    between atoms: C_2  and  C_7
REMARK    3  A    between atoms: C_7  and  N_8
REMARK    4  A    between atoms: N_13  and  C_14
REMARK    5  A    between atoms: N_21  and  C_22
REMARK                            x       y       z     vdW  Elec       q    Type
REMARK                         _______ _______ _______ _____ _____    ______ ____
ROOT
ATOM      1  N   UNL     1      -2.117  -0.054  -1.217  0.00  0.00    -0.314 N 
ATOM      2  C   UNL     1      -3.424  -0.413  -1.455  0.00  0.00    +0.198 A 
ATOM      3  N   UNL     1      -4.155  -1.187  -0.678  0.00  0.00    -0.196 NA
ATOM      4  C   UNL     1      -5.374  -1.334  -1.198  0.00  0.00    +0.170 A 
ATOM      5  C   UNL     1      -5.416  -0.605  -2.381  0.00  0.00    +0.152 A 
ATOM      6  N   UNL     1      -4.165  -0.020  -2.525  0.00  0.00    -0.309 N 
ATOM      7  C   UNL     1      -3.726   0.849  -3.619  0.00  0.00    +0.152 C 
ATOM      8  C   UNL     1      -6.602  -0.590  -3.137  0.00  0.00    +0.280 A 
ATOM      9  O   UNL     1      -6.661   0.042  -4.178  0.00  0.00    -0.265 OA
ATOM     10  N   UNL     1      -7.673  -1.283  -2.699  0.00  0.00    -0.273 N 
ATOM     11  H   UNL     1      -8.492  -1.275  -3.218  0.00  0.00    +0.173 HD
ATOM     12  C   UNL     1      -7.622  -1.984  -1.553  0.00  0.00    +0.331 A 
ATOM     13  O   UNL     1      -8.607  -2.598  -1.189  0.00  0.00    -0.246 OA
ATOM     14  N   UNL     1      -6.507  -2.025  -0.799  0.00  0.00    -0.280 N 
ATOM     15  C   UNL     1      -6.492  -2.801   0.443  0.00  0.00    +0.155 C 
ATOM     16  H   UNL     1      -1.653   0.525  -1.841  0.00  0.00    +0.149 HD
ENDROOT
BRANCH   1  17
ATOM     17  C   UNL     1      -1.428  -0.547  -0.022  0.00  0.00    +0.111 C 
BRANCH  17  19
ATOM     18  C   UNL     1      -0.019   1.526   0.010  0.00  0.00    +0.013 C 
ATOM     19  C   UNL     1       0.002  -0.004   0.002  0.00  0.00    -0.017 C 
ATOM     20  C   UNL     1       0.783  -0.515  -1.226  0.00  0.00    +0.008 C 
ATOM     21  C   UNL     1       2.213  -0.768  -0.688  0.00  0.00    +0.001 C 
ATOM     22  C   UNL     1       1.950  -1.339   0.728  0.00  0.00    +0.001 C 
ATOM     23  C   UNL     1       0.744  -0.528   1.244  0.00  0.00    +0.008 C 
ENDBRANCH  17  19
ENDBRANCH   1  17
TORSDOF 2
