REMARK  Name = ZINC41299210
REMARK  9 active torsions:
REMARK  status: ('A' for Active; 'I' for Inactive)
REMARK    1  A    between atoms: C_1  and  O_2
REMARK    2  A    between atoms: O_2  and  C_3
REMARK    3  A    between atoms: C_8  and  C_9
REMARK    4  A    between atoms: C_9  and  C_10
REMARK    5  A    between atoms: C_9  and  N_23
REMARK    6  A    between atoms: C_10  and  N_11
REMARK    7  A    between atoms: C_12  and  C_14
REMARK    8  A    between atoms: C_14  and  C_15
REMARK    9  A    between atoms: C_15  and  C_16
REMARK                            x       y       z     vdW  Elec       q    Type
REMARK                         _______ _______ _______ _____ _____    ______ ____
ROOT
ATOM      1  C   UNL     1       0.433  -2.956   1.462  0.00  0.00    +0.093 C 
ENDROOT
BRANCH   1   2
ATOM      2  N   UNL     1      -0.643  -3.598   2.222  0.00  0.00    -0.317 N 
ATOM      3  C   UNL     1      -0.542  -3.722   3.560  0.00  0.00    +0.213 C 
ATOM      4  O   UNL     1       0.440  -3.303   4.136  0.00  0.00    -0.276 OA
ATOM      5  H   UNL     1      -1.429  -3.933   1.762  0.00  0.00    +0.149 HD
BRANCH   3   6
ATOM      6  C   UNL     1      -1.649  -4.381   4.341  0.00  0.00    +0.098 C 
BRANCH   6   7
ATOM      7  C   UNL     1      -1.287  -4.394   5.828  0.00  0.00    +0.041 C 
BRANCH   7   8
ATOM      8  C   UNL     1      -2.411  -5.064   6.621  0.00  0.00    +0.161 C 
ATOM      9  C   UNL     1      -2.069  -5.108   8.097  0.00  0.00    +0.241 C 
ATOM     10  O   UNL     1      -1.876  -4.163   8.833  0.00  0.00    -0.273 OA
ATOM     11  N   UNL     1      -2.025  -6.415   8.422  0.00  0.00    -0.239 N 
ATOM     12  C   UNL     1      -2.289  -7.195   7.367  0.00  0.00    +0.307 C 
ATOM     13  O   UNL     1      -2.308  -8.409   7.413  0.00  0.00    -0.252 OA
ATOM     14  N   UNL     1      -2.531  -6.484   6.251  0.00  0.00    -0.288 N 
ATOM     15  H   UNL     1      -1.826  -6.749   9.311  0.00  0.00    +0.159 HD
ATOM     16  H   UNL     1      -2.744  -6.838   5.373  0.00  0.00    +0.151 HD
ENDBRANCH   7   8
ENDBRANCH   6   7
ENDBRANCH   3   6
ENDBRANCH   1   2
BRANCH   1  17
ATOM     17  C   UNL     1       0.019  -2.835  -0.005  0.00  0.00    -0.017 C 
BRANCH  17  23
ATOM     18  C   UNL     1      -0.951  -0.531  -0.203  0.00  0.00    +0.122 A 
ATOM     19  C   UNL     1      -2.036   0.327  -0.314  0.00  0.00    +0.046 A 
ATOM     20  C   UNL     1      -3.319  -0.184  -0.335  0.00  0.00    +0.004 A 
ATOM     21  C   UNL     1      -3.523  -1.549  -0.247  0.00  0.00    +0.000 A 
ATOM     22  C   UNL     1      -2.443  -2.405  -0.136  0.00  0.00    +0.005 A 
ATOM     23  C   UNL     1      -1.157  -1.900  -0.120  0.00  0.00    -0.018 A 
BRANCH  18  25
ATOM     24  C   UNL     1       0.450   1.389  -0.272  0.00  0.00    +0.277 C 
ATOM     25  O   UNL     1       0.313  -0.031  -0.182  0.00  0.00    -0.495 OA
ENDBRANCH  18  25
ENDBRANCH  17  23
BRANCH  17  26
ATOM     26  N   UNL     1      -0.356  -4.159  -0.520  0.00  0.00    +0.385 N 
ATOM     27  C   UNL     1      -0.658  -4.078  -1.972  0.00  0.00    -0.078 C 
ATOM     28  C   UNL     1      -0.471  -5.538  -2.455  0.00  0.00    -0.020 C 
ATOM     29  C   UNL     1       0.737  -6.025  -1.622  0.00  0.00    -0.020 C 
ATOM     30  C   UNL     1       0.782  -5.095  -0.396  0.00  0.00    -0.078 C 
ATOM     31  H   UNL     1      -1.155  -4.514  -0.017  0.00  0.00    -0.081 HD
ENDBRANCH  17  26
ENDBRANCH   1  17
TORSDOF 8
