REMARK  Name = ZINC08964075
REMARK  8 active torsions:
REMARK  status: ('A' for Active; 'I' for Inactive)
REMARK    1  A    between atoms: C_1  and  N_2
REMARK    2  A    between atoms: C_9  and  C_11
REMARK    3  A    between atoms: C_11  and  C_13
REMARK    4  A    between atoms: C_11  and  N_58
REMARK    5  A    between atoms: C_13  and  N_14
REMARK    6  A    between atoms: C_15  and  C_17
REMARK    7  A    between atoms: N_19  and  C_20
REMARK    8  A    between atoms: C_25  and  C_26
REMARK                            x       y       z     vdW  Elec       q    Type
REMARK                         _______ _______ _______ _____ _____    ______ ____
ROOT
ATOM      1  C   UNL     1      -3.525   6.064  -0.928  0.00  0.00    -0.020 C 
ENDROOT
BRANCH   1  10
ATOM      2  C   UNL     1      -1.070   1.523   2.972  0.00  0.00    +0.129 C 
ATOM      3  N   UNL     1      -2.109   1.381   1.943  0.00  0.00    -0.332 N 
ATOM      4  C   UNL     1      -1.650   0.503   0.845  0.00  0.00    +0.109 C 
ATOM      5  C   UNL     1      -2.391   1.077  -0.385  0.00  0.00    +0.056 C 
ATOM      6  C   UNL     1      -2.635   2.519   0.012  0.00  0.00    -0.025 A 
ATOM      7  C   UNL     1      -2.444   2.624   1.385  0.00  0.00    +0.033 A 
ATOM      8  C   UNL     1      -2.603   3.865   1.999  0.00  0.00    +0.023 A 
ATOM      9  C   UNL     1      -2.950   4.970   1.249  0.00  0.00    +0.004 A 
ATOM     10  C   UNL     1      -3.144   4.854  -0.115  0.00  0.00    -0.059 A 
ATOM     11  C   UNL     1      -2.986   3.626  -0.732  0.00  0.00    +0.007 A 
ENDBRANCH   1  10
BRANCH   1  16
ATOM     12  C   UNL     1      -1.309   6.982  -0.511  0.00  0.00    -0.078 C 
ATOM     13  C   UNL     1      -0.705   8.409  -0.499  0.00  0.00    -0.020 C 
ATOM     14  C   UNL     1      -1.705   9.215  -1.359  0.00  0.00    -0.020 C 
ATOM     15  C   UNL     1      -3.016   8.408  -1.315  0.00  0.00    -0.078 C 
ATOM     16  N   UNL     1      -2.754   7.253  -0.455  0.00  0.00    +0.385 N 
ATOM     17  H   UNL     1      -3.029   7.470   0.510  0.00  0.00    -0.081 HD
ENDBRANCH   1  16
BRANCH   1  18
ATOM     18  C   UNL     1      -5.025   6.328  -0.778  0.00  0.00    +0.094 C 
BRANCH  18  19
ATOM     19  N   UNL     1      -5.777   5.224  -1.378  0.00  0.00    -0.309 N 
ATOM     20  C   UNL     1      -7.122   5.285  -1.449  0.00  0.00    +0.299 C 
ATOM     21  O   UNL     1      -7.709   6.255  -1.015  0.00  0.00    -0.265 OA
ATOM     22  H   UNL     1      -5.308   4.449  -1.725  0.00  0.00    +0.149 HD
BRANCH  20  23
ATOM     23  C   UNL     1      -7.889   4.160  -2.061  0.00  0.00    +0.303 C 
ATOM     24  O   UNL     1      -7.303   3.190  -2.495  0.00  0.00    -0.265 OA
ATOM     25  N   UNL     1      -9.234   4.221  -2.132  0.00  0.00    -0.277 N 
ATOM     26  H   UNL     1      -9.708   4.961  -1.723  0.00  0.00    +0.155 HD
BRANCH  25  27
ATOM     27  C   UNL     1      -9.943   3.221  -2.792  0.00  0.00    +0.051 A 
ATOM     28  C   UNL     1      -9.484   1.910  -2.771  0.00  0.00    +0.024 A 
ATOM     29  C   UNL     1     -10.191   0.919  -3.422  0.00  0.00    +0.002 A 
ATOM     30  C   UNL     1     -11.355   1.224  -4.109  0.00  0.00    +0.001 A 
ATOM     31  C   UNL     1     -11.822   2.520  -4.146  0.00  0.00    +0.021 A 
ATOM     32  C   UNL     1     -11.121   3.533  -3.487  0.00  0.00    +0.073 A 
BRANCH  32  33
ATOM     33  C   UNL     1     -11.601   4.881  -3.522  0.00  0.00    +0.101 C 
ATOM     34  N   UNL     1     -11.982   5.951  -3.549  0.00  0.00    -0.191 NA
ENDBRANCH  32  33
ENDBRANCH  25  27
ENDBRANCH  20  23
ENDBRANCH  18  19
ENDBRANCH   1  18
TORSDOF 7
