REMARK  Name = ZINC55002054
REMARK  9 active torsions:
REMARK  status: ('A' for Active; 'I' for Inactive)
REMARK    1  A    between atoms: C_1  and  C_2
REMARK    2  A    between atoms: C_2  and  C_3
REMARK    3  A    between atoms: C_2  and  C_4
REMARK    4  A    between atoms: C_2  and  C_5
REMARK    5  A    between atoms: C_6  and  C_19
REMARK    6  A    between atoms: N_10  and  C_11
REMARK    7  A    between atoms: N_10  and  C_12
REMARK    8  A    between atoms: C_12  and  C_13
REMARK    9  A    between atoms: C_19  and  N_20
REMARK                            x       y       z     vdW  Elec       q    Type
REMARK                         _______ _______ _______ _____ _____    ______ ____
ROOT
ATOM      1  C   UNL     1       1.037  -0.657  -1.111  0.00  0.00    +0.057 A 
ATOM      2  C   UNL     1       0.861  -1.889  -1.644  0.00  0.00    -0.003 A 
ATOM      3  S   UNL     1       1.675  -1.691  -3.220  0.00  0.00    -0.059 S 
ATOM      4  C   UNL     1       2.148  -0.086  -3.038  0.00  0.00    +0.161 A 
ATOM      5  N   UNL     1       1.687   0.229  -1.846  0.00  0.00    -0.229 NA
ATOM      6  N   UNL     1       2.847   0.712  -3.930  0.00  0.00    -0.312 N 
ATOM      7  C   UNL     1       3.164   2.099  -3.579  0.00  0.00    +0.131 C 
ENDROOT
BRANCH   1   9
ATOM      8  C   UNL     1       0.718   1.185   0.518  0.00  0.00    +0.017 C 
ATOM      9  C   UNL     1       0.511  -0.308   0.257  0.00  0.00    +0.005 C 
ATOM     10  C   UNL     1       1.262  -1.119   1.315  0.00  0.00    +0.017 C 
ATOM     11  C   UNL     1      -0.982  -0.636   0.328  0.00  0.00    +0.017 C 
ENDBRANCH   1   9
BRANCH   6  12
ATOM     12  C   UNL     1       3.269   0.170  -5.223  0.00  0.00    +0.110 C 
BRANCH  12  13
ATOM     13  C   UNL     1       2.173   0.414  -6.262  0.00  0.00    +0.006 C 
ATOM     14  C   UNL     1       0.922  -0.380  -5.879  0.00  0.00    +0.005 C 
ATOM     15  C   UNL     1      -0.175  -0.136  -6.917  0.00  0.00    +0.000 C 
ATOM     16  C   UNL     1       0.315  -0.589  -8.293  0.00  0.00    +0.000 C 
ATOM     17  C   UNL     1       1.566   0.204  -8.677  0.00  0.00    +0.000 C 
ATOM     18  C   UNL     1       2.663  -0.040  -7.638  0.00  0.00    +0.005 C 
ENDBRANCH  12  13
ENDBRANCH   6  12
BRANCH   2  19
ATOM     19  C   UNL     1       0.168  -3.096  -1.065  0.00  0.00    -0.041 C 
BRANCH  19  20
ATOM     20  N   UNL     1      -1.208  -3.163  -1.577  0.00  0.00    +0.381 N 
ATOM     21  H   UNL     1      -1.189  -3.342  -2.570  0.00  0.00    -0.090 HD
ATOM     22  H   UNL     1      -1.704  -3.907  -1.111  0.00  0.00    -0.090 HD
ATOM     23  H   UNL     1      -1.675  -2.286  -1.403  0.00  0.00    -0.090 HD
ENDBRANCH  19  20
ENDBRANCH   2  19
TORSDOF 5
