REMARK  Name = ZINC37748392
REMARK  8 active torsions:
REMARK  status: ('A' for Active; 'I' for Inactive)
REMARK    1  A    between atoms: C_1  and  C_2
REMARK    2  A    between atoms: C_5  and  O_21
REMARK    3  A    between atoms: C_6  and  C_8
REMARK    4  A    between atoms: C_8  and  C_10
REMARK    5  A    between atoms: C_8  and  N_11
REMARK    6  A    between atoms: N_11  and  C_12
REMARK    7  A    between atoms: C_12  and  C_13
REMARK    8  A    between atoms: C_16  and  C_19
REMARK                            x       y       z     vdW  Elec       q    Type
REMARK                         _______ _______ _______ _____ _____    ______ ____
ROOT
ATOM      1  N   UNL     1      -0.539  -2.010   3.551  0.00  0.00    +0.386 N 
ATOM      2  H   UNL     1       0.042  -1.200   3.707  0.00  0.00    -0.085 HD
ATOM      3  H   UNL     1      -1.461  -1.714   3.270  0.00  0.00    -0.085 HD
ENDROOT
BRANCH   1   4
ATOM      4  C   UNL     1       0.052  -2.841   2.493  0.00  0.00    -0.040 C 
ATOM      5  C   UNL     1       1.496  -3.187   2.864  0.00  0.00    -0.009 C 
BRANCH   4  11
ATOM      6  C   UNL     1      -0.018   1.503   0.010  0.00  0.00    +0.044 C 
ATOM      7  C   UNL     1       0.002  -0.004   0.002  0.00  0.00    -0.050 A 
ATOM      8  C   UNL     1       0.006  -0.688  -1.200  0.00  0.00    +0.007 A 
ATOM      9  C   UNL     1       0.024  -2.069  -1.210  0.00  0.00    +0.046 A 
ATOM     10  C   UNL     1       0.039  -2.770  -0.013  0.00  0.00    +0.118 A 
ATOM     11  C   UNL     1       0.036  -2.082   1.191  0.00  0.00    -0.020 A 
ATOM     12  C   UNL     1       0.023  -0.701   1.196  0.00  0.00    +0.009 A 
BRANCH  10  13
ATOM     13  O   UNL     1       0.057  -4.129  -0.021  0.00  0.00    -0.507 OA
ATOM     14  H   UNL     1       0.945  -4.511  -0.027  0.00  0.00    +0.292 HD
ENDBRANCH  10  13
ENDBRANCH   4  11
ENDBRANCH   1   4
BRANCH   1  15
ATOM     15  C   UNL     1      -0.633  -2.792   4.792  0.00  0.00    -0.046 C 
BRANCH  15  16
ATOM     16  C   UNL     1      -1.239  -1.940   5.877  0.00  0.00    -0.064 A 
ATOM     17  C   UNL     1      -0.422  -1.172   6.688  0.00  0.00    +0.003 A 
ATOM     18  C   UNL     1      -0.970  -0.390   7.683  0.00  0.00    +0.019 A 
ATOM     19  C   UNL     1      -2.354  -0.374   7.871  0.00  0.00    +0.052 A 
ATOM     20  C   UNL     1      -3.173  -1.151   7.049  0.00  0.00    +0.019 A 
ATOM     21  C   UNL     1      -2.611  -1.925   6.055  0.00  0.00    +0.003 A 
BRANCH  19  22
ATOM     22  C   UNL     1      -2.930   0.434   8.903  0.00  0.00    +0.099 C 
ATOM     23  N   UNL     1      -3.387   1.076   9.721  0.00  0.00    -0.191 NA
ENDBRANCH  19  22
ENDBRANCH  15  16
ENDBRANCH   1  15
TORSDOF 6
