REMARK  Name = ZINC16978517
REMARK  6 active torsions:
REMARK  status: ('A' for Active; 'I' for Inactive)
REMARK    1  A    between atoms: C_1  and  C_2
REMARK    2  A    between atoms: C_3  and  C_10
REMARK    3  A    between atoms: C_4  and  N_9
REMARK    4  A    between atoms: C_13  and  C_16
REMARK    5  A    between atoms: C_17  and  C_18
REMARK    6  A    between atoms: C_19  and  C_20
REMARK                            x       y       z     vdW  Elec       q    Type
REMARK                         _______ _______ _______ _____ _____    ______ ____
ROOT
ATOM      1  C   UNL     1      -1.234   2.534  -1.062  0.00  0.00    -0.013 A 
ATOM      2  C   UNL     1      -0.887   1.183  -1.131  0.00  0.00    +0.009 A 
ATOM      3  C   UNL     1       0.335   0.767  -0.685  0.00  0.00    +0.008 A 
ATOM      4  C   UNL     1       1.245   1.698  -0.169  0.00  0.00    -0.025 A 
ATOM      5  C   UNL     1       0.897   3.052  -0.105  0.00  0.00    +0.008 A 
ATOM      6  C   UNL     1      -0.328   3.464  -0.547  0.00  0.00    +0.009 A 
ENDROOT
BRANCH   1   9
ATOM      7  C   UNL     1      -3.663   1.649   0.290  0.00  0.00    +0.066 C 
ATOM      8  C   UNL     1      -3.730   2.566  -0.904  0.00  0.00    +0.053 A 
ATOM      9  C   UNL     1      -2.562   2.983  -1.541  0.00  0.00    +0.043 A 
ATOM     10  C   UNL     1      -2.678   3.836  -2.655  0.00  0.00    +0.129 A 
ATOM     11  N   UNL     1      -3.889   4.213  -3.050  0.00  0.00    -0.199 NA
ATOM     12  C   UNL     1      -4.971   3.795  -2.410  0.00  0.00    +0.214 A 
ATOM     13  N   UNL     1      -4.897   2.992  -1.358  0.00  0.00    -0.219 NA
ATOM     14  N   UNL     1      -6.214   4.210  -2.852  0.00  0.00    -0.327 N 
ATOM     15  H   UNL     1      -6.284   4.799  -3.620  0.00  0.00    +0.145 HD
ATOM     16  H   UNL     1      -7.015   3.913  -2.394  0.00  0.00    +0.145 HD
BRANCH  10  17
ATOM     17  N   UNL     1      -1.551   4.275  -3.326  0.00  0.00    -0.343 N 
ATOM     18  H   UNL     1      -0.671   3.994  -3.030  0.00  0.00    +0.144 HD
ATOM     19  H   UNL     1      -1.641   4.862  -4.092  0.00  0.00    +0.144 HD
ENDBRANCH  10  17
ENDBRANCH   1   9
BRANCH   4  20
ATOM     20  C   UNL     1       2.563   1.253   0.306  0.00  0.00    +0.008 C 
ATOM     21  C   UNL     1       2.676   0.101   1.004  0.00  0.00    +0.001 C 
BRANCH  21  22
ATOM     22  C   UNL     1       1.514  -0.589   1.423  0.00  0.00    +0.001 C 
ATOM     23  C   UNL     1       1.623  -1.796   2.018  0.00  0.00    +0.008 C 
BRANCH  23  24
ATOM     24  C   UNL     1       2.934  -2.461   2.098  0.00  0.00    -0.025 A 
ATOM     25  C   UNL     1       3.861  -2.312   1.062  0.00  0.00    +0.008 A 
ATOM     26  C   UNL     1       5.090  -2.933   1.147  0.00  0.00    +0.001 A 
ATOM     27  C   UNL     1       5.401  -3.712   2.248  0.00  0.00    +0.000 A 
ATOM     28  C   UNL     1       4.486  -3.869   3.274  0.00  0.00    +0.001 A 
ATOM     29  C   UNL     1       3.256  -3.249   3.207  0.00  0.00    +0.008 A 
ENDBRANCH  23  24
ENDBRANCH  21  22
ENDBRANCH   4  20
TORSDOF 5
