REMARK  Name = ZINC33628403
REMARK  7 active torsions:
REMARK  status: ('A' for Active; 'I' for Inactive)
REMARK    1  A    between atoms: C_2  and  C_3
REMARK    2  A    between atoms: C_3  and  N_4
REMARK    3  A    between atoms: C_5  and  N_6
REMARK    4  A    between atoms: C_7  and  C_20
REMARK    5  A    between atoms: N_22  and  C_23
REMARK    6  A    between atoms: C_23  and  C_24
REMARK    7  A    between atoms: C_24  and  N_25
REMARK                            x       y       z     vdW  Elec       q    Type
REMARK                         _______ _______ _______ _____ _____    ______ ____
ROOT
ATOM      1  N   UNL     1       0.066  -0.112  -0.011  0.00  0.00    -0.309 N 
ATOM      2  C   UNL     1      -0.075   1.259  -0.011  0.00  0.00    +0.110 A 
ATOM      3  C   UNL     1       1.122   2.114  -0.006  0.00  0.00    +0.075 A 
ATOM      4  C   UNL     1       2.376   1.519  -0.002  0.00  0.00    +0.033 A 
ATOM      5  C   UNL     1       2.475   0.120  -0.002  0.00  0.00    +0.083 A 
ATOM      6  C   UNL     1       1.313  -0.686  -0.007  0.00  0.00    +0.150 A 
ATOM      7  N   UNL     1       1.439  -2.006  -0.007  0.00  0.00    -0.211 NA
ATOM      8  C   UNL     1       2.635  -2.595  -0.003  0.00  0.00    +0.143 A 
ATOM      9  C   UNL     1       2.703  -4.001  -0.004  0.00  0.00    +0.047 A 
ATOM     10  C   UNL     1       3.920  -4.615  -0.001  0.00  0.00    +0.005 A 
ATOM     11  C   UNL     1       5.087  -3.839   0.003  0.00  0.00    +0.018 A 
ATOM     12  C   UNL     1       5.003  -2.490   0.003  0.00  0.00    +0.096 A 
ATOM     13  N   UNL     1       3.791  -1.866   0.000  0.00  0.00    -0.268 N 
ATOM     14  C   UNL     1       3.744  -0.515   0.001  0.00  0.00    +0.268 A 
ATOM     15  O   UNL     1       4.769   0.143   0.004  0.00  0.00    -0.267 OA
ENDROOT
BRANCH   3  16
ATOM     16  C   UNL     1       0.993   3.576  -0.006  0.00  0.00    +0.247 C 
ATOM     17  O   UNL     1      -0.106   4.089   0.096  0.00  0.00    -0.270 OA
ATOM     18  N   UNL     1       2.091   4.350  -0.119  0.00  0.00    -0.313 N 
ATOM     19  H   UNL     1       3.083   3.885  -0.211  0.00  0.00    +0.149 HD
BRANCH  18  20
ATOM     20  C   UNL     1       1.961   5.809  -0.120  0.00  0.00    +0.086 C 
BRANCH  20  21
ATOM     21  C   UNL     1       3.346   6.444  -0.259  0.00  0.00    -0.060 C 
BRANCH  21  22
ATOM     22  N   UNL     1       3.217   7.907  -0.260  0.00  0.00    +0.381 N 
ATOM     23  C   UNL     1       2.492   8.371  -1.450  0.00  0.00    -0.079 C 
ATOM     24  C   UNL     1       2.249   9.878  -1.345  0.00  0.00    -0.019 C 
ATOM     25  C   UNL     1       3.594  10.601  -1.230  0.00  0.00    -0.004 C 
ATOM     26  C   UNL     1       4.349  10.065  -0.010  0.00  0.00    -0.019 C 
ATOM     27  C   UNL     1       4.532   8.552  -0.153  0.00  0.00    -0.079 C 
ATOM     28  H   UNL     1       2.629   8.196   0.624  0.00  0.00    -0.082 HD
ENDBRANCH  21  22
ENDBRANCH  20  21
ENDBRANCH  18  20
ENDBRANCH   3  16
BRANCH   2  29
ATOM     29  N   UNL     1      -1.268   1.798  -0.021  0.00  0.00    -0.344 N 
ATOM     30  H   UNL     1      -1.377   2.893  -0.021  0.00  0.00    +0.144 HD
ATOM     31  H   UNL     1      -2.161   1.156  -0.029  0.00  0.00    +0.144 HD
ENDBRANCH   2  29
BRANCH   1  32
ATOM     32  C   UNL     1      -1.126  -0.964  -0.016  0.00  0.00    +0.151 C 
BRANCH  32  34
ATOM     33  C   UNL     1      -1.663  -2.496  -1.840  0.00  0.00    +0.005 C 
ATOM     34  C   UNL     1      -1.529  -1.256  -1.438  0.00  0.00    -0.013 C 
ENDBRANCH  32  34
ENDBRANCH   1  32
TORSDOF 7
