REMARK  Name = ZINC39699714
REMARK  3 active torsions:
REMARK  status: ('A' for Active; 'I' for Inactive)
REMARK    1  A    between atoms: C_4  and  O_25
REMARK    2  A    between atoms: C_5  and  C_7
REMARK    3  A    between atoms: N_8  and  N_9
REMARK                            x       y       z     vdW  Elec       q    Type
REMARK                         _______ _______ _______ _____ _____    ______ ____
ROOT
ATOM      1  N   UNL     1       2.413  -4.186  -0.045  0.00  0.00    -0.206 N 
ATOM      2  C   UNL     1       3.620  -4.853  -0.061  0.00  0.00    +0.227 C 
ATOM      3  N   UNL     1       4.721  -4.140  -0.063  0.00  0.00    -0.220 NA
ATOM      4  C   UNL     1       5.993  -4.852  -0.160  0.00  0.00    +0.253 C 
ATOM      5  C   UNL     1       5.764  -6.223   0.462  0.00  0.00    +0.115 C 
ATOM      6  C   UNL     1       6.795  -6.406   1.333  0.00  0.00    +0.026 A 
ATOM      7  C   UNL     1       7.190  -7.515   2.120  0.00  0.00    +0.027 A 
ATOM      8  C   UNL     1       8.285  -7.362   2.914  0.00  0.00    +0.019 A 
ATOM      9  C   UNL     1       9.037  -6.185   2.998  0.00  0.00    +0.017 A 
ATOM     10  C   UNL     1       8.754  -5.063   2.284  0.00  0.00    +0.027 A 
ATOM     11  C   UNL     1       7.587  -5.138   1.389  0.00  0.00    +0.046 A 
ATOM     12  N   UNL     1       7.091  -4.250   0.583  0.00  0.00    -0.358 N 
ATOM     13 BR   UNL     1       8.824  -8.834   3.971  0.00  0.00    -0.050 Br
ATOM     14  N   UNL     1       4.649  -6.917   0.216  0.00  0.00    -0.171 NA
ATOM     15  N   UNL     1       3.601  -6.208  -0.069  0.00  0.00    -0.247 N 
ATOM     16  H   UNL     1       1.582  -4.686  -0.040  0.00  0.00    +0.177 HD
ATOM     17  H   UNL     1       2.777  -6.664  -0.298  0.00  0.00    +0.192 HD
ATOM     18  H   UNL     1       7.402  -3.336   0.489  0.00  0.00    +0.162 HD
ENDROOT
BRANCH   1  20
ATOM     19  C   UNL     1       1.250  -2.157  -0.022  0.00  0.00    +0.142 C 
ATOM     20  N   UNL     1       2.386  -2.785  -0.037  0.00  0.00    -0.187 NA
BRANCH  19  25
ATOM     21  C   UNL     1      -0.017   1.375   0.010  0.00  0.00    +0.001 A 
ATOM     22  C   UNL     1       1.169   2.089   0.002  0.00  0.00    +0.004 A 
ATOM     23  C   UNL     1       2.383   1.428  -0.013  0.00  0.00    +0.046 A 
ATOM     24  C   UNL     1       2.421   0.044  -0.021  0.00  0.00    +0.125 A 
ATOM     25  C   UNL     1       1.222  -0.684  -0.013  0.00  0.00    +0.036 A 
ATOM     26  C   UNL     1       0.002  -0.004   0.002  0.00  0.00    +0.013 A 
BRANCH  24  27
ATOM     27  O   UNL     1       3.613  -0.606  -0.037  0.00  0.00    -0.506 OA
ATOM     28  H   UNL     1       3.967  -0.799   0.842  0.00  0.00    +0.292 HD
ENDBRANCH  24  27
ENDBRANCH  19  25
ENDBRANCH   1  20
TORSDOF 3
