REMARK  Name = ZINC39595699
REMARK  9 active torsions:
REMARK  status: ('A' for Active; 'I' for Inactive)
REMARK    1  A    between atoms: C_1  and  C_2
REMARK    2  A    between atoms: C_2  and  C_3
REMARK    3  A    between atoms: C_6  and  C_9
REMARK    4  A    between atoms: C_13  and  C_22
REMARK    5  A    between atoms: N_24  and  C_25
REMARK    6  A    between atoms: C_25  and  C_26
REMARK    7  A    between atoms: C_26  and  C_28
REMARK    8  A    between atoms: C_26  and  O_29
REMARK    9  A    between atoms: O_29  and  C_30
REMARK                            x       y       z     vdW  Elec       q    Type
REMARK                         _______ _______ _______ _____ _____    ______ ____
ROOT
ATOM      1  C   UNL     1       1.996  -3.152  -5.164  0.00  0.00    +0.247 C 
ATOM      2  O   UNL     1       1.447  -3.686  -6.108  0.00  0.00    -0.270 OA
ATOM      3  N   UNL     1       3.337  -3.021  -5.150  0.00  0.00    -0.296 N 
ATOM      4  C   UNL     1       4.189  -2.523  -4.045  0.00  0.00    +0.121 C 
ATOM      5  C   UNL     1       5.437  -3.434  -4.074  0.00  0.00    +0.100 C 
ATOM      6  C   UNL     1       5.501  -3.967  -5.515  0.00  0.00    -0.004 C 
ATOM      7  C   UNL     1       4.293  -3.349  -6.234  0.00  0.00    +0.115 C 
ATOM      8  C   UNL     1       5.388  -5.489  -5.520  0.00  0.00    -0.010 C 
ATOM      9  C   UNL     1       5.511  -6.000  -6.959  0.00  0.00    -0.082 C 
ATOM     10  N   UNL     1       6.802  -5.582  -7.519  0.00  0.00    +0.379 N 
ATOM     11  C   UNL     1       6.864  -4.118  -7.596  0.00  0.00    -0.082 C 
ATOM     12  C   UNL     1       6.798  -3.527  -6.185  0.00  0.00    -0.010 C 
ATOM     13  H   UNL     1       7.548  -5.919  -6.930  0.00  0.00    -0.086 HD
ATOM     14  H   UNL     1       6.907  -5.971  -8.445  0.00  0.00    -0.086 HD
ENDROOT
BRANCH   1  18
ATOM     15  C   UNL     1      -0.314  -1.701  -1.907  0.00  0.00    -0.048 A 
ATOM     16  C   UNL     1      -0.837  -2.670  -2.745  0.00  0.00    +0.004 A 
ATOM     17  C   UNL     1      -0.092  -3.145  -3.805  0.00  0.00    +0.013 A 
ATOM     18  C   UNL     1       1.192  -2.647  -4.030  0.00  0.00    +0.037 A 
ATOM     19  C   UNL     1       1.714  -1.670  -3.181  0.00  0.00    +0.013 A 
ATOM     20  C   UNL     1       0.956  -1.199  -2.129  0.00  0.00    +0.004 A 
BRANCH  15  22
ATOM     21  C   UNL     1      -1.964   0.013  -1.210  0.00  0.00    +0.009 C 
ATOM     22  C   UNL     1      -1.133  -1.187  -0.752  0.00  0.00    +0.032 C 
ENDBRANCH  15  22
ENDBRANCH   1  18
BRANCH   5  23
ATOM     23  C   UNL     1       5.280  -4.571  -3.097  0.00  0.00    +0.218 C 
ATOM     24  O   UNL     1       4.176  -5.004  -2.844  0.00  0.00    -0.275 OA
ATOM     25  N   UNL     1       6.366  -5.106  -2.506  0.00  0.00    -0.312 N 
ATOM     26  H   UNL     1       7.249  -4.760  -2.708  0.00  0.00    +0.149 HD
BRANCH  25  27
ATOM     27  C   UNL     1       6.213  -6.211  -1.556  0.00  0.00    +0.148 C 
BRANCH  27  28
ATOM     28  C   UNL     1       7.590  -6.630  -1.034  0.00  0.00    +0.187 C 
ATOM     29  C   UNL     1       7.430  -7.784  -0.043  0.00  0.00    +0.053 C 
BRANCH  28  30
ATOM     30  O   UNL     1       8.406  -7.051  -2.129  0.00  0.00    -0.488 OA
BRANCH  30  31
ATOM     31  C   UNL     1       9.752  -6.954  -1.968  0.00  0.00    +0.121 A 
ATOM     32  C   UNL     1      10.600  -7.230  -3.030  0.00  0.00    +0.048 A 
ATOM     33  C   UNL     1      11.968  -7.131  -2.865  0.00  0.00    +0.042 A 
ATOM     34  C   UNL     1      12.493  -6.757  -1.639  0.00  0.00    +0.124 A 
ATOM     35  C   UNL     1      11.648  -6.481  -0.578  0.00  0.00    +0.042 A 
ATOM     36  C   UNL     1      10.279  -6.573  -0.742  0.00  0.00    +0.048 A 
ATOM     37  F   UNL     1      13.831  -6.661  -1.479  0.00  0.00    -0.205 F 
ENDBRANCH  30  31
ENDBRANCH  28  30
ENDBRANCH  27  28
ENDBRANCH  25  27
ENDBRANCH   5  23
TORSDOF 7
