REMARK  Name = ZINC43097560
REMARK  7 active torsions:
REMARK  status: ('A' for Active; 'I' for Inactive)
REMARK    1  A    between atoms: C_1  and  C_2
REMARK    2  A    between atoms: C_2  and  C_4
REMARK    3  A    between atoms: C_2  and  N_22
REMARK    4  A    between atoms: C_4  and  C_6
REMARK    5  A    between atoms: C_4  and  N_14
REMARK    6  A    between atoms: C_11  and  O_12
REMARK    7  A    between atoms: O_12  and  C_13
REMARK                            x       y       z     vdW  Elec       q    Type
REMARK                         _______ _______ _______ _____ _____    ______ ____
ROOT
ATOM      1  C   UNL     1       0.741  -0.494   1.258  0.00  0.00    +0.076 C 
ENDROOT
BRANCH   1   2
ATOM      2  N   UNL     1       0.666  -1.960   1.327  0.00  0.00    -0.294 NA
ATOM      3  C   UNL     1      -0.710  -2.424   1.133  0.00  0.00    +0.107 C 
ATOM      4  C   UNL     1      -0.711  -3.914   0.773  0.00  0.00    +0.181 C 
ATOM      5  S   UNL     1       0.005  -4.844   2.162  0.00  0.00    -0.029 S 
ATOM      6  O   UNL     1       0.308  -6.160   1.718  0.00  0.00    -0.174 OA
ATOM      7  O   UNL     1      -0.827  -4.671   3.301  0.00  0.00    -0.174 OA
ATOM      8  C   UNL     1       1.566  -3.952   2.439  0.00  0.00    +0.181 C 
ATOM      9  C   UNL     1       1.256  -2.457   2.571  0.00  0.00    +0.107 C 
ENDBRANCH   1   2
BRANCH   1  10
ATOM     10  C   UNL     1       2.185  -0.063   1.287  0.00  0.00    +0.010 A 
ATOM     11  C   UNL     1       3.173  -0.926   0.852  0.00  0.00    +0.009 A 
ATOM     12  C   UNL     1       4.497  -0.532   0.879  0.00  0.00    +0.001 A 
ATOM     13  C   UNL     1       4.837   0.727   1.341  0.00  0.00    +0.004 A 
ATOM     14  C   UNL     1       3.854   1.593   1.776  0.00  0.00    +0.046 A 
ATOM     15  C   UNL     1       2.523   1.201   1.745  0.00  0.00    +0.125 A 
BRANCH  15  16
ATOM     16  O   UNL     1       1.552   2.054   2.168  0.00  0.00    -0.495 OA
ATOM     17  C   UNL     1       1.974   3.340   2.627  0.00  0.00    +0.277 C 
ENDBRANCH  15  16
ENDBRANCH   1  10
BRANCH   1  19
ATOM     18  C   UNL     1       0.745  -0.714  -1.231  0.00  0.00    -0.012 C 
ATOM     19  C   UNL     1       0.091  -0.011  -0.040  0.00  0.00    -0.056 C 
BRANCH  19  20
ATOM     20  N   UNL     1       0.274   1.441  -0.168  0.00  0.00    +0.381 N 
ATOM     21  H   UNL     1      -0.229   1.774  -0.977  0.00  0.00    -0.090 HD
ATOM     22  H   UNL     1      -0.079   1.899   0.659  0.00  0.00    -0.090 HD
ATOM     23  H   UNL     1       1.256   1.649  -0.274  0.00  0.00    -0.090 HD
ENDBRANCH  19  20
ENDBRANCH   1  19
TORSDOF 5
