REMARK  Name = ZINC32075153
REMARK  5 active torsions:
REMARK  status: ('A' for Active; 'I' for Inactive)
REMARK    1  A    between atoms: C_3  and  N_18
REMARK    2  A    between atoms: C_6  and  C_7
REMARK    3  A    between atoms: C_7  and  N_8
REMARK    4  A    between atoms: C_9  and  C_10
REMARK    5  A    between atoms: C_15  and  O_16
REMARK                            x       y       z     vdW  Elec       q    Type
REMARK                         _______ _______ _______ _____ _____    ______ ____
ROOT
ATOM      1  C   UNL     1      -0.154   1.474   0.105  0.00  0.00    +0.007 A 
ATOM      2  C   UNL     1       0.977   2.265   0.143  0.00  0.00    +0.023 A 
ATOM      3  C   UNL     1       2.235   1.678   0.118  0.00  0.00    +0.030 A 
ATOM      4  C   UNL     1       2.352   0.295   0.056  0.00  0.00    +0.023 A 
ATOM      5  C   UNL     1       1.216  -0.491   0.019  0.00  0.00    +0.007 A 
ATOM      6  C   UNL     1      -0.035   0.097   0.044  0.00  0.00    -0.028 A 
ENDROOT
BRANCH   3   7
ATOM      7  N   UNL     1       3.381   2.475   0.155  0.00  0.00    -0.320 N 
ATOM      8  C   UNL     1       4.725   1.882   0.251  0.00  0.00    +0.124 C 
ATOM      9  C   UNL     1       5.513   2.280  -0.998  0.00  0.00    +0.123 C 
ATOM     10  N   UNL     1       5.367   3.703  -1.270  0.00  0.00    -0.313 N 
ATOM     11  C   UNL     1       4.362   4.459  -0.825  0.00  0.00    +0.230 C 
ATOM     12  O   UNL     1       4.306   5.616  -1.184  0.00  0.00    -0.274 OA
ATOM     13  C   UNL     1       3.295   3.942   0.094  0.00  0.00    +0.200 C 
ATOM     14  H   UNL     1       6.048   4.131  -1.812  0.00  0.00    +0.149 HD
ENDBRANCH   3   7
BRANCH   6  15
ATOM     15  C   UNL     1      -1.271  -0.763   0.004  0.00  0.00    +0.147 C 
BRANCH  15  16
ATOM     16  N   UNL     1      -1.670  -0.980  -1.389  0.00  0.00    -0.386 N 
ATOM     17  C   UNL     1      -1.632  -2.171  -1.895  0.00  0.00    +0.090 C 
ATOM     18  H   UNL     1      -1.963  -0.231  -1.932  0.00  0.00    +0.159 HD
BRANCH  17  19
ATOM     19  C   UNL     1      -1.887  -2.368  -3.333  0.00  0.00    +0.033 A 
ATOM     20  C   UNL     1      -1.969  -3.659  -3.861  0.00  0.00    +0.033 A 
ATOM     21  C   UNL     1      -2.209  -3.837  -5.208  0.00  0.00    +0.042 A 
ATOM     22  C   UNL     1      -2.368  -2.740  -6.040  0.00  0.00    +0.023 A 
ATOM     23  C   UNL     1      -2.289  -1.459  -5.530  0.00  0.00    +0.047 A 
ATOM     24  C   UNL     1      -2.055  -1.263  -4.178  0.00  0.00    +0.125 A 
ATOM     25 CL   UNL     1      -2.310  -5.442  -5.863  0.00  0.00    -0.084 Cl
BRANCH  24  26
ATOM     26  O   UNL     1      -1.983  -0.004  -3.675  0.00  0.00    -0.506 OA
ATOM     27  H   UNL     1      -1.093   0.373  -3.686  0.00  0.00    +0.292 HD
ENDBRANCH  24  26
ENDBRANCH  17  19
ENDBRANCH  15  16
ENDBRANCH   6  15
TORSDOF 5
