REMARK  Name = ZINC09043918
REMARK  7 active torsions:
REMARK  status: ('A' for Active; 'I' for Inactive)
REMARK    1  A    between atoms: C_1  and  C_2
REMARK    2  A    between atoms: C_2  and  C_3
REMARK    3  A    between atoms: C_3  and  C_4
REMARK    4  A    between atoms: C_4  and  C_5
REMARK    5  A    between atoms: C_9  and  N_15
REMARK    6  A    between atoms: C_17  and  C_20
REMARK    7  A    between atoms: C_17  and  C_21
REMARK                            x       y       z     vdW  Elec       q    Type
REMARK                         _______ _______ _______ _____ _____    ______ ____
ROOT
ATOM      1  C   UNL     1       1.444  -2.513  -2.505  0.00  0.00    +0.049 A 
ATOM      2  C   UNL     1       0.688  -2.735  -3.660  0.00  0.00    +0.003 A 
ATOM      3  C   UNL     1       1.294  -3.170  -4.798  0.00  0.00    -0.024 A 
ATOM      4  C   UNL     1       2.683  -3.396  -4.775  0.00  0.00    +0.063 A 
ATOM      5  C   UNL     1       3.624  -3.834  -5.704  0.00  0.00    +0.121 A 
ATOM      6  N   UNL     1       4.819  -3.850  -5.092  0.00  0.00    -0.262 N 
ATOM      7  H   UNL     1       5.654  -4.115  -5.508  0.00  0.00    +0.190 HD
ATOM      8  N   UNL     1       4.683  -3.428  -3.765  0.00  0.00    -0.152 NA
ATOM      9  C   UNL     1       3.417  -3.144  -3.525  0.00  0.00    +0.183 A 
ATOM     10  N   UNL     1       2.737  -2.704  -2.454  0.00  0.00    -0.230 NA
ATOM     11  C   UNL     1       0.524  -3.407  -6.069  0.00  0.00    +0.070 C 
ATOM     12  C   UNL     1      -0.971  -3.503  -5.761  0.00  0.00    +0.068 C 
ATOM     13  O   UNL     1      -1.331  -2.393  -4.930  0.00  0.00    -0.369 OA
ATOM     14  C   UNL     1      -0.797  -2.484  -3.610  0.00  0.00    +0.197 C 
ATOM     15  C   UNL     1      -1.263  -4.813  -5.026  0.00  0.00    +0.041 C 
ATOM     16  C   UNL     1      -1.771  -3.453  -7.064  0.00  0.00    +0.041 C 
ENDROOT
BRANCH   5  17
ATOM     17  N   UNL     1       3.373  -4.187  -7.019  0.00  0.00    -0.343 N 
ATOM     18  H   UNL     1       2.470  -4.142  -7.369  0.00  0.00    +0.144 HD
ATOM     19  H   UNL     1       4.101  -4.481  -7.589  0.00  0.00    +0.144 HD
ENDBRANCH   5  17
BRANCH   1  20
ATOM     20  C   UNL     1       0.739  -2.027  -1.265  0.00  0.00    +0.056 C 
BRANCH  20  21
ATOM     21  C   UNL     1       0.718  -0.497  -1.257  0.00  0.00    +0.006 C 
BRANCH  21  23
ATOM     22  C   UNL     1      -0.019   1.526   0.010  0.00  0.00    +0.004 C 
ATOM     23  C   UNL     1       0.002  -0.004   0.002  0.00  0.00    -0.003 C 
ENDBRANCH  21  23
ENDBRANCH  20  21
ENDBRANCH   1  20
TORSDOF 4
