REMARK  Name = ZINC50091946
REMARK  13 active torsions:
REMARK  status: ('A' for Active; 'I' for Inactive)
REMARK    1  A    between atoms: C_1  and  C_2
REMARK    2  A    between atoms: C_2  and  C_3
REMARK    3  A    between atoms: C_3  and  N_4
REMARK    4  A    between atoms: N_4  and  C_5
REMARK    5  A    between atoms: N_4  and  C_14
REMARK    6  A    between atoms: C_5  and  C_6
REMARK    7  A    between atoms: C_8  and  C_13
REMARK    8  A    between atoms: C_10  and  C_12
REMARK    9  A    between atoms: C_14  and  C_15
REMARK   10  A    between atoms: C_14  and  C_16
REMARK   11  A    between atoms: C_14  and  C_18
REMARK   12  A    between atoms: C_16  and  C_17
REMARK   13  A    between atoms: C_18  and  N_19
REMARK                            x       y       z     vdW  Elec       q    Type
REMARK                         _______ _______ _______ _____ _____    ______ ____
ROOT
ATOM      1  N   UNL     1       0.772  -2.345   1.501  0.00  0.00    +0.385 N 
ATOM      2  H   UNL     1      -0.207  -2.586   1.542  0.00  0.00    -0.081 HD
ENDROOT
BRANCH   1   3
ATOM      3  C   UNL     1       1.429  -2.752   2.750  0.00  0.00    -0.084 C 
ATOM      4  C   UNL     1       2.885  -2.280   2.738  0.00  0.00    -0.012 C 
BRANCH   3   5
ATOM      5  C   UNL     1       1.389  -4.276   2.875  0.00  0.00    -0.017 C 
ATOM      6  C   UNL     1       2.074  -4.700   4.176  0.00  0.00    +0.002 C 
ENDBRANCH   3   5
BRANCH   3   7
ATOM      7  C   UNL     1       0.699  -2.123   3.939  0.00  0.00    -0.099 C 
BRANCH   7   8
ATOM      8  N   UNL     1      -0.717  -2.511   3.904  0.00  0.00    +0.377 N 
ATOM      9  H   UNL     1      -1.215  -2.033   4.640  0.00  0.00    -0.090 HD
ATOM     10  H   UNL     1      -1.113  -2.259   3.011  0.00  0.00    -0.090 HD
ATOM     11  H   UNL     1      -0.796  -3.508   4.038  0.00  0.00    -0.090 HD
ENDBRANCH   7   8
ENDBRANCH   3   7
ENDBRANCH   1   3
BRANCH   1  12
ATOM     12  C   UNL     1       0.912  -0.894   1.324  0.00  0.00    -0.078 C 
BRANCH  12  14
ATOM     13  C   UNL     1      -0.154   1.157   0.374  0.00  0.00    +0.002 C 
ATOM     14  C   UNL     1      -0.266  -0.364   0.504  0.00  0.00    -0.022 C 
ENDBRANCH  12  14
ENDBRANCH   1  12
BRANCH   1  15
ATOM     15  C   UNL     1       1.400  -3.039   0.369  0.00  0.00    -0.042 C 
BRANCH  15  16
ATOM     16  C   UNL     1       0.635  -2.735  -0.894  0.00  0.00    -0.063 A 
ATOM     17  C   UNL     1      -0.511  -3.445  -1.196  0.00  0.00    +0.005 A 
ATOM     18  C   UNL     1      -1.212  -3.166  -2.354  0.00  0.00    -0.050 A 
ATOM     19  C   UNL     1      -0.767  -2.175  -3.209  0.00  0.00    +0.006 A 
ATOM     20  C   UNL     1       0.379  -1.464  -2.907  0.00  0.00    -0.050 A 
ATOM     21  C   UNL     1       1.077  -1.741  -1.746  0.00  0.00    +0.005 A 
ATOM     22  C   UNL     1       0.864  -0.385  -3.840  0.00  0.00    +0.044 C 
ATOM     23  C   UNL     1      -2.462  -3.941  -2.684  0.00  0.00    +0.044 C 
ENDBRANCH  15  16
ENDBRANCH   1  15
TORSDOF 8
