REMARK  Name = ZINC42718573
REMARK  8 active torsions:
REMARK  status: ('A' for Active; 'I' for Inactive)
REMARK    1  A    between atoms: C_1  and  C_2
REMARK    2  A    between atoms: C_2  and  O_3
REMARK    3  A    between atoms: O_3  and  C_4
REMARK    4  A    between atoms: C_4  and  C_6
REMARK    5  A    between atoms: C_13  and  C_20
REMARK    6  A    between atoms: C_14  and  C_19
REMARK    7  A    between atoms: C_16  and  C_18
REMARK    8  A    between atoms: C_20  and  N_22
REMARK                            x       y       z     vdW  Elec       q    Type
REMARK                         _______ _______ _______ _____ _____    ______ ____
ROOT
ATOM      1  C   UNL     1       1.487  -2.367  -2.587  0.00  0.00    +0.183 C 
ATOM      2  C   UNL     1       2.964  -1.921  -2.603  0.00  0.00    +0.035 C 
ATOM      3  C   UNL     1       3.705  -3.190  -3.098  0.00  0.00    +0.021 C 
ATOM      4  C   UNL     1       2.868  -4.316  -2.442  0.00  0.00    +0.107 C 
ATOM      5  N   UNL     1       1.472  -3.835  -2.506  0.00  0.00    -0.303 N 
ATOM      6  C   UNL     1       0.340  -4.631  -2.490  0.00  0.00    +0.109 A 
ATOM      7  C   UNL     1      -0.274  -4.997  -3.701  0.00  0.00    +0.044 A 
ATOM      8  C   UNL     1      -1.417  -5.803  -3.660  0.00  0.00    -0.036 A 
ATOM      9  C   UNL     1      -1.894  -6.204  -2.424  0.00  0.00    +0.025 A 
ATOM     10  C   UNL     1      -1.235  -5.803  -1.276  0.00  0.00    +0.015 A 
ATOM     11  N   UNL     1      -0.156  -5.048  -1.336  0.00  0.00    -0.346 N 
ATOM     12  C   UNL     1      -1.757  -6.242   0.068  0.00  0.00    +0.063 C 
ATOM     13  C   UNL     1      -2.113  -6.222  -4.929  0.00  0.00    +0.044 C 
ATOM     14  H   UNL     1       0.284  -4.787  -0.512  0.00  0.00    +0.167 HD
ENDROOT
BRANCH   1  15
ATOM     15  C   UNL     1       0.786  -1.781  -1.389  0.00  0.00    +0.328 C 
ATOM     16  O   UNL     1       0.314  -2.509  -0.548  0.00  0.00    -0.249 OA
BRANCH  15  17
ATOM     17  O   UNL     1       0.688  -0.449  -1.254  0.00  0.00    -0.464 OA
BRANCH  17  19
ATOM     18  C   UNL     1      -0.002   1.568  -0.114  0.00  0.00    +0.048 C 
ATOM     19  C   UNL     1       0.011   0.038  -0.094  0.00  0.00    +0.229 C 
ENDBRANCH  17  19
ENDBRANCH  15  17
ENDBRANCH   1  15
BRANCH   7  20
ATOM     20  C   UNL     1       0.276  -4.541  -4.989  0.00  0.00    +0.080 C 
ATOM     21  S   UNL     1       1.354  -5.543  -5.863  0.00  0.00    -0.035 S 
BRANCH  20  22
ATOM     22  N   UNL     1      -0.069  -3.334  -5.479  0.00  0.00    -0.352 N 
ATOM     23  H   UNL     1      -0.735  -2.797  -5.022  0.00  0.00    +0.143 HD
ATOM     24  H   UNL     1       0.348  -3.002  -6.290  0.00  0.00    +0.143 HD
ENDBRANCH  20  22
ENDBRANCH   7  20
TORSDOF 5
