REMARK  Name = ZINC67118099
REMARK  5 active torsions:
REMARK  status: ('A' for Active; 'I' for Inactive)
REMARK    1  A    between atoms: C_1  and  O_2
REMARK    2  A    between atoms: O_2  and  C_3
REMARK    3  A    between atoms: C_6  and  C_8
REMARK    4  A    between atoms: C_8  and  N_9
REMARK    5  A    between atoms: C_13  and  C_15
REMARK                            x       y       z     vdW  Elec       q    Type
REMARK                         _______ _______ _______ _____ _____    ______ ____
ROOT
ATOM      1  N   UNL     1       2.009  -4.449  -3.469  0.00  0.00    +0.393 N 
ATOM      2  C   UNL     1       1.211  -4.048  -4.648  0.00  0.00    -0.077 C 
ATOM      3  C   UNL     1       1.426  -5.186  -5.676  0.00  0.00    -0.020 C 
ATOM      4  C   UNL     1       1.465  -6.436  -4.757  0.00  0.00    -0.008 C 
ATOM      5  C   UNL     1       2.175  -5.913  -3.490  0.00  0.00    +0.020 C 
ATOM      6  H   UNL     1       2.914  -4.003  -3.507  0.00  0.00    -0.080 HD
ENDROOT
BRANCH   5   7
ATOM      7  C   UNL     1       3.641  -6.262  -3.543  0.00  0.00    +0.202 C 
ATOM      8  O   UNL     1       4.473  -5.381  -3.562  0.00  0.00    -0.277 OA
ATOM      9  N   UNL     1       4.025  -7.554  -3.570  0.00  0.00    -0.301 N 
ATOM     10  C   UNL     1       3.012  -8.610  -3.554  0.00  0.00    +0.118 C 
ATOM     11  C   UNL     1       3.048  -9.372  -4.883  0.00  0.00    +0.088 C 
ATOM     12  S   UNL     1       4.724 -10.030  -5.133  0.00  0.00    -0.158 S 
ATOM     13  C   UNL     1       5.777  -8.558  -4.953  0.00  0.00    +0.088 C 
ATOM     14  C   UNL     1       5.451  -7.882  -3.622  0.00  0.00    +0.118 C 
ENDBRANCH   5   7
BRANCH   1  15
ATOM     15  C   UNL     1       1.311  -4.048  -2.240  0.00  0.00    +0.020 C 
BRANCH  15  19
ATOM     16  C   UNL     1       0.600  -0.601  -1.046  0.00  0.00    +0.406 C 
ATOM     17  O   UNL     1       1.092   0.072  -1.929  0.00  0.00    -0.226 OA
ATOM     18  N   UNL     1       0.653  -1.946  -1.114  0.00  0.00    -0.223 N 
ATOM     19  C   UNL     1       1.252  -2.544  -2.163  0.00  0.00    +0.205 C 
ATOM     20  O   UNL     1       1.742  -1.872  -3.045  0.00  0.00    -0.277 OA
ATOM     21  H   UNL     1       0.260  -2.484  -0.409  0.00  0.00    +0.161 HD
BRANCH  16  23
ATOM     22  C   UNL     1      -0.017   1.425   0.010  0.00  0.00    +0.282 C 
ATOM     23  O   UNL     1       0.002  -0.004   0.002  0.00  0.00    -0.453 OA
ENDBRANCH  16  23
ENDBRANCH  15  19
ENDBRANCH   1  15
TORSDOF 4
