REMARK  Name = ZINC45135693
REMARK  5 active torsions:
REMARK  status: ('A' for Active; 'I' for Inactive)
REMARK    1  A    between atoms: C_1  and  C_2
REMARK    2  A    between atoms: C_2  and  C_21
REMARK    3  A    between atoms: C_4  and  N_6
REMARK    4  A    between atoms: N_6  and  C_7
REMARK    5  A    between atoms: C_12  and  N_13
REMARK                            x       y       z     vdW  Elec       q    Type
REMARK                         _______ _______ _______ _____ _____    ______ ____
ROOT
ATOM      1  C   UNL     1       2.399  -0.336   2.937  0.00  0.00    +0.060 A 
ATOM      2  C   UNL     1       2.818  -1.652   2.788  0.00  0.00    +0.052 A 
ATOM      3  C   UNL     1       3.827  -2.147   3.596  0.00  0.00    +0.078 A 
ATOM      4  C   UNL     1       4.419  -1.327   4.556  0.00  0.00    +0.145 A 
ATOM      5  C   UNL     1       3.998  -0.017   4.701  0.00  0.00    +0.082 A 
ATOM      6  C   UNL     1       2.994   0.480   3.890  0.00  0.00    +0.150 A 
ATOM      7  O   UNL     1       5.408  -1.828   5.346  0.00  0.00    -0.481 OA
ATOM      8  C   UNL     1       5.319  -3.214   5.685  0.00  0.00    +0.325 C 
ATOM      9  C   UNL     1       5.008  -4.019   4.448  0.00  0.00    +0.255 C 
ATOM     10  O   UNL     1       5.424  -5.154   4.340  0.00  0.00    -0.272 OA
ATOM     11  N   UNL     1       4.266  -3.472   3.462  0.00  0.00    -0.280 N 
ATOM     12  H   UNL     1       4.039  -3.988   2.672  0.00  0.00    +0.155 HD
ENDROOT
BRANCH   6  13
ATOM     13  N   UNL     1       2.549   1.883   4.042  0.00  0.00    +0.058 N 
ATOM     14  O   UNL     1       3.356   2.751   4.282  0.00  0.00    -0.126 OA
ATOM     15  O   UNL     1       1.378   2.162   3.926  0.00  0.00    -0.126 OA
ENDBRANCH   6  13
BRANCH   1  16
ATOM     16  N   UNL     1       1.379   0.170   2.122  0.00  0.00    -0.339 N 
ATOM     17  H   UNL     1       1.030   1.061   2.279  0.00  0.00    +0.146 HD
BRANCH  16  21
ATOM     18  C   UNL     1       0.172   1.614  -0.101  0.00  0.00    +0.013 C 
ATOM     19  C   UNL     1       0.201   0.085  -0.149  0.00  0.00    -0.015 C 
ATOM     20  C   UNL     1      -0.678  -0.669   0.850  0.00  0.00    +0.031 C 
ATOM     21  C   UNL     1       0.841  -0.647   1.032  0.00  0.00    +0.077 C 
ATOM     22  C   UNL     1       0.376  -0.528  -1.540  0.00  0.00    +0.013 C 
ENDBRANCH  16  21
ENDBRANCH   1  16
TORSDOF 3
