REMARK  Name = ZINC51266133
REMARK  4 active torsions:
REMARK  status: ('A' for Active; 'I' for Inactive)
REMARK    1  A    between atoms: C_4  and  C_8
REMARK    2  A    between atoms: C_8  and  C_10
REMARK    3  A    between atoms: C_8  and  O_22
REMARK    4  A    between atoms: C_10  and  N_11
REMARK                            x       y       z     vdW  Elec       q    Type
REMARK                         _______ _______ _______ _____ _____    ______ ____
ROOT
ATOM      1  C   UNL     1       3.713  -0.709  -0.038  0.00  0.00    +0.165 C 
ENDROOT
BRANCH   1   5
ATOM      2  C   UNL     1      -0.017   1.380   0.010  0.00  0.00    +0.041 A 
ATOM      3  C   UNL     1       1.171   2.087   0.002  0.00  0.00    +0.041 A 
ATOM      4  C   UNL     1       2.379   1.412  -0.013  0.00  0.00    +0.129 A 
ATOM      5  C   UNL     1       2.397   0.027  -0.021  0.00  0.00    +0.020 A 
ATOM      6  C   UNL     1       1.210  -0.680  -0.013  0.00  0.00    +0.047 A 
ATOM      7  C   UNL     1       0.002  -0.004   0.002  0.00  0.00    +0.124 A 
ATOM      8  F   UNL     1      -1.159  -0.695   0.009  0.00  0.00    -0.205 F 
ATOM      9  F   UNL     1       3.539   2.103  -0.021  0.00  0.00    -0.205 F 
ENDBRANCH   1   5
BRANCH   1  10
ATOM     10  O   UNL     1       3.526  -2.004  -0.612  0.00  0.00    -0.386 OA
ATOM     11  H   UNL     1       2.895  -2.559  -0.135  0.00  0.00    +0.210 HD
ENDBRANCH   1  10
BRANCH   1  12
ATOM     12  C   UNL     1       4.233  -0.856   1.393  0.00  0.00    +0.154 C 
BRANCH  12  13
ATOM     13  N   UNL     1       5.566  -1.464   1.368  0.00  0.00    -0.222 N 
ATOM     14  C   UNL     1       5.796  -2.795   1.413  0.00  0.00    +0.244 C 
ATOM     15  O   UNL     1       4.973  -3.684   1.402  0.00  0.00    -0.273 OA
ATOM     16  C   UNL     1       7.296  -2.938   1.481  0.00  0.00    +0.164 C 
ATOM     17  C   UNL     1       7.851  -3.825   0.356  0.00  0.00    +0.033 C 
ATOM     18  C   UNL     1       9.114  -3.079  -0.136  0.00  0.00    +0.021 C 
ATOM     19  C   UNL     1       9.167  -1.786   0.715  0.00  0.00    +0.110 C 
ATOM     20  N   UNL     1       7.770  -1.567   1.153  0.00  0.00    -0.274 N 
ATOM     21  C   UNL     1       6.713  -0.769   1.291  0.00  0.00    +0.312 C 
ATOM     22  O   UNL     1       6.778   0.444   1.345  0.00  0.00    -0.252 OA
ENDBRANCH  12  13
ENDBRANCH   1  12
TORSDOF 4
