REMARK  Name = ZINC39681741
REMARK  4 active torsions:
REMARK  status: ('A' for Active; 'I' for Inactive)
REMARK    1  A    between atoms: C_6  and  C_7
REMARK    2  A    between atoms: C_11  and  C_20
REMARK    3  A    between atoms: N_22  and  C_23
REMARK    4  A    between atoms: C_23  and  C_24
REMARK                            x       y       z     vdW  Elec       q    Type
REMARK                         _______ _______ _______ _____ _____    ______ ____
ROOT
ATOM      1  C   UNL     1      -1.264  -0.763   0.011  0.00  0.00    +0.247 C 
ATOM      2  O   UNL     1      -2.322  -0.176   0.132  0.00  0.00    -0.270 OA
ATOM      3  N   UNL     1      -1.246  -2.106  -0.099  0.00  0.00    -0.296 N 
ATOM      4  C   UNL     1      -0.064  -2.999  -0.125  0.00  0.00    +0.121 C 
ATOM      5  C   UNL     1      -0.487  -4.230   0.708  0.00  0.00    +0.100 C 
ATOM      6  C   UNL     1      -2.023  -4.241   0.640  0.00  0.00    -0.004 C 
ATOM      7  C   UNL     1      -2.405  -3.023  -0.214  0.00  0.00    +0.115 C 
ATOM      8  C   UNL     1      -2.615  -4.103   2.040  0.00  0.00    -0.010 C 
ATOM      9  C   UNL     1      -4.142  -4.173   1.952  0.00  0.00    -0.082 C 
ATOM     10  N   UNL     1      -4.541  -5.454   1.355  0.00  0.00    +0.379 N 
ATOM     11  C   UNL     1      -4.046  -5.539  -0.024  0.00  0.00    -0.082 C 
ATOM     12  C   UNL     1      -2.514  -5.526  -0.020  0.00  0.00    -0.010 C 
ATOM     13  H   UNL     1      -4.154  -6.211   1.898  0.00  0.00    -0.086 HD
ATOM     14  H   UNL     1      -5.547  -5.524   1.355  0.00  0.00    -0.086 HD
ENDROOT
BRANCH   1  20
ATOM     15  C   UNL     1       1.129  -0.539  -0.644  0.00  0.00    +0.014 A 
ATOM     16  C   UNL     1       2.309   0.175  -0.666  0.00  0.00    +0.021 A 
ATOM     17  C   UNL     1       2.378   1.423  -0.068  0.00  0.00    +0.041 A 
ATOM     18  C   UNL     1       1.264   1.960   0.556  0.00  0.00    +0.021 A 
ATOM     19  C   UNL     1       0.079   1.256   0.585  0.00  0.00    +0.014 A 
ATOM     20  C   UNL     1       0.004  -0.002  -0.017  0.00  0.00    +0.037 A 
ATOM     21 CL   UNL     1       3.866   2.316  -0.101  0.00  0.00    -0.084 Cl
ENDBRANCH   1  20
BRANCH   5  22
ATOM     22  C   UNL     1       0.076  -5.491   0.104  0.00  0.00    +0.218 C 
ATOM     23  O   UNL     1       0.347  -5.529  -1.078  0.00  0.00    -0.275 OA
ATOM     24  N   UNL     1       0.279  -6.576   0.877  0.00  0.00    -0.313 N 
ATOM     25  H   UNL     1       0.063  -6.546   1.822  0.00  0.00    +0.149 HD
BRANCH  24  26
ATOM     26  C   UNL     1       0.826  -7.802   0.290  0.00  0.00    +0.137 C 
BRANCH  26  27
ATOM     27  C   UNL     1       0.956  -8.873   1.375  0.00  0.00    +0.232 C 
ATOM     28  F   UNL     1       1.479 -10.043   0.814  0.00  0.00    -0.247 F 
ENDBRANCH  26  27
ENDBRANCH  24  26
ENDBRANCH   5  22
TORSDOF 4
