REMARK  Name = ZINC50612497
REMARK  8 active torsions:
REMARK  status: ('A' for Active; 'I' for Inactive)
REMARK    1  A    between atoms: C_1  and  C_2
REMARK    2  A    between atoms: C_2  and  C_3
REMARK    3  A    between atoms: C_2  and  C_4
REMARK    4  A    between atoms: C_4  and  N_5
REMARK    5  A    between atoms: N_8  and  N_9
REMARK    6  A    between atoms: C_10  and  C_12
REMARK    7  A    between atoms: C_15  and  C_17
REMARK    8  A    between atoms: C_20  and  N_23
REMARK                            x       y       z     vdW  Elec       q    Type
REMARK                         _______ _______ _______ _____ _____    ______ ____
ROOT
ATOM      1  N   UNL     1      -1.435   0.569   4.652  0.00  0.00    -0.228 N 
ATOM      2  C   UNL     1      -2.125   0.910   5.758  0.00  0.00    +0.279 C 
ATOM      3  O   UNL     1      -1.705   0.600   6.856  0.00  0.00    -0.267 OA
ATOM      4  H   UNL     1      -1.769   0.817   3.776  0.00  0.00    +0.173 HD
ENDROOT
BRANCH   1   8
ATOM      5  N   UNL     1      -0.008  -0.140   2.444  0.00  0.00    -0.298 N 
ATOM      6  C   UNL     1       0.457  -0.484   3.661  0.00  0.00    +0.316 C 
ATOM      7  O   UNL     1       1.499  -1.102   3.762  0.00  0.00    -0.251 OA
ATOM      8  N   UNL     1      -0.234  -0.143   4.767  0.00  0.00    -0.218 N 
ATOM      9  H   UNL     1      -0.840   0.353   2.364  0.00  0.00    +0.150 HD
ATOM     10  H   UNL     1       0.101  -0.391   5.644  0.00  0.00    +0.174 HD
BRANCH   5  11
ATOM     11  C   UNL     1       0.742  -0.511   1.242  0.00  0.00    +0.108 C 
BRANCH  11  13
ATOM     12  C   UNL     1      -0.019   1.526   0.010  0.00  0.00    +0.009 C 
ATOM     13  C   UNL     1       0.002  -0.004   0.002  0.00  0.00    -0.000 C 
ATOM     14  C   UNL     1       0.718  -0.497  -1.257  0.00  0.00    +0.009 C 
ENDBRANCH  11  13
ENDBRANCH   5  11
ENDBRANCH   1   8
BRANCH   2  15
ATOM     15  C   UNL     1      -3.388   1.659   5.636  0.00  0.00    +0.135 A 
ATOM     16  C   UNL     1      -4.094   2.015   6.755  0.00  0.00    +0.080 A 
ATOM     17  S   UNL     1      -5.417   2.828   6.105  0.00  0.00    -0.075 S 
ATOM     18  C   UNL     1      -4.991   2.670   4.380  0.00  0.00    +0.109 A 
ATOM     19  N   UNL     1      -3.853   2.003   4.444  0.00  0.00    -0.234 NA
BRANCH  18  20
ATOM     20  C   UNL     1      -5.719   3.161   3.190  0.00  0.00    +0.007 A 
ATOM     21  C   UNL     1      -5.213   2.925   1.912  0.00  0.00    +0.013 A 
ATOM     22  C   UNL     1      -5.897   3.386   0.806  0.00  0.00    +0.033 A 
ATOM     23  C   UNL     1      -7.083   4.082   0.963  0.00  0.00    +0.126 A 
ATOM     24  C   UNL     1      -7.590   4.320   2.228  0.00  0.00    +0.033 A 
ATOM     25  C   UNL     1      -6.918   3.859   3.341  0.00  0.00    +0.013 A 
BRANCH  23  26
ATOM     26  N   UNL     1      -7.811   4.574  -0.228  0.00  0.00    +0.056 N 
ATOM     27  O   UNL     1      -7.370   4.368  -1.335  0.00  0.00    -0.126 OA
ATOM     28  O   UNL     1      -8.848   5.182  -0.094  0.00  0.00    -0.126 OA
ENDBRANCH  23  26
ENDBRANCH  18  20
ENDBRANCH   2  15
TORSDOF 6
