REMARK  Name = ZINC43740375
REMARK  11 active torsions:
REMARK  status: ('A' for Active; 'I' for Inactive)
REMARK    1  A    between atoms: C_1  and  C_2
REMARK    2  A    between atoms: C_13  and  C_14
REMARK    3  A    between atoms: C_13  and  O_15
REMARK    4  A    between atoms: N_21  and  O_22
REMARK    5  A    between atoms: O_22  and  C_23
REMARK    6  A    between atoms: C_23  and  C_24
REMARK    7  A    between atoms: N_26  and  CA_27
REMARK    8  A    between atoms: CA_27  and  CB_29
REMARK    9  A    between atoms: CA_27  and  C_36
REMARK   10  A    between atoms: CB_29  and  CG_30
REMARK   11  A    between atoms: C_41  and  C_42
REMARK                            x       y       z     vdW  Elec       q    Type
REMARK                         _______ _______ _______ _____ _____    ______ ____
ROOT
ATOM      1  C   UNK A   0      -0.019   1.526   0.010  0.00  0.00    +0.014 C 
ATOM      2  C   UNK A   0       0.002  -0.004   0.002  0.00  0.00    -0.000 C 
ATOM      3  C   UNK A   0       0.494  -0.558  -1.338  0.00  0.00    +0.010 C 
ATOM      4  C   UNK A   0       1.989  -0.305  -1.508  0.00  0.00    +0.005 C 
ATOM      5  C   UNK A   0       2.744  -1.058  -0.406  0.00  0.00    +0.006 C 
ATOM      6  C   UNK A   0       2.320  -0.497   0.946  0.00  0.00    -0.003 C 
ATOM      7  C   UNK A   0       0.840  -0.572   1.161  0.00  0.00    +0.001 C 
ATOM      8  C   UNK A   0       0.342  -2.024   1.287  0.00  0.00    +0.007 C 
ATOM      9  C   UNK A   0      -1.182  -1.905   1.055  0.00  0.00    +0.035 C 
ATOM     10  C   UNK A   0      -1.405  -0.606   0.259  0.00  0.00    +0.069 C 
ATOM     11  C   UNK A   0      -2.095  -0.916  -1.071  0.00  0.00    +0.042 C 
ATOM     12  C   UNK A   0       2.801   0.957   1.036  0.00  0.00    +0.008 C 
ATOM     13  C   UNK A   0       4.317   0.928   1.241  0.00  0.00    +0.032 C 
ATOM     14  C   UNK A   0       4.964   0.018   0.239  0.00  0.00    -0.058 C 
ATOM     15  C   UNK A   0       6.307   0.066   0.109  0.00  0.00    +0.031 C 
ATOM     16  C   UNK A   0       6.875  -0.910  -0.869  0.00  0.00    +0.102 C 
ATOM     17  N   UNK A   0       7.833  -0.599  -1.699  0.00  0.00    -0.085 NA
ATOM     18  C   UNK A   0       6.259  -2.272  -0.823  0.00  0.00    +0.027 C 
ATOM     19  C   UNK A   0       4.919  -2.284  -0.683  0.00  0.00    -0.014 C 
ATOM     20  C   UNK A   0       4.229  -0.934  -0.612  0.00  0.00    +0.011 C 
ATOM     21  C   UNK A   0       4.380  -0.367  -2.025  0.00  0.00    +0.020 C 
ENDROOT
BRANCH  10  22
ATOM     22  O   UNK A   0      -2.197   0.307   1.022  0.00  0.00    -0.388 OA
ATOM     23  H   UNK A   0      -3.089  -0.012   1.215  0.00  0.00    +0.210 HD
ENDBRANCH  10  22
BRANCH  17  24
ATOM     24  O   UNK A   0       8.330  -1.569  -2.603  0.00  0.00    -0.384 OA
BRANCH  24  25
ATOM     25  C   UNK A   0       9.376  -1.092  -3.451  0.00  0.00    +0.358 C 
BRANCH  25  26
ATOM     26  C   UNK A   0       9.826  -2.201  -4.366  0.00  0.00    +0.254 C 
ATOM     27  O   UNK A   0       9.303  -3.293  -4.299  0.00  0.00    -0.272 OA
ATOM     28  N   PHE A   1      10.811  -1.980  -5.260  0.00  0.00    -0.299 N 
ATOM     29  H   PHE A   1      11.230  -1.107  -5.313  0.00  0.00    +0.150 HD
BRANCH  28  30
ATOM     30  CA  PHE A   1      11.248  -3.058  -6.150  0.00  0.00    +0.191 C 
BRANCH  30  31
ATOM     31  C   PHE A   1      12.276  -3.905  -5.444  0.00  0.00    +0.376 C 
ATOM     32  O   PHE A   1      12.377  -5.090  -5.713  0.00  0.00    -0.244 OA
ATOM     33  OXT PHE A   1      13.006  -3.406  -4.606  0.00  0.00    -0.244 OA
ENDBRANCH  30  31
BRANCH  30  34
ATOM     34  CB  PHE A   1      11.864  -2.457  -7.415  0.00  0.00    +0.069 C 
BRANCH  34  35
ATOM     35  CG  PHE A   1      10.805  -1.711  -8.184  0.00  0.00    -0.045 A 
ATOM     36  CD2 PHE A   1      10.050  -2.369  -9.136  0.00  0.00    +0.004 A 
ATOM     37  CE2 PHE A   1       9.078  -1.685  -9.841  0.00  0.00    +0.000 A 
ATOM     38  CZ  PHE A   1       8.860  -0.342  -9.594  0.00  0.00    +0.000 A 
ATOM     39  CE1 PHE A   1       9.615   0.316  -8.641  0.00  0.00    +0.000 A 
ATOM     40  CD1 PHE A   1      10.584  -0.369  -7.932  0.00  0.00    +0.004 A 
ENDBRANCH  34  35
ENDBRANCH  30  34
ENDBRANCH  28  30
ENDBRANCH  25  26
ENDBRANCH  24  25
ENDBRANCH  17  24
TORSDOF 8
