REMARK  Name = ZINC42959833
REMARK  7 active torsions:
REMARK  status: ('A' for Active; 'I' for Inactive)
REMARK    1  A    between atoms: C_1  and  C_2
REMARK    2  A    between atoms: C_2  and  C_4
REMARK    3  A    between atoms: C_2  and  N_23
REMARK    4  A    between atoms: C_4  and  C_6
REMARK    5  A    between atoms: C_4  and  S_13
REMARK    6  A    between atoms: S_13  and  C_14
REMARK    7  A    between atoms: C_20  and  N_22
REMARK                            x       y       z     vdW  Elec       q    Type
REMARK                         _______ _______ _______ _____ _____    ______ ____
ROOT
ATOM      1  C   UNL     1       0.773  -0.518  -1.141  0.00  0.00    +0.069 C 
ENDROOT
BRANCH   1   2
ATOM      2  C   UNL     1       0.503  -1.999  -1.211  0.00  0.00    -0.036 A 
ATOM      3  C   UNL     1      -0.799  -2.463  -1.228  0.00  0.00    +0.006 A 
ATOM      4  C   UNL     1      -1.047  -3.822  -1.293  0.00  0.00    +0.015 A 
ATOM      5  C   UNL     1       0.007  -4.716  -1.339  0.00  0.00    +0.018 A 
ATOM      6  C   UNL     1       1.310  -4.250  -1.322  0.00  0.00    +0.015 A 
ATOM      7  C   UNL     1       1.557  -2.892  -1.263  0.00  0.00    +0.006 A 
ATOM      8 BR   UNL     1      -0.332  -6.574  -1.427  0.00  0.00    -0.050 Br
ENDBRANCH   1   2
BRANCH   1  10
ATOM      9  C   UNL     1      -0.943  -0.210   0.649  0.00  0.00    -0.013 C 
ATOM     10  C   UNL     1       0.532  -0.022   0.286  0.00  0.00    -0.060 C 
BRANCH  10  11
ATOM     11  N   UNL     1       1.367  -0.789   1.219  0.00  0.00    +0.381 N 
ATOM     12  H   UNL     1       1.175  -1.774   1.111  0.00  0.00    -0.090 HD
ATOM     13  H   UNL     1       2.341  -0.614   1.021  0.00  0.00    -0.090 HD
ATOM     14  H   UNL     1       1.161  -0.508   2.165  0.00  0.00    -0.090 HD
ENDBRANCH  10  11
ENDBRANCH   1  10
BRANCH   1  15
ATOM     15  S   UNL     1      -0.338   0.354  -2.280  0.00  0.00    -0.081 S 
BRANCH  15  16
ATOM     16  C   UNL     1       0.262   2.010  -2.277  0.00  0.00    +0.171 A 
ATOM     17  N   UNL     1      -0.424   2.970  -2.957  0.00  0.00    -0.302 N 
ATOM     18  H   UNL     1      -1.235   2.738  -3.436  0.00  0.00    +0.171 HD
ATOM     19  C   UNL     1       0.021   4.244  -2.965  0.00  0.00    +0.254 A 
ATOM     20  O   UNL     1      -0.589   5.111  -3.572  0.00  0.00    -0.268 OA
ATOM     21  C   UNL     1       1.191   4.555  -2.266  0.00  0.00    +0.113 A 
ATOM     22  C   UNL     1       1.854   3.541  -1.589  0.00  0.00    +0.124 A 
ATOM     23  N   UNL     1       1.363   2.297  -1.612  0.00  0.00    -0.209 NA
BRANCH  22  24
ATOM     24  N   UNL     1       3.012   3.816  -0.890  0.00  0.00    -0.343 N 
ATOM     25  H   UNL     1       3.364   4.720  -0.872  0.00  0.00    +0.144 HD
ATOM     26  H   UNL     1       3.474   3.106  -0.418  0.00  0.00    +0.144 HD
ENDBRANCH  22  24
ENDBRANCH  15  16
ENDBRANCH   1  15
TORSDOF 6
