REMARK  Name = ZINC64617010
REMARK  10 active torsions:
REMARK  status: ('A' for Active; 'I' for Inactive)
REMARK    1  A    between atoms: C_1  and  C_2
REMARK    2  A    between atoms: C_4  and  N_20
REMARK    3  A    between atoms: C_7  and  N_8
REMARK    4  A    between atoms: N_11  and  C_12
REMARK    5  A    between atoms: C_12  and  C_13
REMARK    6  A    between atoms: N_15  and  C_16
REMARK    7  A    between atoms: C_16  and  C_17
REMARK    8  A    between atoms: C_17  and  C_18
REMARK    9  A    between atoms: C_17  and  C_19
REMARK   10  A    between atoms: N_23  and  C_26
REMARK                            x       y       z     vdW  Elec       q    Type
REMARK                         _______ _______ _______ _____ _____    ______ ____
ROOT
ATOM      1  C   UNL     1      -0.065   1.368  -0.068  0.00  0.00    +0.046 C 
ATOM      2  C   UNL     1      -0.029  -0.137   0.006  0.00  0.00    -0.027 A 
ATOM      3  C   UNL     1      -0.033  -0.885  -1.155  0.00  0.00    +0.028 A 
ATOM      4  C   UNL     1       0.000  -2.272  -1.087  0.00  0.00    +0.030 A 
ATOM      5  C   UNL     1       0.038  -2.906   0.149  0.00  0.00    +0.025 A 
ATOM      6  C   UNL     1       0.042  -2.157   1.309  0.00  0.00    +0.025 A 
ATOM      7  C   UNL     1       0.014  -0.770   1.240  0.00  0.00    +0.038 A 
ENDROOT
BRANCH   4   8
ATOM      8  N   UNL     1      -0.004  -3.030  -2.262  0.00  0.00    -0.333 N 
ATOM      9  C   UNL     1      -0.156  -2.388  -3.577  0.00  0.00    +0.086 C 
ATOM     10  C   UNL     1       0.960  -2.894  -4.497  0.00  0.00    -0.060 C 
ATOM     11  N   UNL     1       0.935  -4.361  -4.534  0.00  0.00    +0.380 N 
ATOM     12  C   UNL     1       1.244  -4.900  -3.203  0.00  0.00    -0.060 C 
ATOM     13  C   UNL     1       0.148  -4.493  -2.220  0.00  0.00    +0.086 C 
ATOM     14  C   UNL     1       1.932  -4.842  -5.499  0.00  0.00    -0.096 C 
ATOM     15  H   UNL     1       0.018  -4.674  -4.816  0.00  0.00    -0.082 HD
ENDBRANCH   4   8
BRANCH   7  16
ATOM     16  N   UNL     1       0.024  -0.010   2.418  0.00  0.00    -0.269 N 
ATOM     17  C   UNL     1      -0.446  -0.539   3.565  0.00  0.00    +0.304 C 
ATOM     18  O   UNL     1      -0.812  -1.698   3.595  0.00  0.00    -0.252 OA
ATOM     19  N   UNL     1      -0.509   0.217   4.679  0.00  0.00    -0.291 N 
ATOM     20  H   UNL     1       0.370   0.896   2.407  0.00  0.00    +0.156 HD
ATOM     21  H   UNL     1      -0.217   1.142   4.655  0.00  0.00    +0.151 HD
BRANCH  19  22
ATOM     22  C   UNL     1      -1.020  -0.357   5.926  0.00  0.00    +0.201 C 
BRANCH  22  23
ATOM     23  C   UNL     1      -0.987   0.688   7.011  0.00  0.00    +0.230 C 
ATOM     24  O   UNL     1      -0.577   1.803   6.767  0.00  0.00    -0.274 OA
ATOM     25  N   UNL     1      -1.413   0.384   8.253  0.00  0.00    -0.314 N 
ATOM     26  H   UNL     1      -1.741  -0.508   8.449  0.00  0.00    +0.149 HD
BRANCH  25  27
ATOM     27  C   UNL     1      -1.380   1.400   9.308  0.00  0.00    +0.107 C 
BRANCH  27  28
ATOM     28  C   UNL     1      -1.914   0.799  10.611  0.00  0.00    -0.000 C 
ATOM     29  C   UNL     1      -1.764   1.820  11.741  0.00  0.00    +0.009 C 
ATOM     30  C   UNL     1      -3.391   0.441  10.440  0.00  0.00    +0.009 C 
ENDBRANCH  27  28
ENDBRANCH  25  27
ENDBRANCH  22  23
ENDBRANCH  19  22
ENDBRANCH   7  16
TORSDOF 6
