REMARK  Name = ZINC15038036
REMARK  7 active torsions:
REMARK  status: ('A' for Active; 'I' for Inactive)
REMARK    1  A    between atoms: C_4  and  O_29
REMARK    2  A    between atoms: C_5  and  C_7
REMARK    3  A    between atoms: N_11  and  C_15
REMARK    4  A    between atoms: C_15  and  C_16
REMARK    5  A    between atoms: C_16  and  C_17
REMARK    6  A    between atoms: N_19  and  C_20
REMARK    7  A    between atoms: C_23  and  C_26
REMARK                            x       y       z     vdW  Elec       q    Type
REMARK                         _______ _______ _______ _____ _____    ______ ____
ROOT
ATOM      1  C   UNL     1       0.755  -2.130  -0.414  0.00  0.00    +0.031 C 
ATOM      2  C   UNL     1      -0.378  -2.819  -0.121  0.00  0.00    +0.077 C 
ATOM      3  C   UNL     1      -0.587  -4.275   0.007  0.00  0.00    +0.258 C 
ATOM      4  O   UNL     1       0.323  -5.068  -0.154  0.00  0.00    -0.269 OA
ATOM      5  N   UNL     1      -1.811  -4.674   0.305  0.00  0.00    -0.255 N 
ATOM      6  C   UNL     1      -2.816  -3.792   0.483  0.00  0.00    +0.121 C 
ATOM      7  S   UNL     1      -4.453  -4.109   0.869  0.00  0.00    -0.027 S 
ATOM      8  S   UNL     1      -2.023  -2.213   0.224  0.00  0.00    -0.061 S 
ENDROOT
BRANCH   1  13
ATOM      9  C   UNL     1      -0.543   1.270  -1.310  0.00  0.00    +0.001 A 
ATOM     10  C   UNL     1       0.576   2.055  -1.086  0.00  0.00    +0.004 A 
ATOM     11  C   UNL     1       1.755   1.485  -0.645  0.00  0.00    +0.046 A 
ATOM     12  C   UNL     1       1.825   0.119  -0.422  0.00  0.00    +0.124 A 
ATOM     13  C   UNL     1       0.693  -0.682  -0.646  0.00  0.00    +0.018 A 
ATOM     14  C   UNL     1      -0.494  -0.090  -1.094  0.00  0.00    +0.011 A 
BRANCH  12  15
ATOM     15  O   UNL     1       2.983  -0.442   0.011  0.00  0.00    -0.506 OA
ATOM     16  H   UNL     1       3.065  -0.481   0.974  0.00  0.00    +0.292 HD
ENDBRANCH  12  15
ENDBRANCH   1  13
BRANCH   5  17
ATOM     17  C   UNL     1      -2.083  -6.106   0.446  0.00  0.00    +0.124 C 
BRANCH  17  18
ATOM     18  C   UNL     1      -1.861  -6.527   1.900  0.00  0.00    +0.115 C 
BRANCH  18  19
ATOM     19  C   UNL     1      -2.141  -8.001   2.045  0.00  0.00    +0.219 C 
ATOM     20  O   UNL     1      -2.484  -8.651   1.081  0.00  0.00    -0.275 OA
ATOM     21  N   UNL     1      -2.009  -8.597   3.247  0.00  0.00    -0.285 N 
ATOM     22  H   UNL     1      -1.806  -8.065   4.032  0.00  0.00    +0.155 HD
BRANCH  21  23
ATOM     23  C   UNL     1      -2.165  -9.977   3.361  0.00  0.00    +0.033 A 
ATOM     24  C   UNL     1      -1.738 -10.811   2.332  0.00  0.00    +0.024 A 
ATOM     25  C   UNL     1      -1.890 -12.169   2.441  0.00  0.00    +0.017 A 
ATOM     26  C   UNL     1      -2.474 -12.717   3.588  0.00  0.00    +0.063 A 
ATOM     27  C   UNL     1      -2.902 -11.875   4.621  0.00  0.00    +0.017 A 
ATOM     28  C   UNL     1      -2.742 -10.518   4.507  0.00  0.00    +0.024 A 
BRANCH  26  29
ATOM     29  C   UNL     1      -2.640 -14.175   3.708  0.00  0.00    +0.387 C 
ATOM     30  O   UNL     1      -2.266 -14.909   2.805  0.00  0.00    -0.241 OA
ATOM     31  O   UNL     1      -3.151 -14.652   4.713  0.00  0.00    -0.241 OA
ENDBRANCH  26  29
ENDBRANCH  21  23
ENDBRANCH  18  19
ENDBRANCH  17  18
ENDBRANCH   5  17
TORSDOF 7
