REMARK  Name = ZINC37768956
REMARK  8 active torsions:
REMARK  status: ('A' for Active; 'I' for Inactive)
REMARK    1  A    between atoms: C_3  and  N_16
REMARK    2  A    between atoms: C_6  and  N_7
REMARK    3  A    between atoms: C_8  and  C_10
REMARK    4  A    between atoms: C_10  and  C_11
REMARK    5  A    between atoms: C_11  and  C_12
REMARK    6  A    between atoms: C_12  and  C_13
REMARK    7  A    between atoms: C_13  and  C_14
REMARK    8  A    between atoms: C_14  and  N_15
REMARK                            x       y       z     vdW  Elec       q    Type
REMARK                         _______ _______ _______ _____ _____    ______ ____
ROOT
ATOM      1  C   UNL     1       1.071  -0.455  -0.767  0.00  0.00    +0.025 A 
ATOM      2  C   UNL     1       2.256   0.252  -0.781  0.00  0.00    +0.028 A 
ATOM      3  C   UNL     1       2.380   1.415  -0.032  0.00  0.00    +0.051 A 
ATOM      4  C   UNL     1       1.311   1.866   0.732  0.00  0.00    +0.028 A 
ATOM      5  C   UNL     1       0.126   1.159   0.746  0.00  0.00    +0.025 A 
ATOM      6  C   UNL     1       0.002  -0.004  -0.004  0.00  0.00    +0.034 A 
ENDROOT
BRANCH   3   7
ATOM      7  N   UNL     1       3.584   2.133  -0.046  0.00  0.00    -0.268 N 
ATOM      8  C   UNL     1       4.724   1.801  -0.765  0.00  0.00    +0.114 A 
ATOM      9  C   UNL     1       5.647   2.724  -0.517  0.00  0.00    +0.105 A 
ATOM     10  N   UNL     1       5.101   3.648   0.361  0.00  0.00    -0.313 N 
ATOM     11  H   UNL     1       5.550   4.432   0.715  0.00  0.00    +0.170 HD
ATOM     12  C   UNL     1       3.836   3.271   0.631  0.00  0.00    +0.331 A 
ATOM     13  O   UNL     1       3.056   3.854   1.363  0.00  0.00    -0.246 OA
ENDBRANCH   3   7
BRANCH   6  14
ATOM     14  N   UNL     1      -1.201  -0.721   0.010  0.00  0.00    -0.285 N 
ATOM     15  C   UNL     1      -1.186  -2.064  -0.099  0.00  0.00    +0.217 C 
ATOM     16  O   UNL     1      -0.130  -2.660  -0.113  0.00  0.00    -0.275 OA
ATOM     17  H   UNL     1      -2.045  -0.251   0.098  0.00  0.00    +0.155 HD
BRANCH  15  18
ATOM     18  C   UNL     1      -2.482  -2.826  -0.204  0.00  0.00    +0.096 C 
BRANCH  18  19
ATOM     19  C   UNL     1      -2.186  -4.323  -0.316  0.00  0.00    +0.009 C 
BRANCH  19  20
ATOM     20  C   UNL     1      -3.502  -5.097  -0.422  0.00  0.00    -0.001 C 
BRANCH  20  21
ATOM     21  C   UNL     1      -3.205  -6.593  -0.535  0.00  0.00    -0.020 C 
BRANCH  21  22
ATOM     22  C   UNL     1      -4.521  -7.367  -0.641  0.00  0.00    -0.086 C 
BRANCH  22  23
ATOM     23  N   UNL     1      -4.237  -8.804  -0.749  0.00  0.00    +0.378 N 
ATOM     24  H   UNL     1      -3.678  -8.976  -1.572  0.00  0.00    -0.090 HD
ATOM     25  H   UNL     1      -3.732  -9.110   0.070  0.00  0.00    -0.090 HD
ATOM     26  H   UNL     1      -5.104  -9.315  -0.819  0.00  0.00    -0.090 HD
ENDBRANCH  22  23
ENDBRANCH  21  22
ENDBRANCH  20  21
ENDBRANCH  19  20
ENDBRANCH  18  19
ENDBRANCH  15  18
ENDBRANCH   6  14
TORSDOF 8
