REMARK  Name = ZINC34651258
REMARK  16 active torsions:
REMARK  status: ('A' for Active; 'I' for Inactive)
REMARK    1  A    between atoms: C_1  and  C_2
REMARK    2  A    between atoms: C_3  and  N_9
REMARK    3  A    between atoms: C_5  and  C_8
REMARK    4  A    between atoms: N_6  and  N_7
REMARK    5  A    between atoms: N_9  and  C_10
REMARK    6  A    between atoms: N_9  and  S_27
REMARK    7  A    between atoms: C_10  and  C_11
REMARK    8  A    between atoms: C_11  and  O_13
REMARK    9  A    between atoms: O_13  and  C_14
REMARK   10  A    between atoms: C_17  and  C_26
REMARK   11  A    between atoms: C_21  and  C_23
REMARK   12  A    between atoms: C_23  and  C_24
REMARK   13  A    between atoms: C_23  and  C_25
REMARK   14  A    between atoms: S_27  and  C_30
REMARK   15  A    between atoms: C_32  and  N_37
REMARK   16  A    between atoms: C_35  and  N_36
REMARK                            x       y       z     vdW  Elec       q    Type
REMARK                         _______ _______ _______ _____ _____    ______ ____
ROOT
ATOM      1  N   UNL     1      -0.245   0.311  -1.979  0.00  0.00    -0.173 N 
ENDROOT
BRANCH   1   4
ATOM      2  C   UNL     1      -2.319   1.035   0.178  0.00  0.00    +0.069 C 
ATOM      3  C   UNL     1      -0.839   1.320   0.180  0.00  0.00    +0.078 A 
ATOM      4  C   UNL     1       0.048   0.989  -0.785  0.00  0.00    +0.164 A 
ATOM      5  N   UNL     1       1.260   1.423  -0.399  0.00  0.00    -0.215 NA
ATOM      6  C   UNL     1       1.159   2.008   0.764  0.00  0.00    +0.126 A 
ATOM      7  N   UNL     1      -0.130   1.972   1.161  0.00  0.00    -0.256 N 
ATOM      8  C   UNL     1       2.296   2.628   1.535  0.00  0.00    +0.088 C 
BRANCH   7   9
ATOM      9  N   UNL     1      -0.636   2.486   2.321  0.00  0.00    -0.297 N 
ATOM     10  H   UNL     1      -0.612   1.800   3.061  0.00  0.00    +0.163 HD
ATOM     11  H   UNL     1      -0.144   3.325   2.590  0.00  0.00    +0.163 HD
ENDBRANCH   7   9
ENDBRANCH   1   4
BRANCH   1  12
ATOM     12  S   UNL     1       0.126  -1.296  -2.132  0.00  0.00    +0.078 S 
ATOM     13  O   UNL     1       0.236  -1.557  -3.524  0.00  0.00    -0.150 OA
ATOM     14  O   UNL     1       1.185  -1.556  -1.221  0.00  0.00    -0.150 OA
BRANCH  12  15
ATOM     15  C   UNL     1      -1.267  -2.209  -1.557  0.00  0.00    +0.131 A 
ATOM     16  C   UNL     1      -2.021  -2.951  -2.445  0.00  0.00    +0.063 A 
ATOM     17  C   UNL     1      -3.115  -3.668  -1.995  0.00  0.00    +0.128 A 
ATOM     18  C   UNL     1      -3.457  -3.644  -0.655  0.00  0.00    +0.034 A 
ATOM     19  C   UNL     1      -2.708  -2.904   0.238  0.00  0.00    +0.027 A 
ATOM     20  C   UNL     1      -1.605  -2.187  -0.210  0.00  0.00    +0.052 A 
BRANCH  20  21
ATOM     21  N   UNL     1      -0.842  -1.442   0.691  0.00  0.00    -0.356 N 
ATOM     22  H   UNL     1      -0.071  -0.943   0.378  0.00  0.00    +0.142 HD
ATOM     23  H   UNL     1      -1.082  -1.423   1.631  0.00  0.00    +0.142 HD
ENDBRANCH  20  21
BRANCH  17  24
ATOM     24  N   UNL     1      -3.920  -4.462  -2.949  0.00  0.00    +0.056 N 
ATOM     25  O   UNL     1      -3.622  -4.484  -4.121  0.00  0.00    -0.126 OA
ATOM     26  O   UNL     1      -4.877  -5.090  -2.557  0.00  0.00    -0.126 OA
ENDBRANCH  17  24
ENDBRANCH  12  15
ENDBRANCH   1  12
BRANCH   1  27
ATOM     27  C   UNL     1      -0.878   1.025  -3.090  0.00  0.00    +0.253 C 
BRANCH  27  28
ATOM     28  C   UNL     1       0.178   1.730  -3.902  0.00  0.00    +0.327 C 
ATOM     29  O   UNL     1       1.341   1.644  -3.585  0.00  0.00    -0.249 OA
BRANCH  28  30
ATOM     30  O   UNL     1      -0.173   2.452  -4.977  0.00  0.00    -0.460 OA
BRANCH  30  31
ATOM     31  C   UNL     1       0.880   3.093  -5.700  0.00  0.00    +0.180 C 
ATOM     32  C   UNL     1       1.115   4.492  -5.126  0.00  0.00    +0.048 C 
ATOM     33  C   UNL     1      -0.167   5.317  -5.253  0.00  0.00    -0.011 C 
ATOM     34  C   UNL     1      -0.556   5.431  -6.729  0.00  0.00    +0.004 C 
ATOM     35  C   UNL     1      -0.791   4.032  -7.303  0.00  0.00    +0.007 C 
ATOM     36  C   UNL     1       0.490   3.206  -7.176  0.00  0.00    +0.032 C 
ATOM     37  C   UNL     1      -1.294   4.631  -4.479  0.00  0.00    +0.007 C 
BRANCH  36  38
ATOM     38  C   UNL     1       0.255   1.808  -7.750  0.00  0.00    -0.011 C 
ATOM     39  C   UNL     1      -0.134   1.921  -9.225  0.00  0.00    +0.007 C 
ATOM     40  C   UNL     1       1.537   0.982  -7.622  0.00  0.00    +0.007 C 
ENDBRANCH  36  38
ENDBRANCH  30  31
ENDBRANCH  28  30
ENDBRANCH  27  28
ENDBRANCH   1  27
TORSDOF 11
