REMARK  Name = ZINC37543321
REMARK  7 active torsions:
REMARK  status: ('A' for Active; 'I' for Inactive)
REMARK    1  A    between atoms: C_1  and  C_2
REMARK    2  A    between atoms: C_2  and  C_4
REMARK    3  A    between atoms: C_2  and  N_11
REMARK    4  A    between atoms: N_9  and  C_10
REMARK    5  A    between atoms: N_11  and  C_12
REMARK    6  A    between atoms: N_11  and  C_16
REMARK    7  A    between atoms: C_12  and  C_13
REMARK                            x       y       z     vdW  Elec       q    Type
REMARK                         _______ _______ _______ _____ _____    ______ ____
ROOT
ATOM      1  N   UNL     1      -0.995  -0.986  -0.313  0.00  0.00    +0.395 N 
ATOM      2  H   UNL     1      -1.580  -1.151   0.493  0.00  0.00    -0.080 HD
ENDROOT
BRANCH   1   3
ATOM      3  C   UNL     1      -0.168  -2.173  -0.568  0.00  0.00    -0.065 C 
ATOM      4  C   UNL     1       0.766  -1.901  -1.750  0.00  0.00    -0.000 C 
ATOM      5  C   UNL     1       1.581  -3.161  -2.050  0.00  0.00    +0.079 C 
ATOM      6  N   UNL     1       0.672  -4.271  -2.366  0.00  0.00    -0.316 NA
ATOM      7  C   UNL     1      -0.202  -4.581  -1.228  0.00  0.00    +0.079 C 
ATOM      8  C   UNL     1      -1.071  -3.364  -0.903  0.00  0.00    -0.000 C 
ATOM      9  H   UNL     1       0.131  -4.070  -3.193  0.00  0.00    +0.122 HD
ENDBRANCH   1   3
BRANCH   1  11
ATOM     10  C   UNL     1      -0.982   1.371   0.353  0.00  0.00    -0.004 C 
ATOM     11  C   UNL     1      -0.127   0.171  -0.059  0.00  0.00    +0.018 C 
BRANCH  11  12
ATOM     12  C   UNL     1       0.841  -0.160   1.047  0.00  0.00    +0.207 C 
ATOM     13  O   UNL     1       0.527  -0.951   1.911  0.00  0.00    -0.277 OA
ATOM     14  N   UNL     1       2.056   0.423   1.077  0.00  0.00    -0.242 N 
ATOM     15  C   UNL     1       2.921   0.127   2.067  0.00  0.00    +0.306 C 
ATOM     16  O   UNL     1       2.607  -0.666   2.933  0.00  0.00    -0.252 OA
ATOM     17  N   UNL     1       4.136   0.710   2.097  0.00  0.00    -0.302 N 
ATOM     18  C   UNL     1       5.077   0.389   3.172  0.00  0.00    +0.129 C 
ATOM     19  H   UNL     1       2.307   1.056   0.386  0.00  0.00    +0.159 HD
ATOM     20  H   UNL     1       4.388   1.343   1.406  0.00  0.00    +0.150 HD
ENDBRANCH  11  12
ENDBRANCH   1  11
BRANCH   1  21
ATOM     21  C   UNL     1      -1.840  -0.717  -1.484  0.00  0.00    +0.020 C 
BRANCH  21  22
ATOM     22  C   UNL     1      -3.049  -1.617  -1.448  0.00  0.00    +0.194 C 
ATOM     23  O   UNL     1      -3.258  -2.314  -0.478  0.00  0.00    -0.278 OA
ATOM     24  N   UNL     1      -3.898  -1.646  -2.495  0.00  0.00    -0.331 N 
ATOM     25  H   UNL     1      -3.731  -1.088  -3.270  0.00  0.00    +0.145 HD
ATOM     26  H   UNL     1      -4.676  -2.225  -2.472  0.00  0.00    +0.145 HD
ENDBRANCH  21  22
ENDBRANCH   1  21
TORSDOF 5
