REMARK  Name = ZINC61814386
REMARK  6 active torsions:
REMARK  status: ('A' for Active; 'I' for Inactive)
REMARK    1  A    between atoms: C_4  and  C_17
REMARK    2  A    between atoms: C_6  and  N_7
REMARK    3  A    between atoms: C_11  and  C_13
REMARK    4  A    between atoms: C_13  and  C_14
REMARK    5  A    between atoms: C_14  and  C_15
REMARK    6  A    between atoms: C_15  and  O_16
REMARK                            x       y       z     vdW  Elec       q    Type
REMARK                         _______ _______ _______ _____ _____    ______ ____
ROOT
ATOM      1  C   UNL     1       0.190   1.359  -0.322  0.00  0.00    +0.043 A 
ATOM      2  C   UNL     1       1.403   1.944  -0.634  0.00  0.00    +0.113 A 
ATOM      3  N   UNL     1       2.459   1.208  -0.909  0.00  0.00    -0.252 NA
ATOM      4  C   UNL     1       2.410  -0.119  -0.900  0.00  0.00    +0.103 A 
ATOM      5  C   UNL     1       1.228  -0.782  -0.595  0.00  0.00    +0.054 A 
ATOM      6  C   UNL     1       0.090  -0.031  -0.299  0.00  0.00    +0.033 A 
ENDROOT
BRANCH   4   7
ATOM      7  C   UNL     1       3.630  -0.901  -1.217  0.00  0.00    +0.113 C 
ATOM      8  N   UNL     1       4.765  -0.273  -1.510  0.00  0.00    -0.386 N 
ATOM      9  N   UNL     1       3.588  -2.231  -1.209  0.00  0.00    -0.343 N 
ATOM     10  H   UNL     1       4.796   0.696  -1.515  0.00  0.00    +0.157 HD
ATOM     11  H   UNL     1       2.760  -2.689  -0.996  0.00  0.00    +0.144 HD
ATOM     12  H   UNL     1       4.385  -2.742  -1.417  0.00  0.00    +0.144 HD
ATOM     13  H   UNL     1       5.563  -0.785  -1.717  0.00  0.00    +0.157 HD
ENDBRANCH   4   7
BRANCH   6  14
ATOM     14  N   UNL     1      -1.115  -0.655   0.011  0.00  0.00    -0.327 N 
ATOM     15  C   UNL     1      -1.312  -2.105   0.187  0.00  0.00    +0.105 C 
ATOM     16  C   UNL     1      -2.565  -2.229   1.090  0.00  0.00    +0.021 C 
ATOM     17  C   UNL     1      -3.443  -1.062   0.566  0.00  0.00    +0.024 C 
ATOM     18  C   UNL     1      -2.402   0.025   0.224  0.00  0.00    +0.074 C 
BRANCH  18  19
ATOM     19  C   UNL     1      -2.820   0.759  -1.052  0.00  0.00    +0.024 C 
BRANCH  19  20
ATOM     20  C   UNL     1      -4.116   1.529  -0.795  0.00  0.00    +0.030 C 
BRANCH  20  21
ATOM     21  C   UNL     1      -4.466   2.363  -2.029  0.00  0.00    +0.156 C 
BRANCH  21  22
ATOM     22  O   UNL     1      -5.678   3.083  -1.790  0.00  0.00    -0.395 OA
ATOM     23  H   UNL     1      -5.961   3.635  -2.532  0.00  0.00    +0.209 HD
ENDBRANCH  21  22
ENDBRANCH  20  21
ENDBRANCH  19  20
ENDBRANCH  18  19
ENDBRANCH   6  14
TORSDOF 6
