REMARK  Name = ZINC52838723
REMARK  11 active torsions:
REMARK  status: ('A' for Active; 'I' for Inactive)
REMARK    1  A    between atoms: C_1  and  C_2
REMARK    2  A    between atoms: C_4  and  C_29
REMARK    3  A    between atoms: C_6  and  N_13
REMARK    4  A    between atoms: C_14  and  C_16
REMARK    5  A    between atoms: C_16  and  N_17
REMARK    6  A    between atoms: N_17  and  C_18
REMARK    7  A    between atoms: C_18  and  C_20
REMARK    8  A    between atoms: C_18  and  C_25
REMARK    9  A    between atoms: C_25  and  C_26
REMARK   10  A    between atoms: C_25  and  C_27
REMARK   11  A    between atoms: C_25  and  C_28
REMARK                            x       y       z     vdW  Elec       q    Type
REMARK                         _______ _______ _______ _____ _____    ______ ____
ROOT
ATOM      1  N   UNL     1      -2.487  -4.852   0.633  0.00  0.00    -0.257 N 
ATOM      2  C   UNL     1      -3.812  -4.944   0.399  0.00  0.00    +0.202 C 
ATOM      3  O   UNL     1      -4.472  -3.938   0.248  0.00  0.00    -0.277 OA
ATOM      4  H   UNL     1      -1.959  -5.657   0.754  0.00  0.00    +0.158 HD
ENDROOT
BRANCH   1  10
ATOM      5  C   UNL     1       1.168   0.139   1.129  0.00  0.00    +0.068 C 
ATOM      6  C   UNL     1       0.948  -1.352   1.138  0.00  0.00    +0.070 A 
ATOM      7  C   UNL     1      -0.393  -1.900   0.914  0.00  0.00    +0.053 A 
ATOM      8  C   UNL     1      -1.626  -1.405   0.678  0.00  0.00    +0.114 A 
ATOM      9  O   UNL     1      -2.495  -2.425   0.554  0.00  0.00    -0.445 OA
ATOM     10  C   UNL     1      -1.881  -3.609   0.702  0.00  0.00    +0.206 A 
ATOM     11  C   UNL     1      -0.547  -3.375   0.933  0.00  0.00    +0.110 A 
ATOM     12  C   UNL     1       0.648  -4.177   1.173  0.00  0.00    +0.277 A 
ATOM     13  O   UNL     1       0.586  -5.393   1.200  0.00  0.00    -0.266 OA
ATOM     14  N   UNL     1       1.825  -3.544   1.364  0.00  0.00    -0.242 N 
ATOM     15  H   UNL     1       2.619  -4.077   1.523  0.00  0.00    +0.192 HD
ATOM     16  N   UNL     1       1.946  -2.157   1.337  0.00  0.00    -0.175 NA
ATOM     17  C   UNL     1      -1.974   0.058   0.570  0.00  0.00    +0.087 C 
ENDBRANCH   1  10
BRANCH   2  18
ATOM     18  C   UNL     1      -4.472  -6.296   0.324  0.00  0.00    +0.016 C 
BRANCH  18  19
ATOM     19  N   UNL     1      -5.907  -6.127   0.062  0.00  0.00    +0.390 N 
ATOM     20  H   UNL     1      -6.322  -5.582   0.802  0.00  0.00    -0.084 HD
ATOM     21  H   UNL     1      -6.034  -5.650  -0.819  0.00  0.00    -0.084 HD
BRANCH  19  22
ATOM     22  C   UNL     1      -6.553  -7.445   0.002  0.00  0.00    -0.028 C 
BRANCH  22  23
ATOM     23  C   UNL     1      -6.040  -8.202  -1.196  0.00  0.00    -0.024 A 
ATOM     24  C   UNL     1      -5.730  -9.517  -1.306  0.00  0.00    +0.009 A 
ATOM     25  C   UNL     1      -5.272  -9.999  -2.518  0.00  0.00    +0.008 A 
ATOM     26  C   UNL     1      -5.146  -9.142  -3.560  0.00  0.00    +0.045 A 
ATOM     27  S   UNL     1      -5.690  -7.602  -2.840  0.00  0.00    -0.103 S 
ENDBRANCH  22  23
BRANCH  22  28
ATOM     28  C   UNL     1      -8.068  -7.266  -0.118  0.00  0.00    -0.046 C 
ATOM     29  C   UNL     1      -8.384  -6.410  -1.346  0.00  0.00    +0.009 C 
ATOM     30  C   UNL     1      -8.733  -8.636  -0.266  0.00  0.00    +0.009 C 
ATOM     31  C   UNL     1      -8.600  -6.573   1.137  0.00  0.00    +0.009 C 
ENDBRANCH  22  28
ENDBRANCH  19  22
ENDBRANCH  18  19
ENDBRANCH   2  18
TORSDOF 6
