REMARK  Name = ZINC66839884
REMARK  4 active torsions:
REMARK  status: ('A' for Active; 'I' for Inactive)
REMARK    1  A    between atoms: C_5  and  C_7
REMARK    2  A    between atoms: C_7  and  C_8
REMARK    3  A    between atoms: N_10  and  N_11
REMARK    4  A    between atoms: C_12  and  C_14
REMARK                            x       y       z     vdW  Elec       q    Type
REMARK                         _______ _______ _______ _____ _____    ______ ____
ROOT
ATOM      1  N   UNL     1       1.548  -4.494   2.938  0.00  0.00    -0.230 N 
ATOM      2  C   UNL     1       1.590  -5.820   3.176  0.00  0.00    +0.262 C 
ATOM      3  O   UNL     1       1.511  -6.606   2.251  0.00  0.00    -0.269 OA
ATOM      4  H   UNL     1       1.611  -3.867   3.676  0.00  0.00    +0.173 HD
ENDROOT
BRANCH   2   5
ATOM      5  C   UNL     1       1.731  -6.318   4.557  0.00  0.00    +0.062 A 
ATOM      6  C   UNL     1       1.816  -5.421   5.620  0.00  0.00    +0.015 A 
ATOM      7  C   UNL     1       1.949  -5.881   6.917  0.00  0.00    +0.001 A 
ATOM      8  C   UNL     1       2.000  -7.234   7.180  0.00  0.00    +0.010 A 
ATOM      9  C   UNL     1       1.917  -8.154   6.134  0.00  0.00    +0.004 A 
ATOM     10  C   UNL     1       1.775  -7.699   4.809  0.00  0.00    +0.059 A 
ATOM     11  N   UNL     1       1.710  -8.806   4.000  0.00  0.00    -0.357 N 
ATOM     12  H   UNL     1       1.614  -8.785   3.035  0.00  0.00    +0.166 HD
ATOM     13  C   UNL     1       1.802  -9.942   4.755  0.00  0.00    +0.020 A 
ATOM     14  C   UNL     1       1.936  -9.611   6.053  0.00  0.00    -0.019 A 
ATOM     15  C   UNL     1       2.063 -10.601   7.182  0.00  0.00    +0.037 C 
ATOM     16  C   UNL     1       1.629 -11.980   6.670  0.00  0.00    +0.005 C 
ATOM     17  C   UNL     1       2.347 -12.280   5.351  0.00  0.00    +0.006 C 
ATOM     18  C   UNL     1       1.776 -11.367   4.251  0.00  0.00    +0.053 C 
ENDBRANCH   2   5
BRANCH   1  21
ATOM     19  C   UNL     1       1.372  -2.695   1.389  0.00  0.00    +0.233 C 
ATOM     20  O   UNL     1       1.451  -1.911   2.311  0.00  0.00    -0.274 OA
ATOM     21  N   UNL     1       1.414  -4.021   1.627  0.00  0.00    -0.234 N 
ATOM     22  H   UNL     1       1.351  -4.648   0.889  0.00  0.00    +0.173 HD
BRANCH  19  23
ATOM     23  C   UNL     1       1.228  -2.186  -0.022  0.00  0.00    +0.135 C 
BRANCH  23  28
ATOM     24  C   UNL     1      -0.017   1.378   0.010  0.00  0.00    +0.000 A 
ATOM     25  C   UNL     1       1.171   2.087   0.002  0.00  0.00    +0.003 A 
ATOM     26  C   UNL     1       2.377   1.414  -0.013  0.00  0.00    +0.038 A 
ATOM     27  C   UNL     1       2.397   0.029  -0.021  0.00  0.00    +0.127 A 
ATOM     28  C   UNL     1       1.208  -0.679  -0.013  0.00  0.00    -0.003 A 
ATOM     29  C   UNL     1       0.002  -0.004   0.002  0.00  0.00    +0.007 A 
ATOM     30  F   UNL     1       3.577  -0.630  -0.036  0.00  0.00    -0.205 F 
ENDBRANCH  23  28
ENDBRANCH  19  23
ENDBRANCH   1  21
TORSDOF 4
