REMARK  Name = ZINC67130008
REMARK  7 active torsions:
REMARK  status: ('A' for Active; 'I' for Inactive)
REMARK    1  A    between atoms: C_1  and  C_2
REMARK    2  A    between atoms: C_2  and  C_3
REMARK    3  A    between atoms: C_3  and  C_24
REMARK    4  A    between atoms: N_6  and  N_10
REMARK    5  A    between atoms: C_11  and  C_13
REMARK    6  A    between atoms: C_13  and  N_14
REMARK    7  A    between atoms: C_19  and  C_21
REMARK                            x       y       z     vdW  Elec       q    Type
REMARK                         _______ _______ _______ _____ _____    ______ ____
ROOT
ATOM      1  N   UNL     1       0.848   1.426  -4.516  0.00  0.00    -0.225 N 
ATOM      2  C   UNL     1       0.726   2.764  -4.413  0.00  0.00    +0.213 C 
ATOM      3  O   UNL     1       0.670   3.286  -3.319  0.00  0.00    -0.276 OA
ATOM      4  H   UNL     1       0.893   1.009  -5.391  0.00  0.00    +0.173 HD
ENDROOT
BRANCH   1   8
ATOM      5  C   UNL     1       0.413  -0.789  -1.647  0.00  0.00    +0.139 C 
ATOM      6  C   UNL     1      -0.104  -0.123  -2.907  0.00  0.00    +0.268 C 
ATOM      7  O   UNL     1      -1.204  -0.249  -3.402  0.00  0.00    -0.271 OA
ATOM      8  N   UNL     1       0.911   0.637  -3.360  0.00  0.00    -0.137 N 
ATOM      9  C   UNL     1       1.988   0.546  -2.571  0.00  0.00    +0.327 C 
ATOM     10  O   UNL     1       3.028   1.140  -2.775  0.00  0.00    -0.251 OA
ATOM     11  N   UNL     1       1.790  -0.279  -1.526  0.00  0.00    -0.280 N 
ATOM     12  H   UNL     1       2.429  -0.494  -0.829  0.00  0.00    +0.152 HD
BRANCH   5  13
ATOM     13  C   UNL     1       0.416  -2.289  -1.799  0.00  0.00    -0.015 A 
ATOM     14  C   UNL     1      -0.677  -3.027  -1.384  0.00  0.00    +0.006 A 
ATOM     15  C   UNL     1      -0.674  -4.403  -1.523  0.00  0.00    +0.000 A 
ATOM     16  C   UNL     1       0.420  -5.039  -2.078  0.00  0.00    +0.000 A 
ATOM     17  C   UNL     1       1.512  -4.301  -2.494  0.00  0.00    +0.000 A 
ATOM     18  C   UNL     1       1.508  -2.925  -2.358  0.00  0.00    +0.006 A 
ENDBRANCH   5  13
BRANCH   5  20
ATOM     19  C   UNL     1      -0.453   1.152  -0.336  0.00  0.00    +0.007 C 
ATOM     20  C   UNL     1      -0.424  -0.374  -0.436  0.00  0.00    +0.037 C 
ENDBRANCH   5  20
ENDBRANCH   1   8
BRANCH   2  21
ATOM     21  C   UNL     1       0.658   3.613  -5.657  0.00  0.00    +0.021 C 
BRANCH  21  22
ATOM     22  N   UNL     1       0.527   5.027  -5.278  0.00  0.00    +0.393 N 
ATOM     23  C   UNL     1       1.758   5.470  -4.613  0.00  0.00    -0.077 C 
ATOM     24  C   UNL     1       1.596   6.918  -4.144  0.00  0.00    -0.019 C 
ATOM     25  C   UNL     1       1.318   7.812  -5.356  0.00  0.00    -0.003 C 
ATOM     26  C   UNL     1       0.075   7.296  -6.085  0.00  0.00    -0.006 C 
ATOM     27  C   UNL     1       0.293   5.834  -6.481  0.00  0.00    +0.020 C 
ATOM     28  H   UNL     1      -0.252   5.133  -4.646  0.00  0.00    -0.080 HD
BRANCH  27  29
ATOM     29  C   UNL     1      -0.929   5.321  -7.200  0.00  0.00    +0.197 C 
ATOM     30  O   UNL     1      -1.817   4.781  -6.575  0.00  0.00    -0.278 OA
ATOM     31  N   UNL     1      -1.034   5.462  -8.536  0.00  0.00    -0.331 N 
ATOM     32  H   UNL     1      -0.323   5.894  -9.035  0.00  0.00    +0.145 HD
ATOM     33  H   UNL     1      -1.820   5.132  -8.998  0.00  0.00    +0.145 HD
ENDBRANCH  27  29
ENDBRANCH  21  22
ENDBRANCH   2  21
TORSDOF 6
