REMARK  Name = ZINC09507244
REMARK  10 active torsions:
REMARK  status: ('A' for Active; 'I' for Inactive)
REMARK    1  A    between atoms: C_1  and  N_55
REMARK    2  A    between atoms: C_2  and  C_3
REMARK    3  A    between atoms: C_2  and  N_55
REMARK    4  A    between atoms: C_10  and  C_11
REMARK    5  A    between atoms: C_10  and  N_55
REMARK    6  A    between atoms: N_13  and  C_14
REMARK    7  A    between atoms: N_13  and  C_15
REMARK    8  A    between atoms: C_16  and  N_31
REMARK    9  A    between atoms: N_17  and  C_24
REMARK   10  A    between atoms: C_24  and  C_25
REMARK                            x       y       z     vdW  Elec       q    Type
REMARK                         _______ _______ _______ _____ _____    ______ ____
ROOT
ATOM      1  C   UNL     1       2.338   1.144   0.081  0.00  0.00    +0.139 A 
ATOM      2  C   UNL     1       2.686   0.278  -0.935  0.00  0.00    +0.128 A 
ATOM      3  N   UNL     1       3.855  -0.440  -0.835  0.00  0.00    -0.276 N 
ATOM      4  C   UNL     1       4.645  -0.306   0.246  0.00  0.00    +0.331 A 
ATOM      5  O   UNL     1       5.672  -0.953   0.318  0.00  0.00    -0.246 OA
ATOM      6  N   UNL     1       4.319   0.529   1.248  0.00  0.00    -0.273 N 
ATOM      7  H   UNL     1       4.924   0.610   2.041  0.00  0.00    +0.173 HD
ATOM      8  C   UNL     1       3.188   1.259   1.197  0.00  0.00    +0.277 A 
ATOM      9  O   UNL     1       2.902   2.014   2.111  0.00  0.00    -0.266 OA
ENDROOT
BRANCH   1  12
ATOM     10  C   UNL     1      -0.049   1.274   0.043  0.00  0.00    +0.203 C 
ATOM     11  O   UNL     1      -0.102   0.062   0.057  0.00  0.00    -0.277 OA
ATOM     12  N   UNL     1       1.147   1.898   0.006  0.00  0.00    -0.269 N 
ATOM     13  C   UNL     1       1.210   3.356  -0.113  0.00  0.00    +0.138 C 
BRANCH  10  14
ATOM     14  C   UNL     1      -1.320   2.084   0.062  0.00  0.00    +0.019 C 
BRANCH  14  16
ATOM     15  C   UNL     1      -2.522   0.429   1.359  0.00  0.00    -0.095 C 
ATOM     16  N   UNL     1      -2.474   1.160   0.075  0.00  0.00    +0.386 N 
ATOM     17  H   UNL     1      -2.368   0.484  -0.690  0.00  0.00    -0.081 HD
BRANCH  16  18
ATOM     18  C   UNL     1      -3.729   1.916  -0.123  0.00  0.00    -0.040 C 
BRANCH  18  19
ATOM     19  C   UNL     1      -4.858   0.939  -0.326  0.00  0.00    -0.029 A 
ATOM     20  C   UNL     1      -5.307   0.657  -1.603  0.00  0.00    +0.004 A 
ATOM     21  C   UNL     1      -6.339  -0.244  -1.790  0.00  0.00    +0.000 A 
ATOM     22  C   UNL     1      -6.930  -0.855  -0.700  0.00  0.00    +0.003 A 
ATOM     23  C   UNL     1      -6.487  -0.571   0.578  0.00  0.00    +0.038 A 
ATOM     24  C   UNL     1      -5.449   0.327   0.766  0.00  0.00    +0.125 A 
ATOM     25  F   UNL     1      -5.015   0.606   2.015  0.00  0.00    -0.205 F 
ENDBRANCH  18  19
ENDBRANCH  16  18
ENDBRANCH  14  16
ENDBRANCH  10  14
ENDBRANCH   1  12
BRANCH   2  26
ATOM     26  N   UNL     1       1.875   0.137  -2.036  0.00  0.00    -0.343 N 
ATOM     27  H   UNL     1       1.020   0.593  -2.071  0.00  0.00    +0.144 HD
ATOM     28  H   UNL     1       2.159  -0.418  -2.779  0.00  0.00    +0.144 HD
ENDBRANCH   2  26
BRANCH   3  29
ATOM     29  C   UNL     1       4.239  -1.359  -1.909  0.00  0.00    +0.163 C 
BRANCH  29  30
ATOM     30  C   UNL     1       3.665  -2.724  -1.631  0.00  0.00    -0.028 A 
ATOM     31  C   UNL     1       4.394  -3.646  -0.903  0.00  0.00    +0.005 A 
ATOM     32  C   UNL     1       3.865  -4.896  -0.644  0.00  0.00    +0.000 A 
ATOM     33  C   UNL     1       2.612  -5.229  -1.123  0.00  0.00    +0.000 A 
ATOM     34  C   UNL     1       1.885  -4.309  -1.855  0.00  0.00    +0.000 A 
ATOM     35  C   UNL     1       2.411  -3.057  -2.109  0.00  0.00    +0.005 A 
ENDBRANCH  29  30
ENDBRANCH   3  29
TORSDOF 8
