REMARK  Name = ZINC39632119
REMARK  13 active torsions:
REMARK  status: ('A' for Active; 'I' for Inactive)
REMARK    1  A    between atoms: C_1  and  C_2
REMARK    2  A    between atoms: C_6  and  C_8
REMARK    3  A    between atoms: C_8  and  C_9
REMARK    4  A    between atoms: C_13  and  C_22
REMARK    5  A    between atoms: N_24  and  C_25
REMARK    6  A    between atoms: C_25  and  C_27
REMARK    7  A    between atoms: C_25  and  C_28
REMARK    8  A    between atoms: C_28  and  C_29
REMARK    9  A    between atoms: C_29  and  C_30
REMARK   10  A    between atoms: C_30  and  C_31
REMARK   11  A    between atoms: C_31  and  C_32
REMARK   12  A    between atoms: C_31  and  C_33
REMARK   13  A    between atoms: C_31  and  O_34
REMARK                            x       y       z     vdW  Elec       q    Type
REMARK                         _______ _______ _______ _____ _____    ______ ____
ROOT
ATOM      1  C   UNL     1       1.597  -3.062   2.939  0.00  0.00    +0.220 C 
ATOM      2  O   UNL     1       2.524  -2.696   2.249  0.00  0.00    -0.275 OA
ATOM      3  N   UNL     1       1.831  -3.752   4.073  0.00  0.00    -0.300 N 
ATOM      4  C   UNL     1       0.838  -4.286   5.034  0.00  0.00    +0.121 C 
ATOM      5  C   UNL     1       1.397  -5.665   5.449  0.00  0.00    +0.100 C 
ATOM      6  C   UNL     1       2.910  -5.569   5.190  0.00  0.00    -0.004 C 
ATOM      7  C   UNL     1       3.142  -4.155   4.636  0.00  0.00    +0.115 C 
ATOM      8  C   UNL     1       3.682  -5.761   6.491  0.00  0.00    -0.010 C 
ATOM      9  C   UNL     1       5.185  -5.720   6.199  0.00  0.00    -0.082 C 
ATOM     10  N   UNL     1       5.528  -6.778   5.241  0.00  0.00    +0.379 N 
ATOM     11  C   UNL     1       4.853  -6.534   3.961  0.00  0.00    -0.082 C 
ATOM     12  C   UNL     1       3.336  -6.610   4.159  0.00  0.00    -0.010 C 
ATOM     13  H   UNL     1       6.527  -6.788   5.097  0.00  0.00    -0.086 HD
ATOM     14  H   UNL     1       5.236  -7.671   5.609  0.00  0.00    -0.086 HD
ENDROOT
BRANCH   5  15
ATOM     15  C   UNL     1       1.128  -5.922   6.909  0.00  0.00    +0.218 C 
ATOM     16  O   UNL     1       1.099  -4.997   7.693  0.00  0.00    -0.275 OA
ATOM     17  N   UNL     1       0.919  -7.181   7.345  0.00  0.00    -0.312 N 
ATOM     18  H   UNL     1       0.942  -7.921   6.718  0.00  0.00    +0.149 HD
BRANCH  17  19
ATOM     19  C   UNL     1       0.657  -7.431   8.764  0.00  0.00    +0.070 C 
ATOM     20  C   UNL     1      -0.834  -7.242   9.049  0.00  0.00    +0.028 C 
BRANCH  19  21
ATOM     21  C   UNL     1       1.065  -8.864   9.113  0.00  0.00    +0.022 C 
BRANCH  21  22
ATOM     22  C   UNL     1       2.579  -9.018   8.947  0.00  0.00    +0.005 C 
BRANCH  22  23
ATOM     23  C   UNL     1       2.986 -10.450   9.296  0.00  0.00    +0.034 C 
BRANCH  23  24
ATOM     24  C   UNL     1       4.500 -10.605   9.130  0.00  0.00    +0.061 C 
ATOM     25  C   UNL     1       4.891 -12.066   9.358  0.00  0.00    +0.041 C 
ATOM     26  C   UNL     1       4.903 -10.183   7.716  0.00  0.00    +0.041 C 
BRANCH  24  27
ATOM     27  O   UNL     1       5.170  -9.778  10.084  0.00  0.00    -0.389 OA
ATOM     28  H   UNL     1       6.135  -9.825  10.036  0.00  0.00    +0.210 HD
ENDBRANCH  24  27
ENDBRANCH  23  24
ENDBRANCH  22  23
ENDBRANCH  21  22
ENDBRANCH  19  21
ENDBRANCH  17  19
ENDBRANCH   5  15
BRANCH   1  29
ATOM     29  C   UNL     1       0.181  -2.746   2.529  0.00  0.00    +0.131 C 
BRANCH  29  35
ATOM     30  C   UNL     1       0.322   1.624   0.095  0.00  0.00    +0.044 C 
ATOM     31  C   UNL     1       0.261   0.119   0.071  0.00  0.00    -0.050 A 
ATOM     32  C   UNL     1       0.216  -0.553  -1.136  0.00  0.00    +0.003 A 
ATOM     33  C   UNL     1       0.160  -1.933  -1.157  0.00  0.00    +0.001 A 
ATOM     34  C   UNL     1       0.149  -2.643   0.029  0.00  0.00    +0.004 A 
ATOM     35  C   UNL     1       0.194  -1.972   1.236  0.00  0.00    -0.038 A 
ATOM     36  C   UNL     1       0.255  -0.591   1.257  0.00  0.00    +0.007 A 
ENDBRANCH  29  35
ENDBRANCH   1  29
TORSDOF 9
