REMARK  Name = ZINC36749637
REMARK  6 active torsions:
REMARK  status: ('A' for Active; 'I' for Inactive)
REMARK    1  A    between atoms: C_1  and  C_2
REMARK    2  A    between atoms: C_3  and  N_17
REMARK    3  A    between atoms: C_4  and  S_8
REMARK    4  A    between atoms: N_5  and  C_7
REMARK    5  A    between atoms: S_8  and  C_9
REMARK    6  A    between atoms: N_13  and  C_14
REMARK                            x       y       z     vdW  Elec       q    Type
REMARK                         _______ _______ _______ _____ _____    ______ ____
ROOT
ATOM      1  C   UNL     1      -0.018   1.503   0.010  0.00  0.00    +0.069 C 
ATOM      2  C   UNL     1       0.002  -0.004   0.002  0.00  0.00    +0.082 A 
ATOM      3  C   UNL     1       0.008  -0.816  -1.138  0.00  0.00    +0.080 A 
ATOM      4  C   UNL     1       0.028  -2.116  -0.725  0.00  0.00    +0.123 A 
ATOM      5  N   UNL     1       0.034  -2.110   0.637  0.00  0.00    -0.258 N 
ATOM      6  N   UNL     1       0.023  -0.775   1.060  0.00  0.00    -0.174 NA
ATOM      7  C   UNL     1       0.053  -3.290   1.505  0.00  0.00    +0.173 C 
ENDROOT
BRANCH   3   8
ATOM      8  N   UNL     1      -0.005  -0.368  -2.478  0.00  0.00    -0.354 N 
ATOM      9  H   UNL     1      -0.018   0.582  -2.672  0.00  0.00    +0.142 HD
ATOM     10  H   UNL     1       0.001  -1.012  -3.204  0.00  0.00    +0.142 HD
ENDBRANCH   3   8
BRANCH   4  11
ATOM     11  S   UNL     1       0.042  -3.540  -1.762  0.00  0.00    -0.027 S 
BRANCH  11  12
ATOM     12  C   UNL     1       1.536  -4.368  -1.329  0.00  0.00    +0.216 A 
ATOM     13  N   UNL     1       2.411  -3.980  -0.425  0.00  0.00    -0.101 NA
ATOM     14  N   UNL     1       3.387  -4.812  -0.359  0.00  0.00    -0.022 NA
ATOM     15  N   UNL     1       3.213  -5.775  -1.198  0.00  0.00    -0.043 NA
ATOM     16  N   UNL     1       1.997  -5.526  -1.858  0.00  0.00    -0.217 N 
BRANCH  16  17
ATOM     17  C   UNL     1       1.366  -6.342  -2.898  0.00  0.00    +0.112 C 
ATOM     18  C   UNL     1       2.179  -7.503  -3.475  0.00  0.00    +0.029 C 
ATOM     19  C   UNL     1       1.001  -7.784  -2.540  0.00  0.00    +0.029 C 
ENDBRANCH  16  17
ENDBRANCH  11  12
ENDBRANCH   4  11
TORSDOF 4
