REMARK  Name = ZINC62176336
REMARK  4 active torsions:
REMARK  status: ('A' for Active; 'I' for Inactive)
REMARK    1  A    between atoms: C_1  and  O_2
REMARK    2  A    between atoms: O_2  and  C_3
REMARK    3  A    between atoms: C_11  and  N_16
REMARK    4  A    between atoms: C_13  and  O_15
REMARK                            x       y       z     vdW  Elec       q    Type
REMARK                         _______ _______ _______ _____ _____    ______ ____
ROOT
ATOM      1  C   UNL     1      -1.304  -0.638   0.011  0.00  0.00    +0.162 A 
ATOM      2  C   UNL     1      -2.481   0.082   0.118  0.00  0.00    +0.049 A 
ATOM      3  C   UNL     1      -3.688  -0.583   0.226  0.00  0.00    +0.004 A 
ATOM      4  C   UNL     1      -3.718  -1.964   0.225  0.00  0.00    +0.010 A 
ATOM      5  C   UNL     1      -2.544  -2.692   0.118  0.00  0.00    +0.028 A 
ATOM      6  C   UNL     1      -1.334  -2.033   0.007  0.00  0.00    +0.168 A 
ATOM      7  O   UNL     1      -0.158  -2.707  -0.094  0.00  0.00    -0.486 OA
ATOM      8  C   UNL     1      -0.207  -4.085  -0.465  0.00  0.00    +0.251 C 
ATOM      9  C   UNL     1      -1.246  -4.787   0.420  0.00  0.00    +0.127 C 
ATOM     10  C   UNL     1      -2.622  -4.197   0.116  0.00  0.00    +0.168 C 
ENDROOT
BRANCH   9  11
ATOM     11  N   UNL     1      -1.246  -6.228   0.135  0.00  0.00    -0.293 NA
ATOM     12  C   UNL     1      -0.066  -6.880   0.716  0.00  0.00    +0.092 C 
ATOM     13  C   UNL     1      -0.221  -8.401   0.612  0.00  0.00    +0.089 C 
ATOM     14  C   UNL     1      -0.504  -8.751  -0.834  0.00  0.00    +0.136 C 
ATOM     15  O   UNL     1       0.115  -9.622  -1.398  0.00  0.00    -0.297 OA
ATOM     16  C   UNL     1      -1.589  -7.973  -1.550  0.00  0.00    +0.089 C 
ATOM     17  C   UNL     1      -1.346  -6.479  -1.308  0.00  0.00    +0.092 C 
ENDBRANCH   9  11
BRANCH   1  19
ATOM     18  C   UNL     1      -0.158   1.444  -0.086  0.00  0.00    +0.277 C 
ATOM     19  O   UNL     1      -0.116   0.015  -0.097  0.00  0.00    -0.491 OA
ENDBRANCH   1  19
BRANCH  10  20
ATOM     20  O   UNL     1      -3.563  -4.626   1.103  0.00  0.00    -0.385 OA
ATOM     21  H   UNL     1      -4.460  -4.293   0.961  0.00  0.00    +0.210 HD
ENDBRANCH  10  20
TORSDOF 3
