REMARK  Name = ZINC19424701
REMARK  3 active torsions:
REMARK  status: ('A' for Active; 'I' for Inactive)
REMARK    1  A    between atoms: C_4  and  N_10
REMARK    2  A    between atoms: C_5  and  C_7
REMARK    3  A    between atoms: C_11  and  C_13
REMARK                            x       y       z     vdW  Elec       q    Type
REMARK                         _______ _______ _______ _____ _____    ______ ____
ROOT
ATOM      1  N   UNL     1       0.183  -2.930   0.182  0.00  0.00    -0.286 N 
ATOM      2  C   UNL     1       0.265  -4.261   0.374  0.00  0.00    +0.203 C 
ATOM      3  O   UNL     1       1.346  -4.783   0.546  0.00  0.00    -0.277 OA
ATOM      4  H   UNL     1      -0.802  -2.444   0.113  0.00  0.00    +0.155 HD
ENDROOT
BRANCH   2   5
ATOM      5  C   UNL     1      -0.986  -5.101   0.376  0.00  0.00    +0.017 C 
ATOM      6  C   UNL     1      -1.434  -5.385  -1.076  0.00  0.00    -0.005 C 
ATOM      7  C   UNL     1      -1.977  -6.845  -0.980  0.00  0.00    -0.026 C 
ATOM      8  C   UNL     1      -3.351  -6.757  -0.314  0.00  0.00    +0.002 C 
ATOM      9  C   UNL     1      -3.787  -8.127   0.202  0.00  0.00    +0.000 C 
ATOM     10  C   UNL     1      -2.784  -8.596   1.261  0.00  0.00    -0.002 C 
ATOM     11  C   UNL     1      -1.417  -8.758   0.596  0.00  0.00    -0.015 C 
ATOM     12  C   UNL     1      -0.946  -7.452  -0.007  0.00  0.00    -0.068 C 
ATOM     13  N   UNL     1      -0.714  -6.412   1.007  0.00  0.00    +0.389 N 
ATOM     14  H   UNL     1       0.329  -6.442   1.355  0.00  0.00    -0.084 HD
ATOM     15  H   UNL     1      -1.390  -6.554   1.863  0.00  0.00    -0.084 HD
ENDBRANCH   2   5
BRANCH   1  19
ATOM     16  C   UNL     1       3.663  -0.656  -0.147  0.00  0.00    +0.001 A 
ATOM     17  C   UNL     1       3.620  -1.945  -0.653  0.00  0.00    +0.002 A 
ATOM     18  C   UNL     1       2.468  -2.698  -0.549  0.00  0.00    +0.024 A 
ATOM     19  C   UNL     1       1.344  -2.169   0.071  0.00  0.00    +0.045 A 
ATOM     20  C   UNL     1       1.383  -0.863   0.580  0.00  0.00    +0.058 A 
ATOM     21  C   UNL     1       2.555  -0.112   0.468  0.00  0.00    +0.015 A 
BRANCH  20  22
ATOM     22  C   UNL     1       0.194  -0.287   1.237  0.00  0.00    +0.243 C 
ATOM     23  O   UNL     1      -0.852  -0.907   1.253  0.00  0.00    -0.270 OA
ATOM     24  N   UNL     1       0.266   0.927   1.819  0.00  0.00    -0.325 N 
ATOM     25  H   UNL     1      -0.620   1.356   2.308  0.00  0.00    +0.145 HD
ATOM     26  H   UNL     1       1.212   1.488   1.804  0.00  0.00    +0.145 HD
ENDBRANCH  20  22
ENDBRANCH   1  19
TORSDOF 3
