REMARK  Name = ZINC36997200
REMARK  7 active torsions:
REMARK  status: ('A' for Active; 'I' for Inactive)
REMARK    1  A    between atoms: C_1  and  C_2
REMARK    2  A    between atoms: C_5  and  C_7
REMARK    3  A    between atoms: C_7  and  C_9
REMARK    4  A    between atoms: C_7  and  N_10
REMARK    5  A    between atoms: N_10  and  C_11
REMARK    6  A    between atoms: C_16  and  C_17
REMARK    7  A    between atoms: C_21  and  C_23
REMARK                            x       y       z     vdW  Elec       q    Type
REMARK                         _______ _______ _______ _____ _____    ______ ____
ROOT
ATOM      1  C   UNL     1       2.592  -5.363  -1.464  0.00  0.00    +0.038 A 
ATOM      2  C   UNL     1       1.905  -6.522  -1.129  0.00  0.00    +0.023 A 
ATOM      3  C   UNL     1       2.213  -7.714  -1.756  0.00  0.00    +0.002 A 
ATOM      4  C   UNL     1       3.205  -7.760  -2.721  0.00  0.00    +0.001 A 
ATOM      5  C   UNL     1       3.896  -6.616  -3.064  0.00  0.00    +0.013 A 
ATOM      6  C   UNL     1       3.591  -5.407  -2.443  0.00  0.00    +0.042 A 
ENDROOT
BRANCH   6   7
ATOM      7  C   UNL     1       4.327  -4.173  -2.813  0.00  0.00    +0.183 A 
ATOM      8  N   UNL     1       4.560  -3.758  -4.039  0.00  0.00    -0.152 NA
ATOM      9  H   UNL     1       5.603  -2.006  -4.658  0.00  0.00    +0.190 HD
ATOM     10  N   UNL     1       5.281  -2.558  -3.929  0.00  0.00    -0.262 N 
ATOM     11  C   UNL     1       5.438  -2.326  -2.613  0.00  0.00    +0.122 A 
ATOM     12  N   UNL     1       4.859  -3.294  -1.954  0.00  0.00    -0.212 NA
ATOM     13  C   UNL     1       6.154  -1.147  -2.005  0.00  0.00    +0.087 C 
ENDBRANCH   6   7
BRANCH   1  14
ATOM     14  N   UNL     1       2.284  -4.159  -0.832  0.00  0.00    -0.336 N 
ATOM     15  H   UNL     1       2.815  -3.368  -1.010  0.00  0.00    +0.147 HD
BRANCH  14  16
ATOM     16  C   UNL     1       1.157  -4.090   0.102  0.00  0.00    +0.104 C 
ATOM     17  C   UNL     1       1.619  -4.532   1.492  0.00  0.00    +0.033 C 
BRANCH  16  22
ATOM     18  C   UNL     1       0.196   1.488   0.327  0.00  0.00    +0.051 C 
ATOM     19  C   UNL     1       0.189  -0.018   0.277  0.00  0.00    -0.013 A 
ATOM     20  C   UNL     1      -0.867  -0.868   0.288  0.00  0.00    +0.011 A 
ATOM     21  C   UNL     1      -0.632  -2.229   0.233  0.00  0.00    +0.013 A 
ATOM     22  C   UNL     1       0.647  -2.673   0.170  0.00  0.00    +0.010 A 
ATOM     23  S   UNL     1       1.570  -1.145   0.180  0.00  0.00    -0.097 S 
ENDBRANCH  16  22
ENDBRANCH  14  16
ENDBRANCH   1  14
TORSDOF 4
