REMARK  Name = ZINC09089691
REMARK  7 active torsions:
REMARK  status: ('A' for Active; 'I' for Inactive)
REMARK    1  A    between atoms: C_1  and  C_2
REMARK    2  A    between atoms: C_7  and  N_8
REMARK    3  A    between atoms: C_13  and  C_18
REMARK    4  A    between atoms: C_15  and  O_17
REMARK    5  A    between atoms: C_18  and  S_19
REMARK    6  A    between atoms: S_19  and  C_20
REMARK    7  A    between atoms: C_23  and  C_25
REMARK                            x       y       z     vdW  Elec       q    Type
REMARK                         _______ _______ _______ _____ _____    ______ ____
ROOT
ATOM      1  N   UNL     1       0.564  -2.315  -0.150  0.00  0.00    -0.327 N 
ATOM      2  C   UNL     1      -0.778  -2.050   0.009  0.00  0.00    +0.180 C 
ATOM      3  N   UNL     1      -1.681  -3.088   0.085  0.00  0.00    -0.296 N 
ATOM      4  C   UNL     1      -1.255  -4.394  -0.109  0.00  0.00    +0.234 A 
ATOM      5  N   UNL     1      -2.152  -5.368  -0.143  0.00  0.00    -0.216 NA
ATOM      6  C   UNL     1      -1.783  -6.626  -0.332  0.00  0.00    +0.060 A 
ATOM      7  C   UNL     1      -0.441  -6.921  -0.484  0.00  0.00    +0.091 A 
ATOM      8  C   UNL     1       0.479  -5.876  -0.437  0.00  0.00    +0.217 A 
ATOM      9  N   UNL     1       0.039  -4.637  -0.250  0.00  0.00    -0.177 NA
ATOM     10  H   UNL     1       0.866  -3.228  -0.282  0.00  0.00    +0.169 HD
ATOM     11  H   UNL     1      -2.108  -0.530   0.267  0.00  0.00    +0.159 HD
ATOM     12  H   UNL     1      -2.615  -2.906   0.274  0.00  0.00    +0.172 HD
ATOM     13  N   UNL     1      -1.137  -0.777   0.075  0.00  0.00    -0.371 N 
ATOM     14  H   UNL     1      -0.437  -0.038  -0.066  0.00  0.00    +0.159 HD
ENDROOT
BRANCH   1  21
ATOM     15  C   UNL     1       3.118  -2.816   1.000  0.00  0.00    +0.046 C 
ATOM     16  C   UNL     1       2.751  -1.471   0.429  0.00  0.00    -0.027 A 
ATOM     17  C   UNL     1       3.665  -0.435   0.457  0.00  0.00    +0.005 A 
ATOM     18  C   UNL     1       3.327   0.801  -0.062  0.00  0.00    +0.000 A 
ATOM     19  C   UNL     1       2.074   1.005  -0.610  0.00  0.00    +0.002 A 
ATOM     20  C   UNL     1       1.155  -0.025  -0.641  0.00  0.00    +0.026 A 
ATOM     21  C   UNL     1       1.492  -1.269  -0.121  0.00  0.00    +0.045 A 
ENDBRANCH   1  21
BRANCH   8  22
ATOM     22  O   UNL     1       1.804  -6.120  -0.581  0.00  0.00    -0.492 OA
ATOM     23  H   UNL     1       2.264  -6.296   0.252  0.00  0.00    +0.294 HD
ENDBRANCH   8  22
BRANCH   6  24
ATOM     24  C   UNL     1      -2.815  -7.724  -0.376  0.00  0.00    +0.132 C 
BRANCH  24  25
ATOM     25  S   UNL     1      -3.082  -8.367   1.295  0.00  0.00    -0.091 S 
BRANCH  25  26
ATOM     26  C   UNL     1      -4.296  -9.599   0.958  0.00  0.00    +0.159 A 
ATOM     27  N   UNL     1      -4.856  -9.954  -0.192  0.00  0.00    -0.135 NA
ATOM     28  N   UNL     1      -5.721 -10.870  -0.255  0.00  0.00    -0.146 NA
ATOM     29  C   UNL     1      -6.124 -11.529   0.812  0.00  0.00    +0.100 A 
ATOM     30  S   UNL     1      -5.124 -10.735   2.067  0.00  0.00    -0.044 S 
ATOM     31  C   UNL     1      -7.134 -12.640   0.940  0.00  0.00    +0.075 C 
ENDBRANCH  25  26
ENDBRANCH  24  25
ENDBRANCH   6  24
TORSDOF 5
