REMARK  Name = ZINC36142433
REMARK  9 active torsions:
REMARK  status: ('A' for Active; 'I' for Inactive)
REMARK    1  A    between atoms: C_1  and  C_2
REMARK    2  A    between atoms: C_2  and  O_3
REMARK    3  A    between atoms: O_3  and  C_4
REMARK    4  A    between atoms: C_10  and  C_16
REMARK    5  A    between atoms: C_10  and  N_20
REMARK    6  A    between atoms: C_12  and  C_14
REMARK    7  A    between atoms: C_12  and  C_15
REMARK    8  A    between atoms: C_16  and  O_18
REMARK    9  A    between atoms: O_18  and  C_19
REMARK                            x       y       z     vdW  Elec       q    Type
REMARK                         _______ _______ _______ _____ _____    ______ ____
ROOT
ATOM      1  C   UNL     1      -1.559  -2.369  -0.800  0.00  0.00    +0.126 A 
ATOM      2  C   UNL     1      -0.600  -3.353  -0.985  0.00  0.00    +0.046 A 
ATOM      3  C   UNL     1      -0.915  -4.676  -0.744  0.00  0.00    +0.007 A 
ATOM      4  C   UNL     1      -2.184  -5.018  -0.323  0.00  0.00    +0.046 A 
ATOM      5  C   UNL     1      -3.151  -4.035  -0.136  0.00  0.00    +0.127 A 
ATOM      6  C   UNL     1      -2.835  -2.709  -0.367  0.00  0.00    +0.035 A 
ATOM      7  C   UNL     1      -3.847  -1.611  -0.161  0.00  0.00    +0.065 C 
ATOM      8  C   UNL     1      -5.256  -2.210  -0.120  0.00  0.00    +0.050 C 
ATOM      9  C   UNL     1      -5.241  -3.410   0.835  0.00  0.00    +0.105 C 
ATOM     10  O   UNL     1      -4.389  -4.414   0.275  0.00  0.00    -0.486 OA
ATOM     11  C   UNL     1      -4.712  -2.974   2.203  0.00  0.00    +0.055 C 
ATOM     12  C   UNL     1      -6.659  -3.967   0.984  0.00  0.00    +0.055 C 
ENDROOT
BRANCH   7  13
ATOM     13  N   UNL     1      -3.757  -0.649  -1.267  0.00  0.00    +0.392 N 
ATOM     14  H   UNL     1      -3.767  -1.144  -2.146  0.00  0.00    -0.088 HD
ATOM     15  H   UNL     1      -4.544  -0.018  -1.229  0.00  0.00    -0.088 HD
ATOM     16  H   UNL     1      -2.900  -0.123  -1.187  0.00  0.00    -0.088 HD
ENDBRANCH   7  13
BRANCH   7  17
ATOM     17  C   UNL     1      -3.565  -0.906   1.140  0.00  0.00    +0.300 C 
ATOM     18  O   UNL     1      -2.783  -1.383   1.929  0.00  0.00    -0.252 OA
BRANCH  17  19
ATOM     19  O   UNL     1      -4.181   0.252   1.424  0.00  0.00    -0.469 OA
ATOM     20  C   UNL     1      -3.866   0.865   2.675  0.00  0.00    +0.280 C 
ENDBRANCH  17  19
ENDBRANCH   7  17
BRANCH   1  21
ATOM     21  O   UNL     1      -1.248  -1.067  -1.038  0.00  0.00    -0.492 OA
BRANCH  21  23
ATOM     22  C   UNL     1       0.241   0.719  -1.694  0.00  0.00    +0.048 C 
ATOM     23  C   UNL     1       0.081  -0.787  -1.480  0.00  0.00    +0.225 C 
ENDBRANCH  21  23
ENDBRANCH   1  21
TORSDOF 5
