REMARK  Name = ZINC51490180
REMARK  9 active torsions:
REMARK  status: ('A' for Active; 'I' for Inactive)
REMARK    1  A    between atoms: C_1  and  C_2
REMARK    2  A    between atoms: C_2  and  N_3
REMARK    3  A    between atoms: N_3  and  C_4
REMARK    4  A    between atoms: C_4  and  C_5
REMARK    5  A    between atoms: C_9  and  N_11
REMARK    6  A    between atoms: N_11  and  C_12
REMARK    7  A    between atoms: N_11  and  C_13
REMARK    8  A    between atoms: C_16  and  C_20
REMARK    9  A    between atoms: C_18  and  C_19
REMARK                            x       y       z     vdW  Elec       q    Type
REMARK                         _______ _______ _______ _____ _____    ______ ____
ROOT
ATOM      1  C   UNL     1      -2.770  -2.503   0.015  0.00  0.00    +0.045 A 
ATOM      2  C   UNL     1      -3.400  -2.740   1.222  0.00  0.00    +0.060 A 
ATOM      3  C   UNL     1      -4.704  -3.221   1.225  0.00  0.00    +0.025 A 
ATOM      4  C   UNL     1      -5.327  -3.446   0.010  0.00  0.00    +0.045 A 
ATOM      5  C   UNL     1      -4.632  -3.185  -1.166  0.00  0.00    +0.126 A 
ATOM      6  N   UNL     1      -3.392  -2.722  -1.128  0.00  0.00    -0.237 NA
ATOM      7 CL   UNL     1      -2.572  -2.441   2.718  0.00  0.00    -0.082 Cl
ENDROOT
BRANCH   5   8
ATOM      8  N   UNL     1      -5.247  -3.408  -2.394  0.00  0.00    -0.288 N 
ATOM      9  C   UNL     1      -6.655  -3.809  -2.446  0.00  0.00    +0.137 C 
BRANCH   8  10
ATOM     10  C   UNL     1      -4.522  -3.248  -3.578  0.00  0.00    +0.038 A 
ATOM     11  C   UNL     1      -3.838  -4.326  -4.126  0.00  0.00    +0.024 A 
ATOM     12  C   UNL     1      -3.123  -4.165  -5.296  0.00  0.00    +0.005 A 
ATOM     13  C   UNL     1      -3.087  -2.932  -5.923  0.00  0.00    -0.050 A 
ATOM     14  C   UNL     1      -3.767  -1.857  -5.380  0.00  0.00    +0.008 A 
ATOM     15  C   UNL     1      -4.489  -2.013  -4.212  0.00  0.00    -0.029 A 
ATOM     16  C   UNL     1      -5.234  -0.843  -3.625  0.00  0.00    +0.045 C 
ATOM     17  C   UNL     1      -2.305  -2.760  -7.199  0.00  0.00    +0.044 C 
ENDBRANCH   8  10
ENDBRANCH   5   8
BRANCH   1  18
ATOM     18  C   UNL     1      -1.356  -1.981   0.004  0.00  0.00    -0.025 C 
BRANCH  18  19
ATOM     19  N   UNL     1      -1.376  -0.512   0.012  0.00  0.00    +0.383 N 
ATOM     20  H   UNL     1      -1.848  -0.187   0.843  0.00  0.00    -0.085 HD
ATOM     21  H   UNL     1      -1.864  -0.178  -0.805  0.00  0.00    -0.085 HD
BRANCH  19  23
ATOM     22  C   UNL     1      -0.019   1.526   0.010  0.00  0.00    -0.017 C 
ATOM     23  C   UNL     1       0.002  -0.004   0.002  0.00  0.00    -0.086 C 
ENDBRANCH  19  23
ENDBRANCH  18  19
ENDBRANCH   1  18
TORSDOF 5
