REMARK  Name = ZINC40346991
REMARK  7 active torsions:
REMARK  status: ('A' for Active; 'I' for Inactive)
REMARK    1  A    between atoms: C_1  and  C_2
REMARK    2  A    between atoms: C_5  and  N_20
REMARK    3  A    between atoms: C_6  and  S_9
REMARK    4  A    between atoms: C_7  and  C_8
REMARK    5  A    between atoms: S_9  and  N_12
REMARK    6  A    between atoms: N_12  and  C_13
REMARK    7  A    between atoms: C_13  and  C_14
REMARK                            x       y       z     vdW  Elec       q    Type
REMARK                         _______ _______ _______ _____ _____    ______ ____
ROOT
ATOM      1  S   UNL     1      -0.719  -3.032   2.573  0.00  0.00    +0.061 S 
ATOM      2  O   UNL     1      -1.633  -2.236   3.315  0.00  0.00    -0.153 OA
ATOM      3  O   UNL     1      -1.033  -4.348   2.138  0.00  0.00    -0.153 OA
ENDROOT
BRANCH   1   9
ATOM      4  C   UNL     1      -0.289   1.486  -0.017  0.00  0.00    +0.044 C 
ATOM      5  C   UNL     1      -0.127  -0.012  -0.011  0.00  0.00    -0.046 A 
ATOM      6  C   UNL     1       0.345  -0.659  -1.138  0.00  0.00    +0.005 A 
ATOM      7  C   UNL     1       0.494  -2.032  -1.136  0.00  0.00    +0.025 A 
ATOM      8  C   UNL     1       0.170  -2.763  -0.001  0.00  0.00    +0.052 A 
ATOM      9  C   UNL     1      -0.304  -2.110   1.130  0.00  0.00    +0.129 A 
ATOM     10  C   UNL     1      -0.446  -0.736   1.123  0.00  0.00    -0.019 A 
ATOM     11  C   UNL     1      -0.955  -0.025   2.351  0.00  0.00    +0.046 C 
BRANCH   8  12
ATOM     12  N   UNL     1       0.319  -4.152   0.005  0.00  0.00    -0.356 N 
ATOM     13  H   UNL     1       0.342  -4.640  -0.833  0.00  0.00    +0.142 HD
ATOM     14  H   UNL     1       0.399  -4.628   0.846  0.00  0.00    +0.142 HD
ENDBRANCH   8  12
ENDBRANCH   1   9
BRANCH   1  15
ATOM     15  N   UNL     1       0.656  -3.152   3.489  0.00  0.00    -0.185 NA
ATOM     16  H   UNL     1       1.063  -4.019   3.641  0.00  0.00    +0.148 HD
BRANCH  15  17
ATOM     17  C   UNL     1       1.256  -1.948   4.069  0.00  0.00    +0.148 C 
BRANCH  17  18
ATOM     18  C   UNL     1       2.248  -2.344   5.133  0.00  0.00    +0.006 A 
ATOM     19  C   UNL     1       3.574  -2.595   5.012  0.00  0.00    +0.013 A 
ATOM     20  C   UNL     1       4.295  -2.947   6.138  0.00  0.00    +0.023 A 
ATOM     21  C   UNL     1       3.654  -3.031   7.330  0.00  0.00    +0.055 A 
ATOM     22  S   UNL     1       1.981  -2.597   6.880  0.00  0.00    -0.085 S 
ATOM     23 BR   UNL     1       4.351  -3.482   9.029  0.00  0.00    -0.043 Br
ENDBRANCH  17  18
ENDBRANCH  15  17
ENDBRANCH   1  15
TORSDOF 5
