REMARK  Name = ZINC06623782
REMARK  10 active torsions:
REMARK  status: ('A' for Active; 'I' for Inactive)
REMARK    1  A    between atoms: C_1  and  C_2
REMARK    2  A    between atoms: C_2  and  C_4
REMARK    3  A    between atoms: C_2  and  C_5
REMARK    4  A    between atoms: C_5  and  C_7
REMARK    5  A    between atoms: C_5  and  N_19
REMARK    6  A    between atoms: N_9  and  C_10
REMARK    7  A    between atoms: C_10  and  C_11
REMARK    8  A    between atoms: C_16  and  O_17
REMARK    9  A    between atoms: O_17  and  C_18
REMARK   10  A    between atoms: C_20  and  C_22
REMARK                            x       y       z     vdW  Elec       q    Type
REMARK                         _______ _______ _______ _____ _____    ______ ____
ROOT
ATOM      1  C   UNL     1      -6.664  -0.546  -0.755  0.00  0.00    +0.161 C 
ENDROOT
BRANCH   1   2
ATOM      2  C   UNL     1      -7.249  -0.997  -2.069  0.00  0.00    +0.234 C 
ATOM      3  O   UNL     1      -6.676  -0.743  -3.107  0.00  0.00    -0.274 OA
ATOM      4  N   UNL     1      -8.409  -1.683  -2.090  0.00  0.00    -0.310 N 
ATOM      5  H   UNL     1      -8.867  -1.886  -1.260  0.00  0.00    +0.149 HD
BRANCH   4   6
ATOM      6  C   UNL     1      -8.977  -2.122  -3.367  0.00  0.00    +0.143 C 
BRANCH   6   7
ATOM      7  C   UNL     1     -10.266  -2.861  -3.115  0.00  0.00    +0.011 A 
ATOM      8  C   UNL     1     -10.284  -4.243  -3.128  0.00  0.00    +0.009 A 
ATOM      9  C   UNL     1     -11.465  -4.922  -2.892  0.00  0.00    +0.001 A 
ATOM     10  C   UNL     1     -12.633  -4.221  -2.654  0.00  0.00    +0.004 A 
ATOM     11  C   UNL     1     -12.621  -2.840  -2.645  0.00  0.00    +0.046 A 
ATOM     12  C   UNL     1     -11.436  -2.156  -2.876  0.00  0.00    +0.125 A 
BRANCH  12  13
ATOM     13  O   UNL     1     -11.422  -0.797  -2.869  0.00  0.00    -0.495 OA
ATOM     14  C   UNL     1     -12.664  -0.137  -2.616  0.00  0.00    +0.277 C 
ENDBRANCH  12  13
ENDBRANCH   6   7
ENDBRANCH   4   6
ENDBRANCH   1   2
BRANCH   1  15
ATOM     15  N   UNL     1      -5.411   0.173  -1.000  0.00  0.00    -0.305 N 
ATOM     16  C   UNL     1      -4.969   1.081  -0.107  0.00  0.00    +0.200 C 
ATOM     17  O   UNL     1      -5.609   1.301   0.900  0.00  0.00    -0.278 OA
ATOM     18  H   UNL     1      -4.900  -0.003  -1.805  0.00  0.00    +0.149 HD
BRANCH  16  19
ATOM     19  C   UNL     1      -3.681   1.820  -0.358  0.00  0.00    +0.021 C 
ATOM     20  C   UNL     1      -2.496   0.940   0.042  0.00  0.00    +0.028 C 
ATOM     21  C   UNL     1      -1.225   1.749   0.017  0.00  0.00    -0.047 A 
ATOM     22  C   UNL     1      -0.013   1.076   0.008  0.00  0.00    +0.004 A 
ATOM     23  C   UNL     1       1.175   1.779   0.000  0.00  0.00    +0.000 A 
ATOM     24  C   UNL     1       1.157   3.161   0.007  0.00  0.00    +0.000 A 
ATOM     25  C   UNL     1      -0.049   3.832   0.020  0.00  0.00    +0.002 A 
ATOM     26  C   UNL     1      -1.244   3.127   0.027  0.00  0.00    -0.061 A 
ATOM     27  C   UNL     1      -2.535   3.904   0.035  0.00  0.00    -0.045 C 
ATOM     28  N   UNL     1      -3.651   3.047   0.459  0.00  0.00    +0.389 N 
ATOM     29  H   UNL     1      -3.531   2.796   1.447  0.00  0.00    -0.084 HD
ATOM     30  H   UNL     1      -4.535   3.557   0.341  0.00  0.00    -0.084 HD
ENDBRANCH  16  19
ENDBRANCH   1  15
BRANCH   1  32
ATOM     31  C   UNL     1      -5.911  -1.302   1.504  0.00  0.00    +0.009 C 
ATOM     32  C   UNL     1      -6.388  -1.766   0.126  0.00  0.00    +0.012 C 
ATOM     33  C   UNL     1      -5.305  -2.630  -0.524  0.00  0.00    +0.009 C 
ENDBRANCH   1  32
TORSDOF 7
