REMARK  Name = ZINC13640480
REMARK  8 active torsions:
REMARK  status: ('A' for Active; 'I' for Inactive)
REMARK    1  A    between atoms: C_1  and  C_2
REMARK    2  A    between atoms: C_2  and  C_3
REMARK    3  A    between atoms: C_2  and  C_4
REMARK    4  A    between atoms: C_2  and  N_5
REMARK    5  A    between atoms: C_6  and  C_8
REMARK    6  A    between atoms: C_21  and  C_24
REMARK    7  A    between atoms: C_27  and  O_31
REMARK    8  A    between atoms: C_29  and  O_30
REMARK                            x       y       z     vdW  Elec       q    Type
REMARK                         _______ _______ _______ _____ _____    ______ ____
ROOT
ATOM      1  C   UNL     1      -0.191   0.873   0.148  0.00  0.00    +0.037 A 
ATOM      2  C   UNL     1       0.039   2.252   0.161  0.00  0.00    +0.015 A 
ATOM      3  C   UNL     1       1.330   2.726   0.118  0.00  0.00    +0.024 A 
ATOM      4  C   UNL     1       2.401   1.837   0.064  0.00  0.00    +0.031 A 
ATOM      5  C   UNL     1       2.184   0.465   0.050  0.00  0.00    -0.019 A 
ATOM      6  C   UNL     1       0.886  -0.012   0.092  0.00  0.00    +0.019 A 
ATOM      7  C   UNL     1       3.307  -0.522  -0.010  0.00  0.00    +0.049 C 
ATOM      8  C   UNL     1       3.536  -1.178   1.331  0.00  0.00    -0.023 C 
ATOM      9  C   UNL     1       4.816  -1.382   1.524  0.00  0.00    -0.030 C 
ATOM     10  C   UNL     1       5.617  -0.894   0.331  0.00  0.00    +0.033 C 
ATOM     11  C   UNL     1       4.662   0.130  -0.349  0.00  0.00    +0.029 C 
ATOM     12  C   UNL     1       4.803   1.455   0.408  0.00  0.00    +0.108 C 
ATOM     13  N   UNL     1       3.699   2.341   0.026  0.00  0.00    -0.336 N 
ATOM     14  H   UNL     1       3.869   3.256  -0.246  0.00  0.00    +0.147 HD
ENDROOT
BRANCH  12  15
ATOM     15  C   UNL     1       4.753   1.196   1.892  0.00  0.00    +0.015 A 
ATOM     16  C   UNL     1       3.539   1.195   2.551  0.00  0.00    +0.012 A 
ATOM     17  C   UNL     1       3.489   0.958   3.912  0.00  0.00    +0.046 A 
ATOM     18  C   UNL     1       4.660   0.720   4.619  0.00  0.00    +0.120 A 
ATOM     19  C   UNL     1       5.879   0.721   3.959  0.00  0.00    +0.091 A 
ATOM     20  C   UNL     1       5.925   0.954   2.593  0.00  0.00    +0.125 A 
BRANCH  20  21
ATOM     21  O   UNL     1       7.119   0.949   1.943  0.00  0.00    -0.506 OA
ATOM     22  H   UNL     1       7.551   1.813   1.908  0.00  0.00    +0.292 HD
ENDBRANCH  20  21
BRANCH  18  23
ATOM     23  O   UNL     1       4.610   0.488   5.957  0.00  0.00    -0.507 OA
ATOM     24  H   UNL     1       4.513  -0.446   6.190  0.00  0.00    +0.292 HD
ENDBRANCH  18  23
ENDBRANCH  12  15
BRANCH   1  26
ATOM     25  N   UNL     1      -2.611   1.210   0.249  0.00  0.00    -0.307 N 
ATOM     26  C   UNL     1      -1.571   0.354   0.194  0.00  0.00    +0.244 C 
ATOM     27  O   UNL     1      -1.770  -0.845   0.183  0.00  0.00    -0.270 OA
ATOM     28  H   UNL     1      -2.452   2.167   0.258  0.00  0.00    +0.150 HD
BRANCH  25  30
ATOM     29  C   UNL     1      -4.157  -0.179   1.538  0.00  0.00    +0.031 C 
ATOM     30  C   UNL     1      -3.982   0.695   0.295  0.00  0.00    +0.026 C 
ATOM     31  C   UNL     1      -4.965   1.866   0.352  0.00  0.00    +0.031 C 
ATOM     32  C   UNL     1      -4.255  -0.140  -0.958  0.00  0.00    +0.031 C 
ENDBRANCH  25  30
ENDBRANCH   1  26
TORSDOF 5
