REMARK  Name = ZINC67192187
REMARK  5 active torsions:
REMARK  status: ('A' for Active; 'I' for Inactive)
REMARK    1  A    between atoms: C_7  and  C_11
REMARK    2  A    between atoms: C_11  and  C_12
REMARK    3  A    between atoms: C_12  and  C_13
REMARK    4  A    between atoms: C_13  and  N_14
REMARK    5  A    between atoms: C_15  and  C_17
REMARK                            x       y       z     vdW  Elec       q    Type
REMARK                         _______ _______ _______ _____ _____    ______ ____
ROOT
ATOM      1  C   UNL     1       2.497  -2.934   5.091  0.00  0.00    +0.105 C 
ENDROOT
BRANCH   1   2
ATOM      2  N   UNL     1       2.629  -2.332   6.420  0.00  0.00    -0.310 N 
ATOM      3  C   UNL     1       2.385  -3.069   7.521  0.00  0.00    +0.260 C 
ATOM      4  O   UNL     1       2.054  -4.235   7.412  0.00  0.00    -0.269 OA
ATOM      5  H   UNL     1       2.892  -1.402   6.507  0.00  0.00    +0.149 HD
BRANCH   3   6
ATOM      6  C   UNL     1       2.517  -2.466   8.852  0.00  0.00    +0.121 C 
ATOM      7  N   UNL     1       2.865  -1.221   8.958  0.00  0.00    -0.180 NA
ATOM      8  N   UNL     1       3.003  -0.613  10.210  0.00  0.00    -0.207 N 
ATOM      9  C   UNL     1       3.159  -1.363  11.319  0.00  0.00    +0.233 C 
ATOM     10  O   UNL     1       3.283  -0.830  12.401  0.00  0.00    -0.274 OA
ATOM     11  C   UNL     1       3.179  -2.866  11.209  0.00  0.00    +0.104 C 
ATOM     12  C   UNL     1       2.242  -3.299  10.075  0.00  0.00    +0.071 C 
ATOM     13  H   UNL     1       2.986   0.354  10.281  0.00  0.00    +0.177 HD
ENDBRANCH   3   6
ENDBRANCH   1   2
BRANCH   1  14
ATOM     14  C   UNL     1       2.827  -1.889   4.022  0.00  0.00    +0.026 C 
BRANCH  14  15
ATOM     15  C   UNL     1       2.689  -2.518   2.635  0.00  0.00    +0.078 C 
BRANCH  15  22
ATOM     16  C   UNL     1      -0.019   1.524   0.010  0.00  0.00    +0.002 C 
ATOM     17  C   UNL     1       1.403   2.078  -0.000  0.00  0.00    +0.008 C 
ATOM     18  C   UNL     1       2.311   1.146  -0.809  0.00  0.00    +0.076 C 
ATOM     19  C   UNL     1       2.864   0.083   0.104  0.00  0.00    +0.133 A 
ATOM     20  N   UNL     1       4.102  -0.311   0.193  0.00  0.00    -0.134 NA
ATOM     21  N   UNL     1       4.193  -1.250   1.070  0.00  0.00    -0.134 NA
ATOM     22  C   UNL     1       3.015  -1.490   1.582  0.00  0.00    +0.134 A 
ATOM     23  N   UNL     1       2.144  -0.643   0.991  0.00  0.00    -0.315 N 
ATOM     24  C   UNL     1       0.711  -0.518   1.258  0.00  0.00    +0.125 C 
ATOM     25  C   UNL     1       0.002  -0.004   0.002  0.00  0.00    +0.022 C 
ENDBRANCH  15  22
ENDBRANCH  14  15
ENDBRANCH   1  14
TORSDOF 5
