REMARK  Name = ZINC21302753
REMARK  6 active torsions:
REMARK  status: ('A' for Active; 'I' for Inactive)
REMARK    1  A    between atoms: C_1  and  C_2
REMARK    2  A    between atoms: C_2  and  C_3
REMARK    3  A    between atoms: C_6  and  C_9
REMARK    4  A    between atoms: C_9  and  C_11
REMARK    5  A    between atoms: C_9  and  N_12
REMARK    6  A    between atoms: N_12  and  C_13
REMARK                            x       y       z     vdW  Elec       q    Type
REMARK                         _______ _______ _______ _____ _____    ______ ____
ROOT
ATOM      1  N   UNL     1       3.820   5.304  -0.008  0.00  0.00    -0.337 N 
ATOM      2  H   UNL     1       3.440   6.336   0.001  0.00  0.00    +0.147 HD
ENDROOT
BRANCH   1   3
ATOM      3  C   UNL     1       2.931   4.235  -0.004  0.00  0.00    +0.028 A 
ATOM      4  C   UNL     1       3.416   2.932  -0.016  0.00  0.00    +0.024 A 
ATOM      5  C   UNL     1       2.542   1.861  -0.013  0.00  0.00    +0.015 A 
ATOM      6  C   UNL     1       1.172   2.087   0.002  0.00  0.00    +0.049 A 
ATOM      7  C   UNL     1       0.676   3.408   0.014  0.00  0.00    +0.051 A 
ATOM      8  C   UNL     1       1.557   4.474   0.011  0.00  0.00    +0.036 A 
ATOM      9  C   UNL     1      -0.797   3.287   0.027  0.00  0.00    +0.251 C 
ATOM     10  O   UNL     1      -1.585   4.210   0.040  0.00  0.00    -0.270 OA
ATOM     11  N   UNL     1      -1.118   1.980   0.018  0.00  0.00    -0.248 N 
ATOM     12  C   UNL     1      -0.014   1.211   0.009  0.00  0.00    +0.251 C 
ATOM     13  O   UNL     1       0.002  -0.004   0.002  0.00  0.00    -0.270 OA
ATOM     14  H   UNL     1      -2.174   1.673   0.018  0.00  0.00    +0.158 HD
ENDBRANCH   1   3
BRANCH   1  15
ATOM     15  C   UNL     1       5.264   5.056  -0.024  0.00  0.00    +0.098 C 
ATOM     16  C   UNL     1       5.731   4.853  -1.466  0.00  0.00    +0.033 C 
BRANCH  15  20
ATOM     17  C   UNL     1       7.303   8.404   1.674  0.00  0.00    -0.048 A 
ATOM     18  C   UNL     1       7.729   7.119   1.957  0.00  0.00    +0.004 A 
ATOM     19  C   UNL     1       7.069   6.036   1.407  0.00  0.00    +0.006 A 
ATOM     20  C   UNL     1       5.983   6.237   0.576  0.00  0.00    -0.028 A 
ATOM     21  C   UNL     1       5.561   7.521   0.289  0.00  0.00    +0.006 A 
ATOM     22  C   UNL     1       6.218   8.605   0.842  0.00  0.00    +0.004 A 
BRANCH  17  24
ATOM     23  C   UNL     1       9.148  10.025   1.334  0.00  0.00    +0.009 C 
ATOM     24  C   UNL     1       8.023   9.585   2.272  0.00  0.00    +0.032 C 
ENDBRANCH  17  24
ENDBRANCH  15  20
ENDBRANCH   1  15
TORSDOF 4
