REMARK  Name = ZINC05317918
REMARK  11 active torsions:
REMARK  status: ('A' for Active; 'I' for Inactive)
REMARK    1  A    between atoms: C_1  and  C_2
REMARK    2  A    between atoms: C_2  and  C_3
REMARK    3  A    between atoms: C_3  and  C_21
REMARK    4  A    between atoms: C_10  and  C_11
REMARK    5  A    between atoms: C_10  and  N_58
REMARK    6  A    between atoms: C_12  and  C_13
REMARK    7  A    between atoms: C_13  and  N_60
REMARK    8  A    between atoms: C_14  and  C_15
REMARK    9  A    between atoms: C_14  and  N_60
REMARK   10  A    between atoms: C_16  and  C_17
REMARK   11  A    between atoms: C_16  and  N_60
REMARK                            x       y       z     vdW  Elec       q    Type
REMARK                         _______ _______ _______ _____ _____    ______ ____
ROOT
ATOM      1  C   UNL     1      -0.721   4.691   2.962  0.00  0.00    +0.067 C 
ATOM      2  C   UNL     1      -1.711   5.183   4.006  0.00  0.00    +0.040 C 
ATOM      3  C   UNL     1      -1.667   6.678   4.274  0.00  0.00    -0.039 C 
ATOM      4  C   UNL     1      -2.358   6.954   5.623  0.00  0.00    +0.003 C 
ATOM      5  C   UNL     1      -3.814   6.492   5.537  0.00  0.00    -0.018 C 
ATOM      6  C   UNL     1      -4.518   7.222   4.392  0.00  0.00    -0.077 C 
ATOM      7  C   UNL     1      -2.426   7.456   3.197  0.00  0.00    -0.070 C 
ATOM      8  C   UNL     1      -0.229   7.187   4.361  0.00  0.00    +0.033 C 
ATOM      9  C   UNL     1       0.531   6.761   3.103  0.00  0.00    +0.161 C 
ATOM     10  O   UNL     1       0.540   5.340   3.037  0.00  0.00    -0.374 OA
ATOM     11  C   UNL     1      -1.309   4.842   1.554  0.00  0.00    +0.041 C 
ATOM     12  N   UNL     1      -3.809   6.939   3.127  0.00  0.00    +0.387 N 
ATOM     13  H   UNL     1      -3.778   5.923   2.981  0.00  0.00    -0.080 HD
ENDROOT
BRANCH   1  15
ATOM     14  C   UNL     1       0.488   2.645   2.153  0.00  0.00    +0.007 C 
ATOM     15  C   UNL     1      -0.486   3.184   3.203  0.00  0.00    +0.031 C 
ENDBRANCH   1  15
BRANCH  12  16
ATOM     16  C   UNL     1      -4.525   7.564   1.995  0.00  0.00    +0.012 C 
BRANCH  16  17
ATOM     17  C   UNL     1      -5.816   6.881   1.814  0.00  0.00    -0.123 C 
ATOM     18  C   UNL     1      -6.846   6.337   1.670  0.00  0.00    -0.123 C 
BRANCH  18  19
ATOM     19  C   UNL     1      -8.137   5.654   1.489  0.00  0.00    +0.012 C 
BRANCH  19  20
ATOM     20  N   UNL     1      -8.854   6.280   0.358  0.00  0.00    +0.387 N 
ATOM     21  H   UNL     1      -8.884   7.295   0.504  0.00  0.00    -0.080 HD
BRANCH  20  22
ATOM     22  C   UNL     1      -8.144   5.998  -0.908  0.00  0.00    -0.081 C 
ATOM     23  C   UNL     1      -8.076   4.491  -1.161  0.00  0.00    -0.017 C 
ENDBRANCH  20  22
BRANCH  20  24
ATOM     24  C   UNL     1     -10.236   5.763   0.287  0.00  0.00    -0.081 C 
ATOM     25  C   UNL     1     -11.054   6.670  -0.635  0.00  0.00    -0.017 C 
ENDBRANCH  20  24
ENDBRANCH  19  20
ENDBRANCH  18  19
ENDBRANCH  16  17
ENDBRANCH  12  16
TORSDOF 7
