REMARK  Name = ZINC42959848
REMARK  8 active torsions:
REMARK  status: ('A' for Active; 'I' for Inactive)
REMARK    1  A    between atoms: C_1  and  C_2
REMARK    2  A    between atoms: C_2  and  C_3
REMARK    3  A    between atoms: C_3  and  C_5
REMARK    4  A    between atoms: C_3  and  N_24
REMARK    5  A    between atoms: C_5  and  C_7
REMARK    6  A    between atoms: C_5  and  S_14
REMARK    7  A    between atoms: S_14  and  C_15
REMARK    8  A    between atoms: C_21  and  N_23
REMARK                            x       y       z     vdW  Elec       q    Type
REMARK                         _______ _______ _______ _____ _____    ______ ____
ROOT
ATOM      1  C   UNL     1      -1.403  -2.104  -0.155  0.00  0.00    +0.070 C 
ENDROOT
BRANCH   1   2
ATOM      2  C   UNL     1      -0.799  -2.495  -1.480  0.00  0.00    -0.036 A 
ATOM      3  C   UNL     1      -1.401  -2.095  -2.658  0.00  0.00    +0.006 A 
ATOM      4  C   UNL     1      -0.847  -2.452  -3.873  0.00  0.00    +0.015 A 
ATOM      5  C   UNL     1       0.309  -3.210  -3.909  0.00  0.00    +0.018 A 
ATOM      6  C   UNL     1       0.911  -3.610  -2.730  0.00  0.00    +0.015 A 
ATOM      7  C   UNL     1       0.359  -3.248  -1.516  0.00  0.00    +0.006 A 
ATOM      8 BR   UNL     1       1.067  -3.700  -5.571  0.00  0.00    -0.050 Br
ENDBRANCH   1   2
BRANCH   1   9
ATOM      9  C   UNL     1      -1.458  -0.579  -0.049  0.00  0.00    -0.057 C 
BRANCH   9  10
ATOM     10  N   UNL     1      -2.141  -0.198   1.194  0.00  0.00    +0.381 N 
ATOM     11  H   UNL     1      -2.245   0.805   1.228  0.00  0.00    -0.090 HD
ATOM     12  H   UNL     1      -3.051  -0.632   1.224  0.00  0.00    -0.090 HD
ATOM     13  H   UNL     1      -1.595  -0.506   1.985  0.00  0.00    -0.090 HD
ENDBRANCH   9  10
BRANCH   9  15
ATOM     14  C   UNL     1      -0.090   1.512  -0.062  0.00  0.00    +0.002 C 
ATOM     15  C   UNL     1      -0.035  -0.017  -0.042  0.00  0.00    -0.018 C 
ENDBRANCH   9  15
ENDBRANCH   1   9
BRANCH   1  16
ATOM     16  S   UNL     1      -3.082  -2.779  -0.034  0.00  0.00    -0.081 S 
BRANCH  16  17
ATOM     17  C   UNL     1      -2.835  -4.520   0.080  0.00  0.00    +0.171 A 
ATOM     18  N   UNL     1      -3.909  -5.336   0.270  0.00  0.00    -0.302 N 
ATOM     19  H   UNL     1      -4.799  -4.956   0.341  0.00  0.00    +0.171 HD
ATOM     20  C   UNL     1      -3.738  -6.671   0.360  0.00  0.00    +0.254 A 
ATOM     21  O   UNL     1      -4.695  -7.410   0.529  0.00  0.00    -0.268 OA
ATOM     22  C   UNL     1      -2.446  -7.195   0.254  0.00  0.00    +0.113 A 
ATOM     23  C   UNL     1      -1.385  -6.322   0.061  0.00  0.00    +0.124 A 
ATOM     24  N   UNL     1      -1.615  -5.007  -0.025  0.00  0.00    -0.209 NA
BRANCH  23  25
ATOM     25  N   UNL     1      -0.098  -6.808  -0.047  0.00  0.00    -0.343 N 
ATOM     26  H   UNL     1       0.067  -7.762   0.012  0.00  0.00    +0.144 HD
ATOM     27  H   UNL     1       0.642  -6.196  -0.182  0.00  0.00    +0.144 HD
ENDBRANCH  23  25
ENDBRANCH  16  17
ENDBRANCH   1  16
TORSDOF 7
