REMARK  Name = ZINC39747185
REMARK  4 active torsions:
REMARK  status: ('A' for Active; 'I' for Inactive)
REMARK    1  A    between atoms: C_7  and  C_10
REMARK    2  A    between atoms: N_11  and  N_12
REMARK    3  A    between atoms: C_13  and  C_20
REMARK    4  A    between atoms: C_17  and  S_19
REMARK                            x       y       z     vdW  Elec       q    Type
REMARK                         _______ _______ _______ _____ _____    ______ ____
ROOT
ATOM      1  N   UNL     1       0.332  -5.352   0.066  0.00  0.00    -0.201 N 
ATOM      2  C   UNL     1       0.694  -6.775   0.178  0.00  0.00    +0.280 C 
ATOM      3  N   UNL     1      -0.577  -7.529   0.267  0.00  0.00    -0.225 NA
ATOM      4  N   UNL     1      -1.572  -6.643  -0.358  0.00  0.00    -0.225 NA
ATOM      5  C   UNL     1      -1.144  -5.292   0.096  0.00  0.00    +0.231 C 
ATOM      6  H   UNL     1      -0.512  -8.406  -0.228  0.00  0.00    +0.143 HD
ATOM      7  H   UNL     1      -2.502  -6.856  -0.030  0.00  0.00    +0.143 HD
ENDROOT
BRANCH   2   8
ATOM      8  C   UNL     1       1.530  -7.005   1.439  0.00  0.00    +0.424 C 
ATOM      9  F   UNL     1       0.789  -6.629   2.565  0.00  0.00    -0.167 F 
ATOM     10  F   UNL     1       1.867  -8.360   1.534  0.00  0.00    -0.167 F 
ATOM     11  F   UNL     1       2.697  -6.238   1.371  0.00  0.00    -0.167 F 
ENDBRANCH   2   8
BRANCH   1  13
ATOM     12  C   UNL     1       0.681  -3.126   0.004  0.00  0.00    +0.136 C 
ATOM     13  N   UNL     1       1.143  -4.354  -0.034  0.00  0.00    -0.188 NA
BRANCH  12  20
ATOM     14  C   UNL     1      -0.028   1.351  -0.076  0.00  0.00    +0.001 A 
ATOM     15  C   UNL     1       1.119   2.092  -0.369  0.00  0.00    +0.002 A 
ATOM     16  C   UNL     1       2.315   1.498  -0.602  0.00  0.00    +0.026 A 
ATOM     17  C   UNL     1       2.421   0.084  -0.550  0.00  0.00    +0.043 A 
ATOM     18  N   UNL     1       3.449  -0.721  -0.736  0.00  0.00    -0.380 N 
ATOM     19  C   UNL     1       3.014  -2.111  -0.566  0.00  0.00    +0.150 C 
ATOM     20  C   UNL     1       1.538  -2.050  -0.242  0.00  0.00    +0.000 C 
ATOM     21  C   UNL     1       1.210  -0.692  -0.241  0.00  0.00    +0.004 A 
ATOM     22  C   UNL     1      -0.001  -0.005  -0.010  0.00  0.00    +0.010 A 
ATOM     23  H   UNL     1       4.352  -0.438  -0.950  0.00  0.00    +0.160 HD
ENDBRANCH  12  20
ENDBRANCH   1  13
BRANCH   5  24
ATOM     24  S   UNL     1      -1.751  -4.018  -1.044  0.00  0.00    -0.138 S 
ATOM     25  H   UNL     1      -3.088  -4.075  -0.914  0.00  0.00    +0.105 HD
ENDBRANCH   5  24
TORSDOF 4
