REMARK  Name = ZINC37066437
REMARK  10 active torsions:
REMARK  status: ('A' for Active; 'I' for Inactive)
REMARK    1  A    between atoms: C_1  and  C_2
REMARK    2  A    between atoms: C_2  and  C_3
REMARK    3  A    between atoms: C_2  and  C_4
REMARK    4  A    between atoms: C_2  and  O_5
REMARK    5  A    between atoms: O_5  and  C_6
REMARK    6  A    between atoms: C_7  and  N_21
REMARK    7  A    between atoms: C_10  and  N_12
REMARK    8  A    between atoms: N_12  and  C_13
REMARK    9  A    between atoms: N_12  and  C_14
REMARK   10  A    between atoms: N_17  and  C_20
REMARK                            x       y       z     vdW  Elec       q    Type
REMARK                         _______ _______ _______ _____ _____    ______ ____
ROOT
ATOM      1  C   UNL     1       1.963  -0.082  -1.338  0.00  0.00    +0.238 A 
ATOM      2  C   UNL     1       2.667  -0.494  -2.467  0.00  0.00    +0.087 A 
ATOM      3  C   UNL     1       3.989  -0.095  -2.625  0.00  0.00    +0.031 A 
ATOM      4  C   UNL     1       4.560   0.703  -1.646  0.00  0.00    +0.046 A 
ATOM      5  C   UNL     1       3.800   1.077  -0.546  0.00  0.00    +0.125 A 
ATOM      6  N   UNL     1       2.540   0.684  -0.427  0.00  0.00    -0.196 NA
ENDROOT
BRANCH   2   7
ATOM      7  N   UNL     1       2.049  -1.303  -3.433  0.00  0.00    -0.354 N 
ATOM      8  H   UNL     1       1.126  -1.578  -3.317  0.00  0.00    +0.142 HD
ATOM      9  H   UNL     1       2.544  -1.587  -4.218  0.00  0.00    +0.142 HD
ENDBRANCH   2   7
BRANCH   5  10
ATOM     10  N   UNL     1       4.367   1.879   0.442  0.00  0.00    -0.315 N 
ATOM     11  C   UNL     1       5.720   2.413   0.265  0.00  0.00    +0.131 C 
BRANCH  10  12
ATOM     12  C   UNL     1       3.610   2.188   1.658  0.00  0.00    +0.071 C 
ATOM     13  C   UNL     1       4.378   1.681   2.882  0.00  0.00    +0.004 C 
ATOM     14  C   UNL     1       3.622   2.077   4.152  0.00  0.00    -0.077 C 
ATOM     15  N   UNL     1       3.503   3.538   4.218  0.00  0.00    +0.378 N 
ATOM     16  C   UNL     1       2.707   4.026   3.086  0.00  0.00    -0.077 C 
ATOM     17  C   UNL     1       3.427   3.704   1.775  0.00  0.00    +0.004 C 
ATOM     18  C   UNL     1       2.846   3.918   5.476  0.00  0.00    -0.096 C 
ATOM     19  H   UNL     1       4.423   3.952   4.184  0.00  0.00    -0.082 HD
ENDBRANCH  10  12
ENDBRANCH   5  10
BRANCH   1  20
ATOM     20  O   UNL     1       0.671  -0.465  -1.174  0.00  0.00    -0.469 OA
BRANCH  20  22
ATOM     21  C   UNL     1      -0.019   1.526   0.010  0.00  0.00    +0.055 C 
ATOM     22  C   UNL     1       0.002  -0.004   0.002  0.00  0.00    +0.104 C 
ATOM     23  C   UNL     1       0.742  -0.511   1.242  0.00  0.00    +0.055 C 
ATOM     24  C   UNL     1      -1.433  -0.534   0.013  0.00  0.00    +0.055 C 
ENDBRANCH  20  22
ENDBRANCH   1  20
TORSDOF 5
