REMARK  Name = ZINC38002034
REMARK  8 active torsions:
REMARK  status: ('A' for Active; 'I' for Inactive)
REMARK    1  A    between atoms: C_1  and  C_2
REMARK    2  A    between atoms: C_2  and  C_4
REMARK    3  A    between atoms: C_2  and  N_10
REMARK    4  A    between atoms: N_10  and  C_11
REMARK    5  A    between atoms: C_11  and  C_12
REMARK    6  A    between atoms: C_15  and  N_18
REMARK    7  A    between atoms: N_18  and  C_19
REMARK    8  A    between atoms: N_18  and  C_20
REMARK                            x       y       z     vdW  Elec       q    Type
REMARK                         _______ _______ _______ _____ _____    ______ ____
ROOT
ATOM      1  N   UNL     1       0.690  -0.478  -1.207  0.00  0.00    +0.386 N 
ATOM      2  H   UNL     1       1.608  -0.063  -1.256  0.00  0.00    -0.085 HD
ATOM      3  H   UNL     1       0.776  -1.482  -1.172  0.00  0.00    -0.085 HD
ENDROOT
BRANCH   1   5
ATOM      4  C   UNL     1      -0.019   1.526   0.010  0.00  0.00    -0.008 C 
ATOM      5  C   UNL     1       0.002  -0.004   0.002  0.00  0.00    -0.037 C 
BRANCH   5   6
ATOM      6  C   UNL     1       0.731  -0.503   1.223  0.00  0.00    -0.023 A 
ATOM      7  C   UNL     1       0.222  -0.979   2.386  0.00  0.00    +0.010 A 
ATOM      8  C   UNL     1       1.091  -1.386   3.381  0.00  0.00    +0.023 A 
ATOM      9  C   UNL     1       2.427  -1.297   3.164  0.00  0.00    +0.055 A 
ATOM     10  S   UNL     1       2.489  -0.629   1.510  0.00  0.00    -0.088 S 
ATOM     11 BR   UNL     1       3.853  -1.766   4.313  0.00  0.00    -0.043 Br
ENDBRANCH   5   6
ENDBRANCH   1   5
BRANCH   1  12
ATOM     12  C   UNL     1      -0.086  -0.093  -2.394  0.00  0.00    -0.046 C 
BRANCH  12  13
ATOM     13  C   UNL     1       0.620  -0.579  -3.634  0.00  0.00    -0.064 A 
ATOM     14  C   UNL     1       1.552   0.229  -4.258  0.00  0.00    +0.003 A 
ATOM     15  C   UNL     1       2.200  -0.213  -5.395  0.00  0.00    +0.023 A 
ATOM     16  C   UNL     1       1.915  -1.472  -5.910  0.00  0.00    +0.029 A 
ATOM     17  C   UNL     1       0.978  -2.281  -5.280  0.00  0.00    +0.023 A 
ATOM     18  C   UNL     1       0.338  -1.834  -4.141  0.00  0.00    +0.003 A 
BRANCH  16  19
ATOM     19  N   UNL     1       2.568  -1.922  -7.059  0.00  0.00    -0.336 N 
ATOM     20  C   UNL     1       3.556  -1.067  -7.723  0.00  0.00    +0.129 C 
ATOM     21  C   UNL     1       2.266  -3.249  -7.601  0.00  0.00    +0.129 C 
ENDBRANCH  16  19
ENDBRANCH  12  13
ENDBRANCH   1  12
TORSDOF 5
