REMARK  Name = ZINC19342538
REMARK  5 active torsions:
REMARK  status: ('A' for Active; 'I' for Inactive)
REMARK    1  A    between atoms: C_3  and  C_6
REMARK    2  A    between atoms: N_11  and  C_13
REMARK    3  A    between atoms: C_13  and  C_14
REMARK    4  A    between atoms: C_14  and  O_25
REMARK    5  A    between atoms: C_20  and  C_22
REMARK                            x       y       z     vdW  Elec       q    Type
REMARK                         _______ _______ _______ _____ _____    ______ ____
ROOT
ATOM      1  C   UNL     1      -1.769  -4.444  -0.006  0.00  0.00    +0.182 C 
ENDROOT
BRANCH   1   2
ATOM      2  C   UNL     1      -1.694  -4.939  -1.452  0.00  0.00    +0.088 C 
ATOM      3  C   UNL     1      -2.970  -4.538  -2.195  0.00  0.00    +0.055 C 
ATOM      4  C   UNL     1      -2.877  -5.004  -3.651  0.00  0.00    +0.110 C 
ATOM      5  N   UNL     1      -2.596  -6.446  -3.669  0.00  0.00    -0.301 N 
ATOM      6  C   UNL     1      -1.443  -6.951  -2.911  0.00  0.00    +0.110 C 
ATOM      7  C   UNL     1      -1.553  -6.463  -1.463  0.00  0.00    +0.055 C 
ATOM      8  C   UNL     1      -3.382  -7.290  -4.367  0.00  0.00    +0.219 C 
ATOM      9  O   UNL     1      -3.139  -8.478  -4.374  0.00  0.00    -0.275 OA
BRANCH   8  10
ATOM     10  C   UNL     1      -4.561  -6.756  -5.140  0.00  0.00    +0.075 C 
ATOM     11  C   UNL     1      -5.959  -7.119  -4.634  0.00  0.00    +0.013 C 
ATOM     12  C   UNL     1      -5.415  -7.765  -5.911  0.00  0.00    +0.013 C 
ENDBRANCH   8  10
BRANCH   2  13
ATOM     13  O   UNL     1      -0.563  -4.351  -2.098  0.00  0.00    -0.387 OA
ATOM     14  H   UNL     1      -0.344  -4.590  -3.149  0.00  0.00    +0.210 HD
ENDBRANCH   2  13
ENDBRANCH   1   2
BRANCH   1  20
ATOM     15  C   UNL     1      -1.182  -0.887   0.008  0.00  0.00    +0.126 A 
ATOM     16  C   UNL     1      -2.482  -0.325   0.029  0.00  0.00    +0.038 A 
ATOM     17  C   UNL     1      -3.551  -1.171   0.029  0.00  0.00    +0.074 A 
ATOM     18  C   UNL     1      -3.295  -2.561   0.018  0.00  0.00    +0.267 A 
ATOM     19  O   UNL     1      -4.220  -3.356   0.023  0.00  0.00    -0.266 OA
ATOM     20  N   UNL     1      -2.023  -3.002   0.004  0.00  0.00    -0.226 N 
ATOM     21  N   UNL     1      -1.026  -2.192  -0.001  0.00  0.00    -0.165 NA
BRANCH  15  24
ATOM     22  C   UNL     1       2.090   0.757  -0.014  0.00  0.00    +0.042 A 
ATOM     23  C   UNL     1       1.300  -0.410  -0.013  0.00  0.00    +0.051 A 
ATOM     24  C   UNL     1       0.002  -0.004   0.002  0.00  0.00    +0.155 A 
ATOM     25  O   UNL     1      -0.016   1.343   0.009  0.00  0.00    -0.461 OA
ATOM     26  C   UNL     1       1.244   1.806  -0.000  0.00  0.00    +0.196 A 
ENDBRANCH  15  24
ENDBRANCH   1  20
TORSDOF 5
