REMARK  Name = ZINC50426571
REMARK  10 active torsions:
REMARK  status: ('A' for Active; 'I' for Inactive)
REMARK    1  A    between atoms: C_1  and  C_2
REMARK    2  A    between atoms: C_2  and  C_3
REMARK    3  A    between atoms: C_3  and  C_5
REMARK    4  A    between atoms: C_3  and  C_6
REMARK    5  A    between atoms: C_6  and  N_7
REMARK    6  A    between atoms: C_9  and  C_22
REMARK    7  A    between atoms: C_11  and  C_21
REMARK    8  A    between atoms: C_14  and  N_18
REMARK    9  A    between atoms: N_18  and  C_19
REMARK   10  A    between atoms: C_19  and  C_20
REMARK                            x       y       z     vdW  Elec       q    Type
REMARK                         _______ _______ _______ _____ _____    ______ ____
ROOT
ATOM      1  N   UNL     1       1.228  -1.899  -2.822  0.00  0.00    -0.272 N 
ATOM      2  C   UNL     1       0.473  -2.459  -3.853  0.00  0.00    +0.041 A 
ATOM      3  C   UNL     1      -0.903  -2.632  -3.985  0.00  0.00    -0.029 A 
ATOM      4  C   UNL     1      -1.422  -3.223  -5.119  0.00  0.00    +0.008 A 
ATOM      5  C   UNL     1      -0.582  -3.647  -6.133  0.00  0.00    -0.050 A 
ATOM      6  C   UNL     1       0.786  -3.478  -6.009  0.00  0.00    +0.007 A 
ATOM      7  C   UNL     1       1.306  -2.889  -4.879  0.00  0.00    -0.031 A 
ATOM      8  C   UNL     1       2.717  -2.566  -4.444  0.00  0.00    +0.049 C 
ATOM      9  C   UNL     1       2.545  -1.917  -3.087  0.00  0.00    +0.210 C 
ATOM     10  O   UNL     1       3.429  -1.494  -2.374  0.00  0.00    -0.277 OA
ATOM     11  C   UNL     1      -1.156  -4.291  -7.368  0.00  0.00    +0.044 C 
ATOM     12  C   UNL     1      -1.827  -2.174  -2.886  0.00  0.00    +0.046 C 
ENDROOT
BRANCH   8  13
ATOM     13  N   UNL     1       3.344  -1.629  -5.386  0.00  0.00    +0.389 N 
ATOM     14  H   UNL     1       3.297  -2.008  -6.320  0.00  0.00    -0.084 HD
ATOM     15  H   UNL     1       2.855  -0.746  -5.357  0.00  0.00    -0.084 HD
BRANCH  13  16
ATOM     16  C   UNL     1       4.749  -1.423  -5.011  0.00  0.00    -0.085 C 
ATOM     17  C   UNL     1       5.402  -0.447  -5.992  0.00  0.00    -0.017 C 
ENDBRANCH  13  16
ENDBRANCH   8  13
BRANCH   1  18
ATOM     18  C   UNL     1       0.650  -1.349  -1.593  0.00  0.00    +0.117 C 
BRANCH  18  19
ATOM     19  C   UNL     1       0.164   0.078  -1.852  0.00  0.00    +0.003 C 
ATOM     20  C   UNL     1       1.362   0.975  -2.172  0.00  0.00    +0.009 C 
BRANCH  19  22
ATOM     21  C   UNL     1      -1.145   1.985  -0.907  0.00  0.00    +0.004 C 
ATOM     22  C   UNL     1      -0.551   0.608  -0.607  0.00  0.00    +0.001 C 
ENDBRANCH  19  22
ENDBRANCH  18  19
ENDBRANCH   1  18
TORSDOF 5
