REMARK  Name = ZINC61091905
REMARK  4 active torsions:
REMARK  status: ('A' for Active; 'I' for Inactive)
REMARK    1  A    between atoms: N_5  and  C_9
REMARK    2  A    between atoms: C_7  and  N_8
REMARK    3  A    between atoms: C_9  and  C_10
REMARK    4  A    between atoms: C_16  and  C_18
REMARK                            x       y       z     vdW  Elec       q    Type
REMARK                         _______ _______ _______ _____ _____    ______ ____
ROOT
ATOM      1  C   UNL     1       4.164  -1.310   1.145  0.00  0.00    +0.236 C 
ATOM      2  O   UNL     1       3.372  -0.898   1.966  0.00  0.00    -0.274 OA
ATOM      3  N   UNL     1       5.342  -1.828   1.546  0.00  0.00    -0.297 N 
ATOM      4  C   UNL     1       6.351  -2.449   0.669  0.00  0.00    +0.108 C 
ATOM      5  C   UNL     1       7.688  -2.303   1.437  0.00  0.00    +0.021 C 
ATOM      6  C   UNL     1       7.230  -2.523   2.903  0.00  0.00    +0.024 C 
ATOM      7  C   UNL     1       5.836  -1.862   2.930  0.00  0.00    +0.079 C 
ENDROOT
BRANCH   7   8
ATOM      8  C   UNL     1       4.888  -2.688   3.801  0.00  0.00    +0.010 C 
ATOM      9  C   UNL     1       5.437  -2.780   5.240  0.00  0.00    +0.005 C 
ATOM     10  C   UNL     1       5.080  -4.218   5.692  0.00  0.00    +0.000 C 
ATOM     11  C   UNL     1       5.308  -5.047   4.404  0.00  0.00    +0.000 C 
ATOM     12  C   UNL     1       4.806  -4.130   3.270  0.00  0.00    +0.005 C 
ENDBRANCH   7   8
BRANCH   1  13
ATOM     13  C   UNL     1       3.832  -1.242  -0.323  0.00  0.00    +0.220 C 
BRANCH  13  18
ATOM     14  C   UNL     1       0.018   0.484  -0.823  0.00  0.00    +0.029 A 
ATOM     15  C   UNL     1       1.127   1.278  -0.804  0.00  0.00    +0.072 A 
ATOM     16  C   UNL     1       2.392   0.691  -0.637  0.00  0.00    +0.252 A 
ATOM     17  O   UNL     1       3.391   1.393  -0.619  0.00  0.00    -0.268 OA
ATOM     18  N   UNL     1       2.506  -0.643  -0.497  0.00  0.00    -0.305 N 
ATOM     19  C   UNL     1       1.405  -1.441  -0.515  0.00  0.00    +0.112 A 
ATOM     20  C   UNL     1       0.166  -0.907  -0.674  0.00  0.00    +0.041 A 
BRANCH  20  21
ATOM     21  N   UNL     1      -0.963  -1.740  -0.690  0.00  0.00    -0.357 N 
ATOM     22  H   UNL     1      -1.847  -1.357  -0.804  0.00  0.00    +0.142 HD
ATOM     23  H   UNL     1      -0.860  -2.699  -0.587  0.00  0.00    +0.142 HD
ENDBRANCH  20  21
ENDBRANCH  13  18
ENDBRANCH   1  13
TORSDOF 4
