REMARK  Name = ZINC51357901
REMARK  5 active torsions:
REMARK  status: ('A' for Active; 'I' for Inactive)
REMARK    1  A    between atoms: C_1  and  C_2
REMARK    2  A    between atoms: C_2  and  C_3
REMARK    3  A    between atoms: C_2  and  N_4
REMARK    4  A    between atoms: C_8  and  C_9
REMARK    5  A    between atoms: C_15  and  C_17
REMARK                            x       y       z     vdW  Elec       q    Type
REMARK                         _______ _______ _______ _____ _____    ______ ____
ROOT
ATOM      1  C   UNL     1      -1.224  -1.975  -2.057  0.00  0.00    +0.263 C 
ATOM      2  O   UNL     1      -1.873  -2.505  -2.939  0.00  0.00    -0.268 OA
ATOM      3  N   UNL     1       0.104  -1.801  -2.208  0.00  0.00    -0.295 N 
ATOM      4  C   UNL     1       0.999  -1.142  -1.240  0.00  0.00    +0.108 C 
ATOM      5  C   UNL     1       2.201  -0.649  -2.084  0.00  0.00    +0.021 C 
ATOM      6  C   UNL     1       2.357  -1.804  -3.108  0.00  0.00    +0.022 C 
ATOM      7  C   UNL     1       0.900  -2.243  -3.361  0.00  0.00    +0.062 C 
ENDROOT
BRANCH   7   8
ATOM      8  C   UNL     1       0.828  -3.766  -3.491  0.00  0.00    -0.051 C 
ATOM      9  C   UNL     1      -0.628  -4.216  -3.766  0.00  0.00    -0.016 C 
ATOM     10  C   UNL     1      -0.407  -5.583  -4.465  0.00  0.00    -0.021 C 
ATOM     11  C   UNL     1       0.874  -5.347  -5.292  0.00  0.00    -0.082 C 
ATOM     12  N   UNL     1       1.595  -4.220  -4.670  0.00  0.00    +0.382 N 
ATOM     13  H   UNL     1       1.678  -3.463  -5.333  0.00  0.00    -0.085 HD
ATOM     14  H   UNL     1       2.515  -4.519  -4.383  0.00  0.00    -0.085 HD
ENDBRANCH   7   8
BRANCH   1  19
ATOM     15  N   UNL     1      -3.245  -1.496  -0.601  0.00  0.00    -0.339 N 
ATOM     16  C   UNL     1      -3.465  -1.023   0.651  0.00  0.00    +0.106 A 
ATOM     17  C   UNL     1      -2.272  -0.743   1.229  0.00  0.00    +0.059 A 
ATOM     18  C   UNL     1      -1.266  -1.051   0.307  0.00  0.00    +0.052 A 
ATOM     19  C   UNL     1      -1.888  -1.525  -0.829  0.00  0.00    +0.106 A 
ATOM     20 CL   UNL     1      -2.034  -0.114   2.829  0.00  0.00    -0.082 Cl
BRANCH  15  22
ATOM     21  C   UNL     1      -5.002  -3.148  -1.010  0.00  0.00    +0.030 C 
ATOM     22  C   UNL     1      -4.280  -1.912  -1.552  0.00  0.00    +0.081 C 
ATOM     23  C   UNL     1      -5.286  -0.775  -1.741  0.00  0.00    +0.030 C 
ENDBRANCH  15  22
ENDBRANCH   1  19
TORSDOF 3
