REMARK  Name = ZINC43567040
REMARK  7 active torsions:
REMARK  status: ('A' for Active; 'I' for Inactive)
REMARK    1  A    between atoms: C_1  and  C_2
REMARK    2  A    between atoms: C_2  and  C_3
REMARK    3  A    between atoms: C_3  and  C_4
REMARK    4  A    between atoms: C_3  and  C_5
REMARK    5  A    between atoms: C_3  and  N_21
REMARK    6  A    between atoms: C_7  and  C_10
REMARK    7  A    between atoms: C_14  and  C_16
REMARK                            x       y       z     vdW  Elec       q    Type
REMARK                         _______ _______ _______ _____ _____    ______ ____
ROOT
ATOM      1  C   UNL     1       0.870  -2.011   1.172  0.00  0.00    +0.161 A 
ATOM      2  N   UNL     1       2.019  -2.690   1.165  0.00  0.00    -0.193 NA
ATOM      3  C   UNL     1       1.777  -3.981   1.098  0.00  0.00    +0.258 A 
ATOM      4  O   UNL     1       0.444  -4.152   1.060  0.00  0.00    -0.333 OA
ATOM      5  N   UNL     1      -0.123  -2.852   1.115  0.00  0.00    -0.062 NA
ENDROOT
BRANCH   3   6
ATOM      6  C   UNL     1       2.792  -5.054   1.069  0.00  0.00    +0.040 A 
ATOM      7  C   UNL     1       4.151  -4.735   1.119  0.00  0.00    +0.016 A 
ATOM      8  C   UNL     1       5.094  -5.740   1.091  0.00  0.00    +0.039 A 
ATOM      9  C   UNL     1       4.695  -7.066   1.014  0.00  0.00    +0.135 A 
ATOM     10  C   UNL     1       3.348  -7.388   0.963  0.00  0.00    +0.091 A 
ATOM     11  C   UNL     1       2.397  -6.391   0.996  0.00  0.00    +0.028 A 
ATOM     12  F   UNL     1       5.623  -8.047   0.987  0.00  0.00    -0.205 F 
BRANCH  10  13
ATOM     13  C   UNL     1       2.922  -8.831   0.877  0.00  0.00    +0.420 C 
ATOM     14  F   UNL     1       1.526  -8.904   0.838  0.00  0.00    -0.166 F 
ATOM     15  F   UNL     1       3.452  -9.405  -0.283  0.00  0.00    -0.166 F 
ATOM     16  F   UNL     1       3.394  -9.524   1.997  0.00  0.00    -0.166 F 
ENDBRANCH  10  13
ENDBRANCH   3   6
BRANCH   1  17
ATOM     17  C   UNL     1       0.742  -0.511   1.242  0.00  0.00    -0.009 C 
ATOM     18  C   UNL     1      -0.042  -0.124   2.497  0.00  0.00    -0.003 C 
BRANCH  17  19
ATOM     19  N   UNL     1       2.080   0.093   1.294  0.00  0.00    +0.386 N 
ATOM     20  H   UNL     1       1.995   1.097   1.341  0.00  0.00    -0.089 HD
ATOM     21  H   UNL     1       2.568  -0.241   2.111  0.00  0.00    -0.089 HD
ATOM     22  H   UNL     1       2.597  -0.163   0.466  0.00  0.00    -0.089 HD
ENDBRANCH  17  19
BRANCH  17  24
ATOM     23  C   UNL     1      -0.019   1.526   0.010  0.00  0.00    +0.003 C 
ATOM     24  C   UNL     1       0.002  -0.004   0.002  0.00  0.00    -0.009 C 
ENDBRANCH  17  24
ENDBRANCH   1  17
TORSDOF 5
