REMARK  Name = ZINC12465084
REMARK  7 active torsions:
REMARK  status: ('A' for Active; 'I' for Inactive)
REMARK    1  A    between atoms: C_1  and  N_2
REMARK    2  A    between atoms: N_2  and  C_3
REMARK    3  A    between atoms: N_2  and  C_21
REMARK    4  A    between atoms: C_4  and  C_8
REMARK    5  A    between atoms: C_8  and  N_9
REMARK    6  A    between atoms: C_10  and  C_12
REMARK    7  A    between atoms: C_12  and  C_13
REMARK                            x       y       z     vdW  Elec       q    Type
REMARK                         _______ _______ _______ _____ _____    ______ ____
ROOT
ATOM      1  C   UNL     1       4.270  -1.950   4.238  0.00  0.00    +0.103 A 
ATOM      2  C   UNL     1       4.354  -1.595   2.895  0.00  0.00    +0.008 A 
ATOM      3  C   UNL     1       5.587  -1.265   2.362  0.00  0.00    +0.010 A 
ATOM      4  C   UNL     1       6.700  -1.305   3.192  0.00  0.00    +0.018 A 
ATOM      5  C   UNL     1       6.544  -1.671   4.514  0.00  0.00    +0.084 A 
ATOM      6  N   UNL     1       5.349  -2.003   5.071  0.00  0.00    -0.349 N 
ATOM      7  H   UNL     1       5.263  -2.276   6.057  0.00  0.00    +0.167 HD
ENDROOT
BRANCH   1   9
ATOM      8  C   UNL     1       2.646  -1.311   5.821  0.00  0.00    +0.131 C 
ATOM      9  N   UNL     1       3.036  -2.279   4.787  0.00  0.00    -0.316 N 
BRANCH   9  10
ATOM     10  C   UNL     1       3.047  -3.646   5.324  0.00  0.00    +0.074 C 
ATOM     11  C   UNL     1       3.460  -4.624   4.222  0.00  0.00    +0.022 C 
ATOM     12  C   UNL     1       3.471  -6.048   4.781  0.00  0.00    +0.002 C 
ATOM     13  C   UNL     1       2.072  -6.409   5.285  0.00  0.00    +0.000 C 
ATOM     14  C   UNL     1       1.659  -5.431   6.387  0.00  0.00    +0.002 C 
ATOM     15  C   UNL     1       1.648  -4.007   5.828  0.00  0.00    +0.022 C 
ENDBRANCH   9  10
ENDBRANCH   1   9
BRANCH   2  16
ATOM     16  C   UNL     1       3.117  -1.565   2.034  0.00  0.00    +0.143 C 
BRANCH  16  17
ATOM     17  N   UNL     1       2.322  -0.380   2.362  0.00  0.00    -0.311 N 
ATOM     18  C   UNL     1       1.201  -0.106   1.666  0.00  0.00    +0.216 C 
ATOM     19  O   UNL     1       0.851  -0.842   0.767  0.00  0.00    -0.276 OA
ATOM     20  H   UNL     1       2.603   0.208   3.081  0.00  0.00    +0.149 HD
BRANCH  18  21
ATOM     21  C   UNL     1       0.383   1.114   2.004  0.00  0.00    +0.127 C 
BRANCH  21  22
ATOM     22  C   UNL     1      -0.827   1.191   1.071  0.00  0.00    +0.169 C 
ATOM     23  C   UNL     1      -1.680   2.399   1.402  0.00  0.00    +0.241 C 
ATOM     24  O   UNL     1      -1.349   3.564   1.353  0.00  0.00    -0.273 OA
ATOM     25  N   UNL     1      -2.883   1.909   1.761  0.00  0.00    -0.239 N 
ATOM     26  C   UNL     1      -2.910   0.573   1.698  0.00  0.00    +0.307 C 
ATOM     27  O   UNL     1      -3.887  -0.097   1.970  0.00  0.00    -0.252 OA
ATOM     28  N   UNL     1      -1.734   0.053   1.303  0.00  0.00    -0.287 N 
ATOM     29  H   UNL     1      -3.637   2.457   2.027  0.00  0.00    +0.159 HD
ATOM     30  H   UNL     1      -1.524  -0.887   1.189  0.00  0.00    +0.151 HD
ENDBRANCH  21  22
ENDBRANCH  18  21
ENDBRANCH  16  17
ENDBRANCH   2  16
TORSDOF 6
