REMARK  Name = ZINC58294564
REMARK  11 active torsions:
REMARK  status: ('A' for Active; 'I' for Inactive)
REMARK    1  A    between atoms: C_1  and  C_2
REMARK    2  A    between atoms: C_2  and  C_4
REMARK    3  A    between atoms: C_2  and  N_11
REMARK    4  A    between atoms: N_9  and  C_10
REMARK    5  A    between atoms: C_14  and  C_17
REMARK    6  A    between atoms: C_17  and  N_18
REMARK    7  A    between atoms: C_19  and  O_21
REMARK    8  A    between atoms: O_21  and  C_22
REMARK    9  A    between atoms: C_22  and  C_23
REMARK   10  A    between atoms: C_22  and  C_24
REMARK   11  A    between atoms: C_22  and  C_25
REMARK                            x       y       z     vdW  Elec       q    Type
REMARK                         _______ _______ _______ _____ _____    ______ ____
ROOT
ATOM      1  N   UNL     1      -1.096  -0.936  -0.287  0.00  0.00    +0.387 N 
ATOM      2  C   UNL     1      -1.747  -0.548  -1.544  0.00  0.00    -0.077 C 
ATOM      3  C   UNL     1      -2.942  -1.466  -1.809  0.00  0.00    -0.014 C 
ATOM      4  C   UNL     1      -2.454  -2.913  -1.911  0.00  0.00    +0.003 C 
ATOM      5  C   UNL     1      -1.712  -3.284  -0.624  0.00  0.00    -0.014 C 
ATOM      6  C   UNL     1      -0.562  -2.298  -0.403  0.00  0.00    -0.077 C 
ATOM      7  H   UNL     1      -1.770  -0.903   0.463  0.00  0.00    -0.081 HD
ENDROOT
BRANCH   1   9
ATOM      8  C   UNL     1      -0.555   1.415   0.136  0.00  0.00    -0.004 C 
ATOM      9  C   UNL     1       0.002  -0.004   0.002  0.00  0.00    +0.017 C 
BRANCH   9  10
ATOM     10  C   UNL     1       0.674  -0.404   1.290  0.00  0.00    +0.207 C 
ATOM     11  O   UNL     1       0.042  -0.978   2.151  0.00  0.00    -0.277 OA
ATOM     12  N   UNL     1       1.978  -0.123   1.486  0.00  0.00    -0.242 N 
ATOM     13  C   UNL     1       2.579  -0.481   2.638  0.00  0.00    +0.306 C 
ATOM     14  O   UNL     1       1.945  -1.056   3.501  0.00  0.00    -0.252 OA
ATOM     15  N   UNL     1       3.882  -0.200   2.833  0.00  0.00    -0.302 N 
ATOM     16  C   UNL     1       4.535  -0.588   4.086  0.00  0.00    +0.129 C 
ATOM     17  H   UNL     1       2.483   0.336   0.797  0.00  0.00    +0.159 HD
ATOM     18  H   UNL     1       4.388   0.260   2.145  0.00  0.00    +0.150 HD
ENDBRANCH   9  10
ENDBRANCH   1   9
BRANCH   4  19
ATOM     19  C   UNL     1      -3.653  -3.846  -2.096  0.00  0.00    +0.111 C 
BRANCH  19  20
ATOM     20  N   UNL     1      -3.178  -5.215  -2.313  0.00  0.00    -0.281 N 
ATOM     21  C   UNL     1      -4.064  -6.213  -2.502  0.00  0.00    +0.401 C 
ATOM     22  O   UNL     1      -5.256  -5.978  -2.492  0.00  0.00    -0.226 OA
ATOM     23  H   UNL     1      -2.227  -5.402  -2.321  0.00  0.00    +0.152 HD
BRANCH  21  24
ATOM     24  O   UNL     1      -3.627  -7.471  -2.702  0.00  0.00    -0.445 OA
BRANCH  24  25
ATOM     25  C   UNL     1      -4.621  -8.480  -2.895  0.00  0.00    +0.107 C 
ATOM     26  C   UNL     1      -5.463  -8.137  -4.125  0.00  0.00    +0.055 C 
ATOM     27  C   UNL     1      -3.940  -9.834  -3.104  0.00  0.00    +0.055 C 
ATOM     28  C   UNL     1      -5.524  -8.549  -1.661  0.00  0.00    +0.055 C 
ENDBRANCH  24  25
ENDBRANCH  21  24
ENDBRANCH  19  20
ENDBRANCH   4  19
TORSDOF 6
