REMARK  Name = ZINC48948022
REMARK  9 active torsions:
REMARK  status: ('A' for Active; 'I' for Inactive)
REMARK    1  A    between atoms: C_1  and  N_2
REMARK    2  A    between atoms: N_2  and  C_3
REMARK    3  A    between atoms: N_2  and  C_11
REMARK    4  A    between atoms: C_3  and  C_4
REMARK    5  A    between atoms: C_11  and  C_12
REMARK    6  A    between atoms: C_12  and  C_14
REMARK    7  A    between atoms: C_12  and  O_23
REMARK    8  A    between atoms: C_17  and  C_20
REMARK    9  A    between atoms: C_20  and  N_22
REMARK                            x       y       z     vdW  Elec       q    Type
REMARK                         _______ _______ _______ _____ _____    ______ ____
ROOT
ATOM      1  C   UNL     1       0.596  -2.204  -1.101  0.00  0.00    +0.128 C 
ENDROOT
BRANCH   1   2
ATOM      2  C   UNL     1       1.384  -2.730  -2.274  0.00  0.00    -0.021 A 
ATOM      3  C   UNL     1       2.737  -2.982  -2.136  0.00  0.00    +0.007 A 
ATOM      4  C   UNL     1       3.464  -3.464  -3.205  0.00  0.00    +0.010 A 
ATOM      5  C   UNL     1       2.831  -3.697  -4.428  0.00  0.00    +0.003 A 
ATOM      6  C   UNL     1       1.465  -3.440  -4.559  0.00  0.00    +0.010 A 
ATOM      7  C   UNL     1       0.749  -2.963  -3.481  0.00  0.00    +0.007 A 
BRANCH   5   8
ATOM      8  C   UNL     1       3.603  -4.212  -5.576  0.00  0.00    +0.077 C 
ATOM      9  S   UNL     1       4.883  -5.320  -5.320  0.00  0.00    -0.035 S 
BRANCH   8  10
ATOM     10  N   UNL     1       3.299  -3.811  -6.826  0.00  0.00    -0.352 N 
ATOM     11  H   UNL     1       2.574  -3.183  -6.972  0.00  0.00    +0.143 HD
ATOM     12  H   UNL     1       3.806  -4.149  -7.581  0.00  0.00    +0.143 HD
ENDBRANCH   8  10
ENDBRANCH   5   8
ENDBRANCH   1   2
BRANCH   1  13
ATOM     13  O   UNL     1       1.108  -2.768   0.108  0.00  0.00    -0.389 OA
ATOM     14  H   UNL     1       2.038  -2.564   0.274  0.00  0.00    +0.210 HD
ENDBRANCH   1  13
BRANCH   1  15
ATOM     15  C   UNL     1       0.721  -0.680  -1.046  0.00  0.00    -0.043 C 
BRANCH  15  17
ATOM     16  C   UNL     1       0.122   1.282   0.197  0.00  0.00    -0.096 C 
ATOM     17  N   UNL     1      -0.109  -0.161   0.050  0.00  0.00    +0.381 N 
ATOM     18  H   UNL     1       0.136  -0.630   0.909  0.00  0.00    -0.082 HD
BRANCH  17  19
ATOM     19  C   UNL     1      -1.526  -0.402  -0.253  0.00  0.00    -0.047 C 
BRANCH  19  20
ATOM     20  C   UNL     1      -2.380  -0.001   0.951  0.00  0.00    +0.102 C 
ATOM     21  C   UNL     1      -3.834  -0.416   0.707  0.00  0.00    +0.030 C 
ATOM     22  C   UNL     1      -4.693   0.042   1.890  0.00  0.00    +0.005 C 
ATOM     23  C   UNL     1      -4.542   1.557   2.060  0.00  0.00    +0.028 C 
ATOM     24  C   UNL     1      -3.061   1.896   2.252  0.00  0.00    +0.160 C 
ATOM     25  O   UNL     1      -2.315   1.415   1.132  0.00  0.00    -0.378 OA
ENDBRANCH  19  20
ENDBRANCH  17  19
ENDBRANCH  15  17
ENDBRANCH   1  15
TORSDOF 8
