REMARK  Name = ZINC62283983
REMARK  7 active torsions:
REMARK  status: ('A' for Active; 'I' for Inactive)
REMARK    1  A    between atoms: C_1  and  C_2
REMARK    2  A    between atoms: C_5  and  C_8
REMARK    3  A    between atoms: C_8  and  N_9
REMARK    4  A    between atoms: C_10  and  C_16
REMARK    5  A    between atoms: C_11  and  C_14
REMARK    6  A    between atoms: C_14  and  N_15
REMARK    7  A    between atoms: C_17  and  C_18
REMARK                            x       y       z     vdW  Elec       q    Type
REMARK                         _______ _______ _______ _____ _____    ______ ____
ROOT
ATOM      1  N   UNL     1       1.468  -4.728  -0.032  0.00  0.00    -0.240 N 
ATOM      2  C   UNL     1       2.210  -5.004  -1.150  0.00  0.00    +0.083 A 
ATOM      3  C   UNL     1       3.432  -5.447  -0.680  0.00  0.00    +0.073 A 
ATOM      4  N   UNL     1       3.352  -5.411   0.652  0.00  0.00    -0.136 NA
ATOM      5  N   UNL     1       2.193  -4.982   1.000  0.00  0.00    -0.065 NA
ENDROOT
BRANCH   2   6
ATOM      6  C   UNL     1       1.796  -4.860  -2.551  0.00  0.00    +0.030 C 
ATOM      7  C   UNL     1       2.517  -4.096  -3.390  0.00  0.00    +0.010 C 
BRANCH   7   8
ATOM      8  C   UNL     1       2.171  -4.045  -4.822  0.00  0.00    -0.025 A 
ATOM      9  C   UNL     1       1.090  -4.786  -5.310  0.00  0.00    +0.008 A 
ATOM     10  C   UNL     1       0.772  -4.733  -6.651  0.00  0.00    +0.001 A 
ATOM     11  C   UNL     1       1.520  -3.950  -7.512  0.00  0.00    +0.000 A 
ATOM     12  C   UNL     1       2.592  -3.215  -7.037  0.00  0.00    +0.001 A 
ATOM     13  C   UNL     1       2.918  -3.252  -5.697  0.00  0.00    +0.008 A 
ENDBRANCH   7   8
ENDBRANCH   2   6
BRANCH   1  14
ATOM     14  C   UNL     1       0.091  -4.226  -0.015  0.00  0.00    +0.181 C 
BRANCH  14  19
ATOM     15  C   UNL     1       0.146   1.552  -0.044  0.00  0.00    +0.044 C 
ATOM     16  C   UNL     1       0.132   0.045  -0.036  0.00  0.00    -0.050 A 
ATOM     17  C   UNL     1       0.110  -0.651  -1.230  0.00  0.00    +0.004 A 
ATOM     18  C   UNL     1       0.097  -2.034  -1.223  0.00  0.00    +0.006 A 
ATOM     19  C   UNL     1       0.107  -2.719  -0.023  0.00  0.00    -0.026 A 
ATOM     20  C   UNL     1       0.130  -2.022   1.171  0.00  0.00    +0.006 A 
ATOM     21  C   UNL     1       0.147  -0.640   1.164  0.00  0.00    +0.004 A 
ENDBRANCH  14  19
ENDBRANCH   1  14
BRANCH   3  22
ATOM     22  C   UNL     1       4.616  -5.882  -1.504  0.00  0.00    -0.026 C 
BRANCH  22  23
ATOM     23  N   UNL     1       4.465  -7.298  -1.868  0.00  0.00    +0.382 N 
ATOM     24  H   UNL     1       5.294  -7.611  -2.350  0.00  0.00    -0.090 HD
ATOM     25  H   UNL     1       4.335  -7.848  -1.032  0.00  0.00    -0.090 HD
ATOM     26  H   UNL     1       3.664  -7.407  -2.471  0.00  0.00    -0.090 HD
ENDBRANCH  22  23
ENDBRANCH   3  22
TORSDOF 6
