REMARK  Name = ZINC00157797
REMARK  8 active torsions:
REMARK  status: ('A' for Active; 'I' for Inactive)
REMARK    1  A    between atoms: C_1  and  C_2
REMARK    2  A    between atoms: C_2  and  C_4
REMARK    3  A    between atoms: C_5  and  O_16
REMARK    4  A    between atoms: C_7  and  O_14
REMARK    5  A    between atoms: C_8  and  C_11
REMARK    6  A    between atoms: C_9  and  O_10
REMARK    7  A    between atoms: C_11  and  C_13
REMARK    8  A    between atoms: O_14  and  C_15
REMARK                            x       y       z     vdW  Elec       q    Type
REMARK                         _______ _______ _______ _____ _____    ______ ____
ROOT
ATOM      1  C   UNL     1      -3.688   3.540   0.029  0.00  0.00    +0.101 A 
ATOM      2  C   UNL     1      -4.231   3.978   1.254  0.00  0.00    +0.134 A 
ATOM      3  C   UNL     1      -3.625   3.628   2.449  0.00  0.00    +0.092 A 
ATOM      4  C   UNL     1      -2.482   2.845   2.454  0.00  0.00    +0.138 A 
ATOM      5  C   UNL     1      -1.924   2.397   1.240  0.00  0.00    +0.101 A 
ATOM      6  C   UNL     1      -2.527   2.752   0.023  0.00  0.00    +0.145 A 
ENDROOT
BRANCH   1   8
ATOM      7  C   UNL     1      -5.572   4.764  -1.222  0.00  0.00    +0.092 C 
ATOM      8  C   UNL     1      -4.329   3.912  -1.231  0.00  0.00    +0.167 C 
ATOM      9  O   UNL     1      -3.861   3.534  -2.285  0.00  0.00    -0.292 OA
ENDBRANCH   1   8
BRANCH   5  10
ATOM     10  C   UNL     1      -0.718   1.572   1.248  0.00  0.00    +0.167 C 
ATOM     11  O   UNL     1      -0.811   0.363   1.296  0.00  0.00    -0.292 OA
ATOM     12  C   UNL     1       0.640   2.222   1.196  0.00  0.00    +0.092 C 
ENDBRANCH   5  10
BRANCH   6  13
ATOM     13  O   UNL     1      -1.996   2.332  -1.148  0.00  0.00    -0.505 OA
ATOM     14  H   UNL     1      -2.340   1.481  -1.453  0.00  0.00    +0.292 HD
ENDBRANCH   6  13
BRANCH   4  15
ATOM     15  O   UNL     1      -1.899   2.510   3.629  0.00  0.00    -0.494 OA
ATOM     16  C   UNL     1      -2.517   2.997   4.822  0.00  0.00    +0.277 C 
ENDBRANCH   4  15
BRANCH   2  17
ATOM     17  O   UNL     1      -5.347   4.744   1.263  0.00  0.00    -0.506 OA
ATOM     18  H   UNL     1      -5.173   5.694   1.226  0.00  0.00    +0.292 HD
ENDBRANCH   2  17
TORSDOF 5
