REMARK  Name = ZINC37532974
REMARK  7 active torsions:
REMARK  status: ('A' for Active; 'I' for Inactive)
REMARK    1  A    between atoms: C_1  and  N_2
REMARK    2  A    between atoms: N_2  and  C_3
REMARK    3  A    between atoms: C_3  and  C_5
REMARK    4  A    between atoms: C_3  and  C_13
REMARK    5  A    between atoms: C_5  and  C_6
REMARK    6  A    between atoms: C_18  and  O_19
REMARK    7  A    between atoms: O_19  and  C_20
REMARK                            x       y       z     vdW  Elec       q    Type
REMARK                         _______ _______ _______ _____ _____    ______ ____
ROOT
ATOM      1  C   UNL     1       0.690  -0.478  -1.207  0.00  0.00    -0.033 C 
ENDROOT
BRANCH   1   2
ATOM      2  C   UNL     1       2.137  -0.060  -1.158  0.00  0.00    -0.019 A 
ATOM      3  C   UNL     1       2.749   0.172   0.059  0.00  0.00    +0.005 A 
ATOM      4  C   UNL     1       4.076   0.556   0.104  0.00  0.00    +0.000 A 
ATOM      5  C   UNL     1       4.795   0.709  -1.067  0.00  0.00    +0.004 A 
ATOM      6  C   UNL     1       4.187   0.478  -2.286  0.00  0.00    +0.046 A 
ATOM      7  C   UNL     1       2.857   0.087  -2.334  0.00  0.00    +0.122 A 
BRANCH   7   8
ATOM      8  O   UNL     1       2.259  -0.146  -3.532  0.00  0.00    -0.495 OA
ATOM      9  C   UNL     1       3.061   0.025  -4.702  0.00  0.00    +0.277 C 
ENDBRANCH   7   8
ENDBRANCH   1   2
BRANCH   1  11
ATOM     10  C   UNL     1      -0.018   1.465   0.010  0.00  0.00    -0.100 C 
ATOM     11  N   UNL     1       0.002  -0.004   0.002  0.00  0.00    +0.382 N 
ATOM     12  H   UNL     1       0.490  -0.338   0.820  0.00  0.00    -0.085 HD
ATOM     13  H   UNL     1      -0.945  -0.353   0.009  0.00  0.00    -0.085 HD
ENDBRANCH   1  11
BRANCH   1  14
ATOM     14  C   UNL     1       0.602  -2.004  -1.278  0.00  0.00    +0.024 C 
BRANCH  14  15
ATOM     15  C   UNL     1      -0.837  -2.416  -1.451  0.00  0.00    -0.049 A 
ATOM     16  C   UNL     1      -1.627  -2.649  -0.340  0.00  0.00    +0.004 A 
ATOM     17  C   UNL     1      -2.947  -3.027  -0.498  0.00  0.00    +0.015 A 
ATOM     18  C   UNL     1      -3.478  -3.173  -1.767  0.00  0.00    +0.018 A 
ATOM     19  C   UNL     1      -2.687  -2.940  -2.878  0.00  0.00    +0.015 A 
ATOM     20  C   UNL     1      -1.369  -2.557  -2.719  0.00  0.00    +0.004 A 
ATOM     21 BR   UNL     1      -5.284  -3.691  -1.983  0.00  0.00    -0.050 Br
ENDBRANCH  14  15
ENDBRANCH   1  14
TORSDOF 5
