REMARK  Name = ZINC55131500
REMARK  4 active torsions:
REMARK  status: ('A' for Active; 'I' for Inactive)
REMARK    1  A    between atoms: C_1  and  C_2
REMARK    2  A    between atoms: C_5  and  N_22
REMARK    3  A    between atoms: C_9  and  C_11
REMARK    4  A    between atoms: N_13  and  C_14
REMARK                            x       y       z     vdW  Elec       q    Type
REMARK                         _______ _______ _______ _____ _____    ______ ____
ROOT
ATOM      1  C   UNL     1       0.762  -2.018   1.233  0.00  0.00    +0.217 C 
ATOM      2  O   UNL     1       0.237  -2.626   0.325  0.00  0.00    -0.275 OA
ATOM      3  N   UNL     1       1.365  -2.689   2.235  0.00  0.00    -0.304 N 
ATOM      4  H   UNL     1       1.785  -2.202   2.961  0.00  0.00    +0.149 HD
ENDROOT
BRANCH   3   5
ATOM      5  C   UNL     1       1.385  -4.154   2.227  0.00  0.00    +0.159 C 
ATOM      6  C   UNL     1       1.527  -4.668   3.661  0.00  0.00    +0.033 C 
ATOM      7  C   UNL     1       1.821  -6.172   3.610  0.00  0.00    +0.021 C 
ATOM      8  C   UNL     1       3.209  -6.379   3.003  0.00  0.00    +0.104 C 
ATOM      9  N   UNL     1       3.333  -5.644   1.750  0.00  0.00    -0.314 N 
ATOM     10  C   UNL     1       2.541  -4.633   1.397  0.00  0.00    +0.233 C 
ATOM     11  O   UNL     1       2.767  -4.069   0.347  0.00  0.00    -0.274 OA
ATOM     12  H   UNL     1       4.037  -5.907   1.136  0.00  0.00    +0.149 HD
ENDBRANCH   3   5
BRANCH   1  19
ATOM     13  C   UNL     1      -0.019   1.526   0.010  0.00  0.00    +0.008 C 
ATOM     14  C   UNL     1       0.002  -0.004   0.002  0.00  0.00    -0.004 C 
ATOM     15  C   UNL     1       0.718  -0.497  -1.257  0.00  0.00    -0.012 C 
ATOM     16  C   UNL     1       2.154   0.032  -1.268  0.00  0.00    -0.075 C 
ATOM     17  C   UNL     1       2.894  -0.475  -0.028  0.00  0.00    -0.016 C 
ATOM     18  C   UNL     1       2.178   0.019   1.231  0.00  0.00    +0.011 C 
ATOM     19  C   UNL     1       0.742  -0.511   1.242  0.00  0.00    +0.078 C 
BRANCH  16  20
ATOM     20  N   UNL     1       2.841  -0.442  -2.476  0.00  0.00    +0.380 N 
ATOM     21  H   UNL     1       2.353  -0.107  -3.294  0.00  0.00    -0.090 HD
ATOM     22  H   UNL     1       3.788  -0.092  -2.483  0.00  0.00    -0.090 HD
ATOM     23  H   UNL     1       2.855  -1.450  -2.482  0.00  0.00    -0.090 HD
ENDBRANCH  16  20
ENDBRANCH   1  19
TORSDOF 3
