REMARK  Name = ZINC42455121
REMARK  9 active torsions:
REMARK  status: ('A' for Active; 'I' for Inactive)
REMARK    1  A    between atoms: C_1  and  C_2
REMARK    2  A    between atoms: C_2  and  C_4
REMARK    3  A    between atoms: C_2  and  C_18
REMARK    4  A    between atoms: C_4  and  N_5
REMARK    5  A    between atoms: N_5  and  C_6
REMARK    6  A    between atoms: N_5  and  C_7
REMARK    7  A    between atoms: C_10  and  S_14
REMARK    8  A    between atoms: C_12  and  N_13
REMARK    9  A    between atoms: S_14  and  N_17
REMARK                            x       y       z     vdW  Elec       q    Type
REMARK                         _______ _______ _______ _____ _____    ______ ____
ROOT
ATOM      1  C   UNL     1       0.102   1.219   2.725  0.00  0.00    +0.051 A 
ATOM      2  C   UNL     1      -0.617   2.246   2.133  0.00  0.00    +0.027 A 
ATOM      3  C   UNL     1      -0.470   3.544   2.588  0.00  0.00    +0.030 A 
ATOM      4  C   UNL     1       0.392   3.821   3.633  0.00  0.00    +0.107 A 
ATOM      5  C   UNL     1       1.113   2.803   4.229  0.00  0.00    +0.053 A 
ATOM      6  C   UNL     1       0.968   1.498   3.782  0.00  0.00    +0.048 A 
ENDROOT
BRANCH   6   7
ATOM      7  N   UNL     1       1.693   0.464   4.388  0.00  0.00    -0.356 N 
ATOM      8  H   UNL     1       1.593  -0.448   4.072  0.00  0.00    +0.142 HD
ATOM      9  H   UNL     1       2.295   0.660   5.123  0.00  0.00    +0.142 HD
ENDBRANCH   6   7
BRANCH   4  10
ATOM     10  S   UNL     1       0.574   5.477   4.206  0.00  0.00    +0.056 S 
ATOM     11  O   UNL     1       1.847   5.554   4.831  0.00  0.00    -0.153 OA
ATOM     12  O   UNL     1       0.203   6.324   3.126  0.00  0.00    -0.153 OA
BRANCH  10  13
ATOM     13  N   UNL     1      -0.553   5.709   5.397  0.00  0.00    -0.204 NA
ATOM     14  H   UNL     1      -0.374   6.332   6.120  0.00  0.00    +0.144 HD
ATOM     15  H   UNL     1      -1.392   5.223   5.373  0.00  0.00    +0.144 HD
ENDBRANCH  10  13
ENDBRANCH   4  10
BRANCH   1  16
ATOM     16  N   UNL     1      -0.045  -0.096   2.266  0.00  0.00    -0.330 N 
ATOM     17  C   UNL     1      -0.967  -1.010   2.945  0.00  0.00    +0.129 C 
BRANCH  16  18
ATOM     18  C   UNL     1       0.723  -0.558   1.108  0.00  0.00    +0.122 C 
BRANCH  18  20
ATOM     19  C   UNL     1       1.763  -2.434   2.388  0.00  0.00    +0.025 C 
ATOM     20  C   UNL     1       2.045  -1.165   1.581  0.00  0.00    +0.106 C 
BRANCH  20  21
ATOM     21  C   UNL     1       2.877  -1.501   0.414  0.00  0.00    +0.067 C 
ATOM     22  N   UNL     1       3.519  -1.760  -0.487  0.00  0.00    -0.196 NA
ENDBRANCH  20  21
ENDBRANCH  18  20
ENDBRANCH  16  18
ENDBRANCH   1  16
TORSDOF 7
