REMARK  Name = ZINC32203737
REMARK  9 active torsions:
REMARK  status: ('A' for Active; 'I' for Inactive)
REMARK    1  A    between atoms: C_1  and  C_2
REMARK    2  A    between atoms: C_6  and  O_8
REMARK    3  A    between atoms: O_8  and  C_9
REMARK    4  A    between atoms: C_12  and  C_15
REMARK    5  A    between atoms: C_15  and  C_16
REMARK    6  A    between atoms: C_15  and  C_17
REMARK    7  A    between atoms: C_15  and  O_20
REMARK    8  A    between atoms: C_17  and  N_18
REMARK    9  A    between atoms: N_18  and  C_19
REMARK                            x       y       z     vdW  Elec       q    Type
REMARK                         _______ _______ _______ _____ _____    ______ ____
ROOT
ATOM      1  C   UNL     1      -2.344   1.318  -0.084  0.00  0.00    +0.129 A 
ATOM      2  C   UNL     1      -2.284  -0.068  -0.096  0.00  0.00    +0.046 A 
ATOM      3  C   UNL     1      -3.446  -0.808  -0.196  0.00  0.00    +0.010 A 
ATOM      4  C   UNL     1      -4.668  -0.168  -0.295  0.00  0.00    -0.018 A 
ATOM      5  C   UNL     1      -4.730   1.213  -0.289  0.00  0.00    +0.010 A 
ATOM      6  C   UNL     1      -3.571   1.958  -0.184  0.00  0.00    +0.046 A 
ENDROOT
BRANCH   4   7
ATOM      7  C   UNL     1      -5.934  -0.977  -0.409  0.00  0.00    +0.073 C 
ATOM      8  C   UNL     1      -6.240  -1.240  -1.884  0.00  0.00    +0.044 C 
BRANCH   7   9
ATOM      9  O   UNL     1      -7.016  -0.255   0.181  0.00  0.00    -0.386 OA
ATOM     10  H   UNL     1      -8.026  -0.689   0.193  0.00  0.00    +0.211 HD
ENDBRANCH   7   9
BRANCH   7  11
ATOM     11  C   UNL     1      -5.754  -2.311   0.320  0.00  0.00    -0.043 C 
BRANCH  11  12
ATOM     12  N   UNL     1      -6.942  -3.148   0.108  0.00  0.00    +0.379 N 
ATOM     13  C   UNL     1      -6.804  -4.440   0.795  0.00  0.00    -0.100 C 
ATOM     14  H   UNL     1      -7.830  -2.632   0.503  0.00  0.00    -0.086 HD
ATOM     15  H   UNL     1      -7.073  -3.333  -0.968  0.00  0.00    -0.086 HD
ENDBRANCH  11  12
ENDBRANCH   7  11
ENDBRANCH   4   7
BRANCH   1  16
ATOM     16  O   UNL     1      -1.202   2.048   0.019  0.00  0.00    -0.455 OA
BRANCH  16  22
ATOM     17  C   UNL     1       2.559   0.101   2.445  0.00  0.00    +0.044 C 
ATOM     18  C   UNL     1       1.844   0.415   1.156  0.00  0.00    -0.047 A 
ATOM     19  C   UNL     1       2.393   0.023  -0.051  0.00  0.00    +0.005 A 
ATOM     20  C   UNL     1       1.740   0.309  -1.236  0.00  0.00    +0.024 A 
ATOM     21  C   UNL     1       0.536   0.990  -1.216  0.00  0.00    +0.083 A 
ATOM     22  C   UNL     1      -0.016   1.384  -0.004  0.00  0.00    +0.147 A 
ATOM     23  C   UNL     1       0.642   1.095   1.182  0.00  0.00    +0.051 A 
ATOM     24 CL   UNL     1      -0.284   1.349  -2.703  0.00  0.00    -0.080 Cl
ENDBRANCH  16  22
ENDBRANCH   1  16
TORSDOF 6
