REMARK  Name = ZINC22033747
REMARK  7 active torsions:
REMARK  status: ('A' for Active; 'I' for Inactive)
REMARK    1  A    between atoms: C_1  and  N_2
REMARK    2  A    between atoms: N_5  and  C_8
REMARK    3  A    between atoms: C_8  and  C_9
REMARK    4  A    between atoms: C_9  and  C_10
REMARK    5  A    between atoms: C_10  and  N_11
REMARK    6  A    between atoms: C_12  and  C_14
REMARK    7  A    between atoms: N_19  and  C_21
REMARK                            x       y       z     vdW  Elec       q    Type
REMARK                         _______ _______ _______ _____ _____    ______ ____
ROOT
ATOM      1  N   UNL     1       3.347  -6.422   2.154  0.00  0.00    -0.315 N 
ATOM      2  C   UNL     1       3.569  -7.738   2.339  0.00  0.00    +0.218 C 
ATOM      3  O   UNL     1       3.033  -8.551   1.615  0.00  0.00    -0.275 OA
ATOM      4  H   UNL     1       3.776  -5.772   2.733  0.00  0.00    +0.149 HD
ENDROOT
BRANCH   2   5
ATOM      5  C   UNL     1       4.482  -8.201   3.444  0.00  0.00    +0.101 C 
ATOM      6  C   UNL     1       3.902  -7.837   4.830  0.00  0.00    +0.110 C 
ATOM      7  C   UNL     1       3.127  -9.069   5.244  0.00  0.00    +0.217 C 
ATOM      8  O   UNL     1       2.298  -9.103   6.128  0.00  0.00    -0.276 OA
ATOM      9  N   UNL     1       3.492 -10.119   4.489  0.00  0.00    -0.298 N 
ATOM     10  C   UNL     1       4.526  -9.744   3.516  0.00  0.00    +0.121 C 
BRANCH   9  11
ATOM     11  C   UNL     1       2.931 -11.466   4.620  0.00  0.00    +0.076 C 
ATOM     12  C   UNL     1       1.422 -11.416   4.369  0.00  0.00    +0.022 C 
ATOM     13  C   UNL     1       0.836 -12.822   4.505  0.00  0.00    +0.002 C 
ATOM     14  C   UNL     1       1.100 -13.350   5.917  0.00  0.00    +0.000 C 
ATOM     15  C   UNL     1       2.609 -13.400   6.168  0.00  0.00    +0.002 C 
ATOM     16  C   UNL     1       3.195 -11.994   6.031  0.00  0.00    +0.022 C 
ENDBRANCH   9  11
ENDBRANCH   2   5
BRANCH   1  17
ATOM     17  C   UNL     1       2.459  -5.972   1.079  0.00  0.00    +0.105 C 
BRANCH  17  18
ATOM     18  C   UNL     1       2.381  -4.444   1.088  0.00  0.00    +0.034 C 
BRANCH  18  19
ATOM     19  C   UNL     1       1.453  -3.974  -0.034  0.00  0.00    +0.086 C 
BRANCH  19  24
ATOM     20  C   UNL     1      -0.018   1.465   0.010  0.00  0.00    -0.096 C 
ATOM     21  N   UNL     1       0.002  -0.004   0.002  0.00  0.00    +0.379 N 
ATOM     22  C   UNL     1       0.688  -0.477  -1.207  0.00  0.00    -0.064 C 
ATOM     23  C   UNL     1       0.693  -2.008  -1.226  0.00  0.00    +0.066 C 
ATOM     24  N   UNL     1       1.378  -2.507  -0.025  0.00  0.00    -0.306 NA
ATOM     25  C   UNL     1       0.717  -2.021   1.194  0.00  0.00    +0.066 C 
ATOM     26  C   UNL     1       0.713  -0.490   1.192  0.00  0.00    -0.064 C 
ATOM     27  H   UNL     1      -0.945  -0.353   0.010  0.00  0.00    -0.082 HD
ENDBRANCH  19  24
ENDBRANCH  18  19
ENDBRANCH  17  18
ENDBRANCH   1  17
TORSDOF 6
