REMARK  Name = ZINC40334954
REMARK  7 active torsions:
REMARK  status: ('A' for Active; 'I' for Inactive)
REMARK    1  A    between atoms: C_1  and  N_2
REMARK    2  A    between atoms: C_6  and  C_7
REMARK    3  A    between atoms: C_7  and  N_8
REMARK    4  A    between atoms: N_8  and  C_9
REMARK    5  A    between atoms: N_8  and  S_10
REMARK    6  A    between atoms: S_10  and  C_13
REMARK    7  A    between atoms: C_17  and  N_19
REMARK                            x       y       z     vdW  Elec       q    Type
REMARK                         _______ _______ _______ _____ _____    ______ ____
ROOT
ATOM      1  S   UNL     1       2.290  -1.236   3.716  0.00  0.00    +0.061 S 
ATOM      2  O   UNL     1       3.289  -0.554   4.463  0.00  0.00    -0.153 OA
ATOM      3  O   UNL     1       1.356  -2.118   4.322  0.00  0.00    -0.153 OA
ENDROOT
BRANCH   1   4
ATOM      4  C   UNL     1       3.133  -2.165   2.479  0.00  0.00    +0.107 A 
ATOM      5  C   UNL     1       2.530  -3.279   1.923  0.00  0.00    +0.030 A 
ATOM      6  C   UNL     1       3.188  -4.012   0.952  0.00  0.00    +0.024 A 
ATOM      7  C   UNL     1       4.450  -3.634   0.535  0.00  0.00    +0.062 A 
ATOM      8  C   UNL     1       5.057  -2.515   1.092  0.00  0.00    +0.045 A 
ATOM      9  C   UNL     1       4.391  -1.778   2.063  0.00  0.00    +0.052 A 
ATOM     10 CL   UNL     1       5.275  -4.555  -0.683  0.00  0.00    -0.082 Cl
BRANCH   8  11
ATOM     11  N   UNL     1       6.333  -2.129   0.673  0.00  0.00    -0.357 N 
ATOM     12  H   UNL     1       6.796  -2.642  -0.008  0.00  0.00    +0.142 HD
ATOM     13  H   UNL     1       6.756  -1.347   1.062  0.00  0.00    +0.142 HD
ENDBRANCH   8  11
ENDBRANCH   1   4
BRANCH   1  14
ATOM     14  N   UNL     1       1.406  -0.072   2.937  0.00  0.00    -0.172 NA
ATOM     15  C   UNL     1       2.000   1.239   2.664  0.00  0.00    +0.132 C 
BRANCH  14  16
ATOM     16  C   UNL     1       0.030  -0.354   2.521  0.00  0.00    +0.181 C 
BRANCH  16  22
ATOM     17  C   UNL     1      -0.018   1.461   0.010  0.00  0.00    +0.150 C 
ATOM     18  N   UNL     1       0.002  -0.004   0.002  0.00  0.00    -0.338 N 
ATOM     19  C   UNL     1       0.009  -0.810  -1.104  0.00  0.00    +0.104 A 
ATOM     20  C   UNL     1       0.029  -2.081  -0.660  0.00  0.00    +0.101 A 
ATOM     21  N   UNL     1       0.034  -2.052   0.681  0.00  0.00    -0.349 N 
ATOM     22  C   UNL     1       0.023  -0.811   1.085  0.00  0.00    +0.103 A 
ATOM     23  H   UNL     1       0.048  -2.831   1.260  0.00  0.00    +0.166 HD
ENDBRANCH  16  22
ENDBRANCH  14  16
ENDBRANCH   1  14
TORSDOF 5
