REMARK  Name = ZINC34977626
REMARK  5 active torsions:
REMARK  status: ('A' for Active; 'I' for Inactive)
REMARK    1  A    between atoms: C_1  and  C_2
REMARK    2  A    between atoms: C_3  and  N_18
REMARK    3  A    between atoms: N_6  and  C_9
REMARK    4  A    between atoms: N_7  and  C_8
REMARK    5  A    between atoms: C_14  and  N_15
REMARK                            x       y       z     vdW  Elec       q    Type
REMARK                         _______ _______ _______ _____ _____    ______ ____
ROOT
ATOM      1  C   UNL     1      -0.018   1.503   0.010  0.00  0.00    +0.067 C 
ATOM      2  C   UNL     1       0.002  -0.004   0.002  0.00  0.00    +0.059 A 
ATOM      3  C   UNL     1       0.008  -0.788  -1.097  0.00  0.00    +0.112 A 
ATOM      4  C   UNL     1       0.028  -2.141  -0.670  0.00  0.00    +0.293 A 
ATOM      5  O   UNL     1       0.039  -3.122  -1.393  0.00  0.00    -0.264 OA
ATOM      6  N   UNL     1       0.034  -2.147   0.678  0.00  0.00    -0.213 N 
ATOM      7  N   UNL     1       0.024  -0.815   1.111  0.00  0.00    -0.282 N 
ATOM      8  C   UNL     1       0.031  -0.364   2.505  0.00  0.00    +0.171 C 
ENDROOT
BRANCH   6   9
ATOM      9  C   UNL     1       0.053  -3.280   1.497  0.00  0.00    +0.097 A 
ATOM     10  C   UNL     1       1.260  -3.885   1.821  0.00  0.00    +0.030 A 
ATOM     11  C   UNL     1       1.275  -5.004   2.630  0.00  0.00    +0.002 A 
ATOM     12  C   UNL     1       0.090  -5.522   3.119  0.00  0.00    +0.002 A 
ATOM     13  C   UNL     1      -1.114  -4.922   2.799  0.00  0.00    +0.035 A 
ATOM     14  C   UNL     1      -1.136  -3.799   1.995  0.00  0.00    +0.151 A 
BRANCH  14  15
ATOM     15  N   UNL     1      -2.424  -3.153   1.658  0.00  0.00    +0.059 N 
ATOM     16  O   UNL     1      -3.458  -3.605   2.091  0.00  0.00    -0.126 OA
ATOM     17  O   UNL     1      -2.443  -2.173   0.950  0.00  0.00    -0.126 OA
ENDBRANCH  14  15
ENDBRANCH   6   9
BRANCH   3  18
ATOM     18  N   UNL     1      -0.003  -0.341  -2.435  0.00  0.00    -0.352 N 
ATOM     19  H   UNL     1      -0.017   0.609  -2.628  0.00  0.00    +0.143 HD
ATOM     20  H   UNL     1       0.002  -0.984  -3.161  0.00  0.00    +0.143 HD
ENDBRANCH   3  18
TORSDOF 3
