REMARK  Name = ZINC54028067
REMARK  12 active torsions:
REMARK  status: ('A' for Active; 'I' for Inactive)
REMARK    1  A    between atoms: C_1  and  C_2
REMARK    2  A    between atoms: C_2  and  N_3
REMARK    3  A    between atoms: N_3  and  C_4
REMARK    4  A    between atoms: C_4  and  C_6
REMARK    5  A    between atoms: C_4  and  C_17
REMARK    6  A    between atoms: C_6  and  C_7
REMARK    7  A    between atoms: C_7  and  N_8
REMARK    8  A    between atoms: N_8  and  C_9
REMARK    9  A    between atoms: N_8  and  C_10
REMARK   10  A    between atoms: C_17  and  C_18
REMARK   11  A    between atoms: C_17  and  C_19
REMARK   12  A    between atoms: C_17  and  C_20
REMARK                            x       y       z     vdW  Elec       q    Type
REMARK                         _______ _______ _______ _____ _____    ______ ____
ROOT
ATOM      1  C   UNL     1       1.268  -3.262  -2.686  0.00  0.00    -0.034 C 
ENDROOT
BRANCH   1   2
ATOM      2  C   UNL     1       1.002  -2.763  -1.264  0.00  0.00    -0.068 C 
BRANCH   2   3
ATOM      3  C   UNL     1       1.873  -3.545  -0.278  0.00  0.00    -0.050 C 
ATOM      4  C   UNL     1       1.548  -3.103   1.150  0.00  0.00    +0.009 C 
ATOM      5  C   UNL     1       1.591  -5.042  -0.425  0.00  0.00    +0.009 C 
ATOM      6  C   UNL     1       3.349  -3.272  -0.573  0.00  0.00    +0.009 C 
ENDBRANCH   2   3
BRANCH   2   7
ATOM      7  N   UNL     1       1.329  -1.333  -1.178  0.00  0.00    +0.381 N 
ATOM      8  H   UNL     1       2.100  -1.127  -1.794  0.00  0.00    -0.086 HD
ATOM      9  H   UNL     1       1.585  -1.103  -0.230  0.00  0.00    -0.086 HD
BRANCH   7  11
ATOM     10  C   UNL     1       0.494   0.950  -1.472  0.00  0.00    -0.017 C 
ATOM     11  C   UNL     1       0.159  -0.539  -1.575  0.00  0.00    -0.086 C 
ENDBRANCH   7  11
ENDBRANCH   2   7
ENDBRANCH   1   2
BRANCH   1  12
ATOM     12  C   UNL     1       0.371  -2.506  -3.668  0.00  0.00    -0.080 C 
BRANCH  12  13
ATOM     13  N   UNL     1       0.510  -3.091  -5.008  0.00  0.00    +0.380 N 
ATOM     14  C   UNL     1      -0.042  -4.452  -5.007  0.00  0.00    -0.096 C 
ATOM     15  H   UNL     1       1.486  -3.123  -5.261  0.00  0.00    -0.082 HD
BRANCH  13  16
ATOM     16  C   UNL     1      -0.221  -2.267  -5.980  0.00  0.00    -0.069 C 
ATOM     17  C   UNL     1      -0.183  -2.964  -7.355  0.00  0.00    -0.015 C 
ATOM     18  C   UNL     1      -1.311  -2.429  -8.194  0.00  0.00    -0.002 C 
ATOM     19  C   UNL     1      -0.872  -1.259  -9.095  0.00  0.00    -0.000 C 
ATOM     20  C   UNL     1       0.063  -0.269  -8.375  0.00  0.00    -0.000 C 
ATOM     21  C   UNL     1      -0.377   0.017  -6.964  0.00  0.00    -0.002 C 
ATOM     22  C   UNL     1       0.374  -0.939  -6.014  0.00  0.00    -0.015 C 
ENDBRANCH  13  16
ENDBRANCH  12  13
ENDBRANCH   1  12
TORSDOF 7
