REMARK  Name = ZINC40501006
REMARK  5 active torsions:
REMARK  status: ('A' for Active; 'I' for Inactive)
REMARK    1  A    between atoms: C_1  and  C_2
REMARK    2  A    between atoms: C_2  and  C_4
REMARK    3  A    between atoms: C_2  and  N_9
REMARK    4  A    between atoms: N_12  and  C_13
REMARK    5  A    between atoms: C_13  and  C_14
REMARK                            x       y       z     vdW  Elec       q    Type
REMARK                         _______ _______ _______ _____ _____    ______ ____
ROOT
ATOM      1  C   UNL     1      -4.053  -1.252  -2.395  0.00  0.00    +0.142 C 
ENDROOT
BRANCH   1   2
ATOM      2  C   UNL     1      -5.432  -1.789  -2.109  0.00  0.00    -0.014 A 
ATOM      3  C   UNL     1      -5.656  -3.159  -2.062  0.00  0.00    +0.010 A 
ATOM      4  C   UNL     1      -6.936  -3.610  -1.797  0.00  0.00    +0.042 A 
ATOM      5  C   UNL     1      -7.950  -2.682  -1.587  0.00  0.00    +0.099 A 
ATOM      6  N   UNL     1      -7.697  -1.383  -1.639  0.00  0.00    -0.349 N 
ATOM      7  C   UNL     1      -6.484  -0.924  -1.885  0.00  0.00    +0.089 A 
ATOM      8  N   UNL     1      -9.242  -3.121  -1.320  0.00  0.00    -0.312 N 
ATOM      9  C   UNL     1     -10.308  -2.170  -0.969  0.00  0.00    +0.134 C 
ATOM     10  C   UNL     1     -11.520  -2.449  -1.865  0.00  0.00    +0.178 C 
ATOM     11  O   UNL     1     -11.855  -3.836  -1.786  0.00  0.00    -0.377 OA
ATOM     12  C   UNL     1     -10.830  -4.714  -2.257  0.00  0.00    +0.178 C 
ATOM     13  C   UNL     1      -9.584  -4.551  -1.386  0.00  0.00    +0.134 C 
ATOM     14  H   UNL     1      -8.420  -0.754  -1.490  0.00  0.00    +0.167 HD
ENDBRANCH   1   2
BRANCH   1  18
ATOM     15  N   UNL     1      -1.390  -0.459   0.013  0.00  0.00    -0.292 N 
ATOM     16  C   UNL     1      -2.061  -0.614  -1.145  0.00  0.00    +0.300 C 
ATOM     17  O   UNL     1      -1.527  -0.328  -2.200  0.00  0.00    -0.253 OA
ATOM     18  N   UNL     1      -3.324  -1.085  -1.135  0.00  0.00    -0.295 N 
ATOM     19  H   UNL     1      -1.816  -0.687   0.854  0.00  0.00    +0.151 HD
ATOM     20  H   UNL     1      -3.749  -1.312  -0.294  0.00  0.00    +0.151 HD
BRANCH  15  22
ATOM     21  C   UNL     1      -0.043   1.582  -0.017  0.00  0.00    +0.033 C 
ATOM     22  C   UNL     1      -0.017   0.052   0.002  0.00  0.00    +0.108 C 
BRANCH  22  23
ATOM     23  C   UNL     1       0.706  -0.422   1.236  0.00  0.00    +0.010 A 
ATOM     24  C   UNL     1       1.986  -0.851   1.363  0.00  0.00    +0.013 A 
ATOM     25  C   UNL     1       2.441  -1.243   2.608  0.00  0.00    +0.008 A 
ATOM     26  C   UNL     1       1.593  -1.187   3.665  0.00  0.00    +0.045 A 
ATOM     27  S   UNL     1       0.102  -0.560   2.910  0.00  0.00    -0.100 S 
ENDBRANCH  22  23
ENDBRANCH  15  22
ENDBRANCH   1  18
TORSDOF 4
