REMARK  Name = ZINC55193920
REMARK  8 active torsions:
REMARK  status: ('A' for Active; 'I' for Inactive)
REMARK    1  A    between atoms: C_1  and  C_2
REMARK    2  A    between atoms: C_2  and  C_3
REMARK    3  A    between atoms: C_6  and  C_9
REMARK    4  A    between atoms: C_6  and  N_19
REMARK    5  A    between atoms: C_12  and  O_17
REMARK    6  A    between atoms: C_13  and  O_15
REMARK    7  A    between atoms: O_15  and  C_16
REMARK    8  A    between atoms: O_17  and  C_18
REMARK                            x       y       z     vdW  Elec       q    Type
REMARK                         _______ _______ _______ _____ _____    ______ ____
ROOT
ATOM      1  C   UNL     1      -1.374  -0.726  -0.126  0.00  0.00    -0.011 C 
ATOM      2  C   UNL     1      -1.978  -0.239   1.193  0.00  0.00    +0.002 C 
ATOM      3  C   UNL     1      -3.443  -0.673   1.273  0.00  0.00    -0.008 C 
ATOM      4  C   UNL     1      -3.528  -2.199   1.206  0.00  0.00    -0.045 C 
ATOM      5  C   UNL     1      -2.924  -2.686  -0.113  0.00  0.00    -0.008 C 
ATOM      6  C   UNL     1      -1.459  -2.252  -0.193  0.00  0.00    +0.002 C 
ENDROOT
BRANCH   4   7
ATOM      7  C   UNL     1      -2.764  -2.796   2.359  0.00  0.00    -0.055 A 
ATOM      8  C   UNL     1      -2.665  -2.105   3.553  0.00  0.00    +0.006 A 
ATOM      9  C   UNL     1      -1.965  -2.648   4.614  0.00  0.00    +0.049 A 
ATOM     10  C   UNL     1      -1.360  -3.888   4.482  0.00  0.00    +0.161 A 
ATOM     11  C   UNL     1      -1.460  -4.584   3.281  0.00  0.00    +0.162 A 
ATOM     12  C   UNL     1      -2.167  -4.035   2.223  0.00  0.00    +0.051 A 
BRANCH  11  13
ATOM     13  O   UNL     1      -0.868  -5.801   3.148  0.00  0.00    -0.491 OA
ATOM     14  C   UNL     1      -1.012  -6.457   1.886  0.00  0.00    +0.277 C 
ENDBRANCH  11  13
BRANCH  10  15
ATOM     15  O   UNL     1      -0.671  -4.424   5.525  0.00  0.00    -0.491 OA
ATOM     16  C   UNL     1      -0.610  -3.653   6.727  0.00  0.00    +0.277 C 
ENDBRANCH  10  15
ENDBRANCH   4   7
BRANCH   4  17
ATOM     17  N   UNL     1      -4.935  -2.615   1.283  0.00  0.00    +0.385 N 
ATOM     18  H   UNL     1      -5.447  -2.215   0.510  0.00  0.00    -0.089 HD
ATOM     19  H   UNL     1      -4.991  -3.622   1.238  0.00  0.00    -0.089 HD
ATOM     20  H   UNL     1      -5.333  -2.294   2.152  0.00  0.00    -0.089 HD
ENDBRANCH   4  17
BRANCH   1  22
ATOM     21  C   UNL     1       0.169   1.235  -0.265  0.00  0.00    +0.004 C 
ATOM     22  C   UNL     1       0.091  -0.292  -0.206  0.00  0.00    -0.000 C 
ENDBRANCH   1  22
TORSDOF 5
