REMARK  Name = ZINC41014892
REMARK  4 active torsions:
REMARK  status: ('A' for Active; 'I' for Inactive)
REMARK    1  A    between atoms: C_6  and  C_7
REMARK    2  A    between atoms: C_7  and  N_8
REMARK    3  A    between atoms: N_8  and  C_9
REMARK    4  A    between atoms: C_9  and  C_10
REMARK                            x       y       z     vdW  Elec       q    Type
REMARK                         _______ _______ _______ _____ _____    ______ ____
ROOT
ATOM      1  C   UNL     1      -3.060  -2.555  -2.779  0.00  0.00    -0.060 A 
ATOM      2  C   UNL     1      -3.927  -1.772  -3.521  0.00  0.00    +0.051 A 
ATOM      3  C   UNL     1      -4.238  -2.135  -4.820  0.00  0.00    +0.163 A 
ATOM      4  C   UNL     1      -3.683  -3.279  -5.375  0.00  0.00    +0.176 A 
ATOM      5  C   UNL     1      -2.816  -4.061  -4.630  0.00  0.00    +0.063 A 
ATOM      6  C   UNL     1      -2.502  -3.692  -3.333  0.00  0.00    +0.021 A 
ATOM      7 BR   UNL     1      -2.058  -5.621  -5.383  0.00  0.00    -0.046 Br
ATOM      8  O   UNL     1      -3.996  -3.627  -6.657  0.00  0.00    -0.487 OA
ATOM      9  C   UNL     1      -5.343  -4.047  -6.879  0.00  0.00    +0.232 C 
ATOM     10  C   UNL     1      -6.252  -2.848  -7.101  0.00  0.00    +0.082 C 
ATOM     11  C   UNL     1      -6.355  -1.963  -5.868  0.00  0.00    +0.232 C 
ATOM     12  O   UNL     1      -5.091  -1.371  -5.563  0.00  0.00    -0.488 OA
ENDROOT
BRANCH   1  13
ATOM     13  C   UNL     1      -2.718  -2.164  -1.364  0.00  0.00    -0.046 C 
BRANCH  13  14
ATOM     14  N   UNL     1      -1.540  -1.286  -1.371  0.00  0.00    +0.385 N 
ATOM     15  H   UNL     1      -1.740  -0.457  -1.910  0.00  0.00    -0.085 HD
ATOM     16  H   UNL     1      -0.759  -1.774  -1.782  0.00  0.00    -0.085 HD
BRANCH  14  17
ATOM     17  C   UNL     1      -1.206  -0.904   0.008  0.00  0.00    -0.024 C 
BRANCH  17  23
ATOM     18  C   UNL     1      -0.017   1.395   0.010  0.00  0.00    +0.042 A 
ATOM     19  C   UNL     1       1.265   1.828  -0.000  0.00  0.00    +0.105 A 
ATOM     20  N   UNL     1       2.066   0.743  -0.014  0.00  0.00    -0.285 N 
ATOM     21  H   UNL     1       3.036   0.750  -0.023  0.00  0.00    +0.188 HD
ATOM     22  N   UNL     1       1.250  -0.396  -0.012  0.00  0.00    -0.181 NA
ATOM     23  C   UNL     1       0.002  -0.004   0.002  0.00  0.00    +0.046 A 
ENDBRANCH  17  23
ENDBRANCH  14  17
ENDBRANCH  13  14
ENDBRANCH   1  13
TORSDOF 4
