REMARK  Name = ZINC19832542
REMARK  7 active torsions:
REMARK  status: ('A' for Active; 'I' for Inactive)
REMARK    1  A    between atoms: C_1  and  C_2
REMARK    2  A    between atoms: C_2  and  O_3
REMARK    3  A    between atoms: O_3  and  C_4
REMARK    4  A    between atoms: C_6  and  C_11
REMARK    5  A    between atoms: C_9  and  O_10
REMARK    6  A    between atoms: C_13  and  C_20
REMARK    7  A    between atoms: C_16  and  C_17
REMARK                            x       y       z     vdW  Elec       q    Type
REMARK                         _______ _______ _______ _____ _____    ______ ____
ROOT
ATOM      1  C   UNL     1       0.625  -4.952  -0.032  0.00  0.00    +0.005 A 
ATOM      2  C   UNL     1       0.746  -5.998   0.881  0.00  0.00    +0.038 A 
ATOM      3  C   UNL     1       1.871  -6.817   0.833  0.00  0.00    +0.075 A 
ATOM      4  N   UNL     1       2.832  -6.611  -0.061  0.00  0.00    -0.231 NA
ATOM      5  C   UNL     1       2.768  -5.630  -0.945  0.00  0.00    +0.135 A 
ATOM      6  C   UNL     1       1.664  -4.759  -0.969  0.00  0.00    +0.099 A 
ATOM      7  N   UNL     1       3.796  -5.458  -1.855  0.00  0.00    -0.342 N 
ATOM      8  H   UNL     1       3.748  -4.644  -2.593  0.00  0.00    +0.144 HD
ATOM      9  H   UNL     1       4.662  -6.136  -1.841  0.00  0.00    +0.144 HD
ENDROOT
BRANCH   3  10
ATOM     10  C   UNL     1       2.001  -7.934   1.798  0.00  0.00    +0.019 A 
ATOM     11  C   UNL     1       1.003  -8.159   2.746  0.00  0.00    +0.013 A 
ATOM     12  C   UNL     1       1.126  -9.204   3.638  0.00  0.00    +0.021 A 
ATOM     13  C   UNL     1       2.244 -10.021   3.602  0.00  0.00    +0.042 A 
ATOM     14  C   UNL     1       3.240  -9.799   2.667  0.00  0.00    +0.040 A 
ATOM     15  C   UNL     1       3.125  -8.760   1.765  0.00  0.00    +0.052 A 
ATOM     16 CL   UNL     1       4.375  -8.482   0.593  0.00  0.00    -0.083 Cl
ATOM     17 CL   UNL     1       2.395 -11.329   4.734  0.00  0.00    -0.083 Cl
ENDBRANCH   3  10
BRANCH   1  20
ATOM     18  C   UNL     1      -1.498  -1.849   0.006  0.00  0.00    +0.162 A 
ATOM     19  C   UNL     1      -0.391  -2.677  -0.014  0.00  0.00    +0.058 A 
ATOM     20  C   UNL     1      -0.558  -4.062  -0.015  0.00  0.00    -0.013 A 
ATOM     21  C   UNL     1      -1.842  -4.606  -0.006  0.00  0.00    +0.012 A 
ATOM     22  C   UNL     1      -2.944  -3.777   0.009  0.00  0.00    +0.050 A 
ATOM     23  C   UNL     1      -2.778  -2.399   0.016  0.00  0.00    +0.158 A 
BRANCH  23  24
ATOM     24  O   UNL     1      -3.866  -1.585   0.031  0.00  0.00    -0.503 OA
ATOM     25  H   UNL     1      -4.878  -2.019   0.038  0.00  0.00    +0.292 HD
ENDBRANCH  23  24
BRANCH  18  26
ATOM     26  O   UNL     1      -1.339  -0.499   0.012  0.00  0.00    -0.489 OA
BRANCH  26  28
ATOM     27  C   UNL     1      -0.019   1.526   0.010  0.00  0.00    +0.048 C 
ATOM     28  C   UNL     1       0.002  -0.004   0.002  0.00  0.00    +0.226 C 
ENDBRANCH  26  28
ENDBRANCH  18  26
ENDBRANCH   1  20
BRANCH   6  29
ATOM     29  C   UNL     1       1.595  -3.696  -1.925  0.00  0.00    +0.103 C 
ATOM     30  N   UNL     1       1.540  -2.853  -2.684  0.00  0.00    -0.191 NA
ENDBRANCH   6  29
TORSDOF 6
