REMARK  Name = ZINC08157054
REMARK  9 active torsions:
REMARK  status: ('A' for Active; 'I' for Inactive)
REMARK    1  A    between atoms: C_1  and  C_2
REMARK    2  A    between atoms: C_2  and  C_3
REMARK    3  A    between atoms: C_2  and  C_4
REMARK    4  A    between atoms: C_4  and  C_6
REMARK    5  A    between atoms: C_4  and  O_12
REMARK    6  A    between atoms: O_12  and  C_13
REMARK    7  A    between atoms: C_13  and  C_15
REMARK    8  A    between atoms: N_18  and  C_21
REMARK    9  A    between atoms: C_24  and  C_26
REMARK                            x       y       z     vdW  Elec       q    Type
REMARK                         _______ _______ _______ _____ _____    ______ ____
ROOT
ATOM      1  C   UNL     1      -5.891   2.222   0.938  0.00  0.00    +0.101 C 
ATOM      2  C   UNL     1      -5.492   3.451   1.759  0.00  0.00    +0.033 C 
ATOM      3  C   UNL     1      -6.724   4.331   1.983  0.00  0.00    +0.107 C 
ATOM      4  N   UNL     1      -7.756   3.562   2.689  0.00  0.00    -0.317 N 
ATOM      5  C   UNL     1      -8.189   2.404   1.897  0.00  0.00    +0.107 C 
ATOM      6  C   UNL     1      -7.002   1.465   1.672  0.00  0.00    +0.033 C 
ENDROOT
BRANCH   4   7
ATOM      7  C   UNL     1      -8.837   4.369   3.023  0.00  0.00    +0.099 A 
ATOM      8  C   UNL     1      -8.631   5.521   3.775  0.00  0.00    +0.042 A 
ATOM      9  C   UNL     1      -9.716   6.315   4.101  0.00  0.00    +0.017 A 
ATOM     10  C   UNL     1     -10.975   5.929   3.662  0.00  0.00    +0.071 A 
ATOM     11  C   UNL     1     -11.107   4.773   2.919  0.00  0.00    +0.096 A 
ATOM     12  N   UNL     1     -10.063   3.972   2.575  0.00  0.00    -0.349 N 
ATOM     13  H   UNL     1     -10.190   3.122   2.014  0.00  0.00    +0.167 HD
BRANCH  10  14
ATOM     14  C   UNL     1     -12.186   6.764   3.992  0.00  0.00    +0.419 C 
ATOM     15  F   UNL     1     -12.386   7.714   2.985  0.00  0.00    -0.166 F 
ATOM     16  F   UNL     1     -13.311   5.938   4.084  0.00  0.00    -0.166 F 
ATOM     17  F   UNL     1     -11.984   7.414   5.214  0.00  0.00    -0.166 F 
ENDBRANCH  10  14
ENDBRANCH   4   7
BRANCH   1  18
ATOM     18  C   UNL     1      -4.696   1.320   0.766  0.00  0.00    +0.311 C 
ATOM     19  O   UNL     1      -4.728   0.188   1.186  0.00  0.00    -0.251 OA
BRANCH  18  20
ATOM     20  O   UNL     1      -3.595   1.776   0.148  0.00  0.00    -0.451 OA
BRANCH  20  21
ATOM     21  C   UNL     1      -2.482   0.853   0.018  0.00  0.00    +0.264 C 
BRANCH  21  22
ATOM     22  C   UNL     1      -1.187   1.624   0.017  0.00  0.00    +0.261 C 
ATOM     23  O   UNL     1      -1.204   2.836   0.023  0.00  0.00    -0.271 OA
ATOM     24  N   UNL     1      -0.011   0.966   0.007  0.00  0.00    -0.237 N 
ATOM     25  C   UNL     1       1.147   1.655   0.000  0.00  0.00    +0.303 C 
ATOM     26  O   UNL     1       1.130   2.871   0.007  0.00  0.00    -0.253 OA
ATOM     27  N   UNL     1       2.323   0.998  -0.015  0.00  0.00    -0.313 N 
ATOM     28  H   UNL     1       0.002  -0.004   0.002  0.00  0.00    +0.159 HD
ATOM     29  H   UNL     1       2.336   0.028  -0.020  0.00  0.00    +0.146 HD
ATOM     30  H   UNL     1       3.156   1.494  -0.020  0.00  0.00    +0.146 HD
ENDBRANCH  21  22
BRANCH  21  32
ATOM     31  C   UNL     1      -3.929  -0.708  -1.290  0.00  0.00    +0.011 C 
ATOM     32  C   UNL     1      -2.615   0.075  -1.292  0.00  0.00    +0.033 C 
ATOM     33  C   UNL     1      -2.605   1.053  -2.469  0.00  0.00    +0.011 C 
ENDBRANCH  21  32
ENDBRANCH  20  21
ENDBRANCH  18  20
ENDBRANCH   1  18
TORSDOF 7
