REMARK  Name = ZINC35101771
REMARK  4 active torsions:
REMARK  status: ('A' for Active; 'I' for Inactive)
REMARK    1  A    between atoms: C_4  and  N_6
REMARK    2  A    between atoms: C_8  and  C_13
REMARK    3  A    between atoms: N_15  and  C_16
REMARK    4  A    between atoms: C_19  and  O_22
REMARK                            x       y       z     vdW  Elec       q    Type
REMARK                         _______ _______ _______ _____ _____    ______ ____
ROOT
ATOM      1  C   UNL     1       1.683  -4.013  -4.088  0.00  0.00    +0.218 C 
ATOM      2  O   UNL     1       2.851  -4.190  -3.812  0.00  0.00    -0.275 OA
ATOM      3  N   UNL     1       1.152  -4.603  -5.177  0.00  0.00    -0.312 N 
ATOM      4  H   UNL     1       0.218  -4.462  -5.398  0.00  0.00    +0.149 HD
ENDROOT
BRANCH   1   7
ATOM      5  N   UNL     1       1.136  -1.207  -1.821  0.00  0.00    -0.298 N 
ATOM      6  C   UNL     1       1.642  -2.569  -2.030  0.00  0.00    +0.121 C 
ATOM      7  C   UNL     1       0.826  -3.135  -3.214  0.00  0.00    +0.101 C 
ATOM      8  C   UNL     1       0.415  -1.843  -3.959  0.00  0.00    +0.110 C 
ATOM      9  C   UNL     1       0.443  -0.774  -2.889  0.00  0.00    +0.217 C 
ATOM     10  O   UNL     1      -0.081   0.315  -2.982  0.00  0.00    -0.276 OA
BRANCH   5  14
ATOM     11  C   UNL     1      -0.019   1.538   0.011  0.00  0.00    +0.002 C 
ATOM     12  C   UNL     1       1.477   1.939  -0.002  0.00  0.00    +0.002 C 
ATOM     13  C   UNL     1       2.107   0.881  -0.942  0.00  0.00    +0.022 C 
ATOM     14  C   UNL     1       1.353  -0.422  -0.604  0.00  0.00    +0.076 C 
ATOM     15  C   UNL     1       0.002  -0.004   0.002  0.00  0.00    +0.022 C 
ENDBRANCH   5  14
ENDBRANCH   1   7
BRANCH   3  16
ATOM     16  C   UNL     1       1.985  -5.457  -6.027  0.00  0.00    +0.073 C 
ATOM     17  C   UNL     1       2.013  -6.875  -5.454  0.00  0.00    +0.025 C 
ATOM     18  C   UNL     1       2.883  -7.768  -6.342  0.00  0.00    +0.033 C 
ATOM     19  C   UNL     1       2.301  -7.801  -7.756  0.00  0.00    +0.115 C 
ATOM     20  C   UNL     1       2.273  -6.383  -8.330  0.00  0.00    +0.033 C 
ATOM     21  C   UNL     1       1.403  -5.491  -7.442  0.00  0.00    +0.025 C 
BRANCH  19  22
ATOM     22  O   UNL     1       0.972  -8.324  -7.713  0.00  0.00    -0.392 OA
ATOM     23  H   UNL     1       0.541  -8.374  -8.577  0.00  0.00    +0.210 HD
ENDBRANCH  19  22
ENDBRANCH   3  16
TORSDOF 4
