REMARK  Name = ZINC37703555
REMARK  8 active torsions:
REMARK  status: ('A' for Active; 'I' for Inactive)
REMARK    1  A    between atoms: C_1  and  C_2
REMARK    2  A    between atoms: C_2  and  C_3
REMARK    3  A    between atoms: C_2  and  N_4
REMARK    4  A    between atoms: N_4  and  C_5
REMARK    5  A    between atoms: C_5  and  C_6
REMARK    6  A    between atoms: C_11  and  O_12
REMARK    7  A    between atoms: O_12  and  C_13
REMARK    8  A    between atoms: C_19  and  O_21
REMARK                            x       y       z     vdW  Elec       q    Type
REMARK                         _______ _______ _______ _____ _____    ______ ____
ROOT
ATOM      1  C   UNL     1      -2.863  -2.303  -0.057  0.00  0.00    -0.021 A 
ATOM      2  C   UNL     1      -3.396  -2.834   1.102  0.00  0.00    +0.025 A 
ATOM      3  C   UNL     1      -4.604  -3.507   1.063  0.00  0.00    +0.041 A 
ATOM      4  C   UNL     1      -5.281  -3.649  -0.135  0.00  0.00    +0.023 A 
ATOM      5  C   UNL     1      -4.752  -3.120  -1.296  0.00  0.00    +0.047 A 
ATOM      6  C   UNL     1      -3.543  -2.440  -1.258  0.00  0.00    +0.122 A 
ATOM      7 CL   UNL     1      -5.272  -4.174   2.521  0.00  0.00    -0.084 Cl
ENDROOT
BRANCH   1   8
ATOM      8  C   UNL     1      -1.547  -1.570  -0.014  0.00  0.00    -0.043 C 
BRANCH   8   9
ATOM      9  N   UNL     1      -1.793  -0.122   0.003  0.00  0.00    +0.383 N 
ATOM     10  H   UNL     1      -2.337   0.117   0.818  0.00  0.00    -0.085 HD
ATOM     11  H   UNL     1      -2.299   0.143  -0.829  0.00  0.00    -0.085 HD
BRANCH   9  13
ATOM     12  C   UNL     1      -0.760   2.097  -0.064  0.00  0.00    -0.014 C 
ATOM     13  C   UNL     1      -0.510   0.592   0.044  0.00  0.00    -0.078 C 
ATOM     14  C   UNL     1       0.202   0.287   1.364  0.00  0.00    -0.014 C 
ENDBRANCH   9  13
ENDBRANCH   8   9
ENDBRANCH   1   8
BRANCH   6  15
ATOM     15  O   UNL     1      -3.023  -1.912  -2.398  0.00  0.00    -0.486 OA
BRANCH  15  16
ATOM     16  C   UNL     1      -3.829  -1.990  -3.575  0.00  0.00    +0.202 C 
ATOM     17  C   UNL     1      -3.618  -3.347  -4.249  0.00  0.00    +0.047 C 
ATOM     18  C   UNL     1      -4.482  -3.430  -5.510  0.00  0.00    +0.004 C 
ATOM     19  C   UNL     1      -4.082  -2.313  -6.476  0.00  0.00    +0.003 C 
ATOM     20  C   UNL     1      -4.293  -0.956  -5.802  0.00  0.00    +0.035 C 
ATOM     21  C   UNL     1      -3.430  -0.873  -4.541  0.00  0.00    +0.155 C 
BRANCH  21  22
ATOM     22  O   UNL     1      -3.627   0.395  -3.911  0.00  0.00    -0.388 OA
ATOM     23  H   UNL     1      -3.393   1.151  -4.467  0.00  0.00    +0.210 HD
ENDBRANCH  21  22
ENDBRANCH  15  16
ENDBRANCH   6  15
TORSDOF 6
