REMARK  Name = ZINC59472477
REMARK  7 active torsions:
REMARK  status: ('A' for Active; 'I' for Inactive)
REMARK    1  A    between atoms: C_1  and  C_2
REMARK    2  A    between atoms: C_5  and  C_24
REMARK    3  A    between atoms: C_6  and  C_8
REMARK    4  A    between atoms: C_10  and  C_20
REMARK    5  A    between atoms: N_12  and  C_13
REMARK    6  A    between atoms: C_18  and  C_19
REMARK    7  A    between atoms: N_22  and  N_23
REMARK                            x       y       z     vdW  Elec       q    Type
REMARK                         _______ _______ _______ _____ _____    ______ ____
ROOT
ATOM      1  C   UNL     1       0.666  -2.867   2.294  0.00  0.00    +0.076 A 
ATOM      2  C   UNL     1       0.721  -4.233   2.304  0.00  0.00    +0.063 A 
ATOM      3  C   UNL     1       0.419  -4.611   3.631  0.00  0.00    +0.149 A 
ATOM      4  N   UNL     1       0.208  -3.505   4.318  0.00  0.00    -0.161 NA
ATOM      5  N   UNL     1       0.351  -2.475   3.564  0.00  0.00    -0.231 N 
ENDROOT
BRANCH   1  11
ATOM      6  C   UNL     1       2.913   1.112   0.289  0.00  0.00    +0.044 C 
ATOM      7  C   UNL     1       1.986  -0.069   0.163  0.00  0.00    -0.050 A 
ATOM      8  C   UNL     1       1.358  -0.329  -1.042  0.00  0.00    +0.003 A 
ATOM      9  C   UNL     1       0.506  -1.411  -1.165  0.00  0.00    +0.004 A 
ATOM     10  C   UNL     1       0.277  -2.239  -0.086  0.00  0.00    -0.041 A 
ATOM     11  C   UNL     1       0.907  -1.983   1.132  0.00  0.00    +0.004 A 
ATOM     12  C   UNL     1       1.770  -0.893   1.248  0.00  0.00    +0.013 A 
ATOM     13  C   UNL     1      -0.652  -3.418  -0.222  0.00  0.00    +0.044 C 
ENDBRANCH   1  11
BRANCH   5  14
ATOM     14  C   UNL     1       0.202  -1.147   3.982  0.00  0.00    +0.069 A 
ATOM     15  C   UNL     1      -0.669  -0.299   3.310  0.00  0.00    +0.028 A 
ATOM     16  C   UNL     1      -0.814   1.010   3.725  0.00  0.00    +0.002 A 
ATOM     17  C   UNL     1      -0.092   1.477   4.808  0.00  0.00    +0.000 A 
ATOM     18  C   UNL     1       0.775   0.636   5.480  0.00  0.00    +0.005 A 
ATOM     19  C   UNL     1       0.921  -0.676   5.073  0.00  0.00    -0.025 A 
ATOM     20  C   UNL     1       1.862  -1.594   5.809  0.00  0.00    +0.046 C 
ENDBRANCH   5  14
BRANCH   3  21
ATOM     21  C   UNL     1       0.352  -5.992   4.153  0.00  0.00    +0.277 C 
ATOM     22  O   UNL     1       0.569  -6.932   3.413  0.00  0.00    -0.267 OA
ATOM     23  N   UNL     1       0.051  -6.208   5.448  0.00  0.00    -0.248 N 
ATOM     24  H   UNL     1      -0.122  -5.458   6.038  0.00  0.00    +0.169 HD
BRANCH  23  25
ATOM     25  N   UNL     1      -0.011  -7.485   5.931  0.00  0.00    -0.254 NA
ATOM     26  H   UNL     1      -0.247  -7.489   6.912  0.00  0.00    +0.140 HD
ATOM     27  H   UNL     1      -0.665  -8.041   5.400  0.00  0.00    +0.140 HD
ENDBRANCH  23  25
ENDBRANCH   3  21
TORSDOF 4
