REMARK  Name = ZINC00876469
REMARK  4 active torsions:
REMARK  status: ('A' for Active; 'I' for Inactive)
REMARK    1  A    between atoms: C_1  and  C_2
REMARK    2  A    between atoms: C_9  and  C_14
REMARK    3  A    between atoms: C_27  and  N_31
REMARK    4  A    between atoms: C_28  and  C_29
REMARK                            x       y       z     vdW  Elec       q    Type
REMARK                         _______ _______ _______ _____ _____    ______ ____
ROOT
ATOM      1  C   UNL     1       4.856   4.032  -0.014  0.00  0.00    +0.103 C 
ATOM      2  C   UNL     1       3.553   3.275  -0.010  0.00  0.00    +0.008 A 
ATOM      3  C   UNL     1       3.582   1.879  -0.020  0.00  0.00    +0.009 A 
ATOM      4  C   UNL     1       2.437   1.146  -0.015  0.00  0.00    +0.009 A 
ATOM      5  C   UNL     1       1.192   1.799   0.000  0.00  0.00    -0.014 A 
ATOM      6  C   UNL     1      -0.013   1.076   0.008  0.00  0.00    +0.008 A 
ATOM      7  C   UNL     1      -1.198   1.744   0.017  0.00  0.00    +0.001 A 
ATOM      8  C   UNL     1      -1.236   3.137   0.029  0.00  0.00    +0.001 A 
ATOM      9  C   UNL     1      -0.088   3.870   0.022  0.00  0.00    +0.012 A 
ATOM     10  C   UNL     1       1.153   3.214   0.009  0.00  0.00    +0.025 A 
ATOM     11  C   UNL     1       2.363   3.944   0.005  0.00  0.00    +0.142 A 
ATOM     12  O   UNL     1       2.319   5.298   0.015  0.00  0.00    -0.440 OA
ATOM     13  C   UNL     1       3.388   6.008  -0.382  0.00  0.00    +0.199 C 
ATOM     14  C   UNL     1       4.627   5.461  -0.418  0.00  0.00    +0.098 C 
ENDROOT
BRANCH   1  23
ATOM     15  C   UNL     1      10.345   2.257   4.712  0.00  0.00    +0.044 C 
ATOM     16  C   UNL     1       8.991   2.857   4.436  0.00  0.00    -0.050 A 
ATOM     17  C   UNL     1       8.255   3.403   5.480  0.00  0.00    +0.005 A 
ATOM     18  C   UNL     1       7.015   3.957   5.252  0.00  0.00    +0.026 A 
ATOM     19  C   UNL     1       6.492   3.973   3.963  0.00  0.00    +0.049 A 
ATOM     20  C   UNL     1       7.241   3.419   2.907  0.00  0.00    -0.001 A 
ATOM     21  C   UNL     1       8.498   2.861   3.163  0.00  0.00    +0.013 A 
ATOM     22  C   UNL     1       6.682   3.440   1.554  0.00  0.00    +0.020 A 
ATOM     23  C   UNL     1       5.459   3.994   1.366  0.00  0.00    +0.030 A 
ATOM     24  C   UNL     1       4.752   4.542   2.458  0.00  0.00    +0.253 A 
ATOM     25  O   UNL     1       3.656   5.040   2.267  0.00  0.00    -0.268 OA
ATOM     26  N   UNL     1       5.254   4.522   3.705  0.00  0.00    -0.322 N 
ATOM     27  H   UNL     1       4.722   4.912   4.457  0.00  0.00    +0.169 HD
ENDBRANCH   1  23
BRANCH  13  28
ATOM     28  N   UNL     1       3.221   7.317  -0.760  0.00  0.00    -0.328 N 
ATOM     29  H   UNL     1       3.986   7.840  -1.048  0.00  0.00    +0.145 HD
ATOM     30  H   UNL     1       2.339   7.719  -0.738  0.00  0.00    +0.145 HD
ENDBRANCH  13  28
BRANCH  14  31
ATOM     31  C   UNL     1       5.737   6.258  -0.849  0.00  0.00    +0.101 C 
ATOM     32  N   UNL     1       6.617   6.889  -1.190  0.00  0.00    -0.191 NA
ENDBRANCH  14  31
TORSDOF 3
