REMARK  Name = ZINC00114422
REMARK  5 active torsions:
REMARK  status: ('A' for Active; 'I' for Inactive)
REMARK    1  A    between atoms: C_4  and  O_20
REMARK    2  A    between atoms: C_5  and  C_7
REMARK    3  A    between atoms: N_8  and  N_9
REMARK    4  A    between atoms: C_10  and  C_12
REMARK    5  A    between atoms: C_15  and  C_18
REMARK                            x       y       z     vdW  Elec       q    Type
REMARK                         _______ _______ _______ _____ _____    ______ ____
ROOT
ATOM      1  N   UNL     1       3.600   5.951  -0.000  0.00  0.00    -0.203 N 
ATOM      2  C   UNL     1       3.578   7.299   0.007  0.00  0.00    +0.263 C 
ATOM      3  O   UNL     1       2.516   7.889   0.019  0.00  0.00    -0.268 OA
ATOM      4  H   UNL     1       4.448   5.480  -0.010  0.00  0.00    +0.178 HD
ENDROOT
BRANCH   2   5
ATOM      5  C   UNL     1       4.846   8.059  -0.001  0.00  0.00    +0.038 A 
ATOM      6  C   UNL     1       6.067   7.380  -0.009  0.00  0.00    +0.014 A 
ATOM      7  C   UNL     1       7.248   8.088  -0.022  0.00  0.00    +0.019 A 
ATOM      8  C   UNL     1       7.226   9.485  -0.015  0.00  0.00    +0.052 A 
ATOM      9  C   UNL     1       6.005  10.163  -0.001  0.00  0.00    +0.019 A 
ATOM     10  C   UNL     1       4.824   9.455   0.006  0.00  0.00    +0.014 A 
BRANCH   8  11
ATOM     11  C   UNL     1       8.454  10.221  -0.024  0.00  0.00    +0.099 C 
ATOM     12  N   UNL     1       9.428  10.805  -0.030  0.00  0.00    -0.191 NA
ENDBRANCH   8  11
ENDBRANCH   2   5
BRANCH   1  14
ATOM     13  C   UNL     1       2.420   3.933   0.000  0.00  0.00    +0.142 C 
ATOM     14  N   UNL     1       2.399   5.231   0.007  0.00  0.00    -0.187 NA
BRANCH  13  19
ATOM     15  C   UNL     1      -0.013   1.076   0.008  0.00  0.00    +0.001 A 
ATOM     16  C   UNL     1      -1.223   1.749   0.017  0.00  0.00    +0.004 A 
ATOM     17  C   UNL     1      -1.254   3.130   0.030  0.00  0.00    +0.046 A 
ATOM     18  C   UNL     1      -0.071   3.852   0.022  0.00  0.00    +0.125 A 
ATOM     19  C   UNL     1       1.156   3.175   0.008  0.00  0.00    +0.036 A 
ATOM     20  C   UNL     1       1.174   1.779   0.000  0.00  0.00    +0.013 A 
BRANCH  18  21
ATOM     21  O   UNL     1      -0.101   5.210   0.030  0.00  0.00    -0.506 OA
ATOM     22  H   UNL     1      -0.118   5.608  -0.851  0.00  0.00    +0.292 HD
ENDBRANCH  18  21
ENDBRANCH  13  19
ENDBRANCH   1  14
TORSDOF 5
