REMARK  Name = ZINC34087043
REMARK  7 active torsions:
REMARK  status: ('A' for Active; 'I' for Inactive)
REMARK    1  A    between atoms: C_1  and  C_2
REMARK    2  A    between atoms: C_13  and  C_30
REMARK    3  A    between atoms: N_17  and  C_18
REMARK    4  A    between atoms: C_18  and  C_19
REMARK    5  A    between atoms: C_19  and  C_20
REMARK    6  A    between atoms: C_23  and  S_26
REMARK    7  A    between atoms: S_26  and  N_29
REMARK                            x       y       z     vdW  Elec       q    Type
REMARK                         _______ _______ _______ _____ _____    ______ ____
ROOT
ATOM      1  C   UNL     1       0.088   1.565  -0.164  0.00  0.00    +0.078 C 
ATOM      2  C   UNL     1       0.122   0.035  -0.143  0.00  0.00    +0.178 C 
ATOM      3  C   UNL     1      -1.297  -0.509   0.057  0.00  0.00    +0.078 C 
ATOM      4  C   UNL     1      -1.227  -2.036  -0.081  0.00  0.00    +0.051 C 
ATOM      5  C   UNL     1      -0.112  -2.569   0.783  0.00  0.00    -0.001 A 
ATOM      6  C   UNL     1      -0.102  -3.917   1.101  0.00  0.00    +0.007 A 
ATOM      7  C   UNL     1       0.904  -4.441   1.889  0.00  0.00    +0.001 A 
ATOM      8  C   UNL     1       1.909  -3.618   2.364  0.00  0.00    +0.004 A 
ATOM      9  C   UNL     1       1.904  -2.274   2.051  0.00  0.00    +0.046 A 
ATOM     10  C   UNL     1       0.891  -1.744   1.259  0.00  0.00    +0.127 A 
ATOM     11  O   UNL     1       0.925  -0.412   0.954  0.00  0.00    -0.468 OA
ATOM     12  C   UNL     1      -0.940  -2.365  -1.551  0.00  0.00    +0.195 C 
ATOM     13  C   UNL     1       0.228  -1.551  -2.030  0.00  0.00    +0.233 C 
ATOM     14  O   UNL     1       0.789  -1.894  -3.049  0.00  0.00    -0.275 OA
ATOM     15  N   UNL     1       0.690  -0.459  -1.392  0.00  0.00    -0.263 N 
ENDROOT
BRANCH  12  16
ATOM     16  C   UNL     1      -0.619  -3.831  -1.684  0.00  0.00    +0.368 C 
ATOM     17  O   UNL     1      -1.511  -4.633  -1.901  0.00  0.00    -0.245 OA
ATOM     18  O   UNL     1       0.533  -4.215  -1.575  0.00  0.00    -0.245 OA
ENDBRANCH  12  16
BRANCH  15  19
ATOM     19  C   UNL     1       1.815   0.276  -1.974  0.00  0.00    +0.116 C 
BRANCH  19  20
ATOM     20  C   UNL     1       3.129  -0.291  -1.433  0.00  0.00    +0.054 C 
BRANCH  20  21
ATOM     21  C   UNL     1       4.287   0.466  -2.031  0.00  0.00    -0.046 A 
ATOM     22  C   UNL     1       4.853   0.037  -3.217  0.00  0.00    +0.005 A 
ATOM     23  C   UNL     1       5.916   0.731  -3.766  0.00  0.00    +0.029 A 
ATOM     24  C   UNL     1       6.411   1.853  -3.129  0.00  0.00    +0.105 A 
ATOM     25  C   UNL     1       5.845   2.282  -1.944  0.00  0.00    +0.029 A 
ATOM     26  C   UNL     1       4.780   1.591  -1.397  0.00  0.00    +0.005 A 
BRANCH  24  27
ATOM     27  S   UNL     1       7.766   2.737  -3.828  0.00  0.00    +0.056 S 
ATOM     28  O   UNL     1       8.393   3.431  -2.759  0.00  0.00    -0.153 OA
ATOM     29  O   UNL     1       8.467   1.818  -4.655  0.00  0.00    -0.153 OA
BRANCH  27  30
ATOM     30  N   UNL     1       7.132   3.889  -4.834  0.00  0.00    -0.204 NA
ATOM     31  H   UNL     1       6.171   3.967  -4.938  0.00  0.00    +0.144 HD
ATOM     32  H   UNL     1       7.722   4.487  -5.320  0.00  0.00    +0.144 HD
ENDBRANCH  27  30
ENDBRANCH  24  27
ENDBRANCH  20  21
ENDBRANCH  19  20
ENDBRANCH  15  19
TORSDOF 6
