REMARK  Name = ZINC64612706
REMARK  5 active torsions:
REMARK  status: ('A' for Active; 'I' for Inactive)
REMARK    1  A    between atoms: C_4  and  C_7
REMARK    2  A    between atoms: C_11  and  C_14
REMARK    3  A    between atoms: C_17  and  S_19
REMARK    4  A    between atoms: S_19  and  N_22
REMARK    5  A    between atoms: N_22  and  C_23
REMARK                            x       y       z     vdW  Elec       q    Type
REMARK                         _______ _______ _______ _____ _____    ______ ____
ROOT
ATOM      1  C   UNL     1       5.069  -2.929  -2.526  0.00  0.00    +0.069 C 
ATOM      2  N   UNL     1       5.109  -4.214  -2.638  0.00  0.00    -0.258 NA
ATOM      3  C   UNL     1       5.167  -4.641  -3.921  0.00  0.00    +0.135 C 
ATOM      4  C   UNL     1       5.170  -3.635  -4.788  0.00  0.00    +0.111 C 
ATOM      5  C   UNL     1       5.098  -2.379  -3.939  0.00  0.00    +0.113 C 
ENDROOT
BRANCH   1   9
ATOM      6  C   UNL     1       3.711  -0.707  -0.038  0.00  0.00    +0.233 C 
ATOM      7  N   UNL     1       3.573  -2.029   0.616  0.00  0.00    -0.223 NA
ATOM      8  N   UNL     1       4.403  -2.949  -0.164  0.00  0.00    -0.222 NA
ATOM      9  C   UNL     1       5.000  -2.134  -1.248  0.00  0.00    +0.248 C 
ATOM     10  O   UNL     1       4.102  -1.010  -1.396  0.00  0.00    -0.332 OA
ATOM     11  H   UNL     1       3.879  -1.992   1.577  0.00  0.00    +0.144 HD
ATOM     12  H   UNL     1       3.850  -3.704  -0.542  0.00  0.00    +0.144 HD
BRANCH   6  16
ATOM     13  C   UNL     1      -0.017   1.378   0.010  0.00  0.00    +0.000 A 
ATOM     14  C   UNL     1       1.171   2.086   0.002  0.00  0.00    +0.000 A 
ATOM     15  C   UNL     1       2.377   1.411  -0.013  0.00  0.00    +0.007 A 
ATOM     16  C   UNL     1       2.396   0.029  -0.020  0.00  0.00    -0.003 A 
ATOM     17  C   UNL     1       1.208  -0.679  -0.012  0.00  0.00    +0.007 A 
ATOM     18  C   UNL     1       0.002  -0.004   0.002  0.00  0.00    +0.000 A 
ENDBRANCH   6  16
ENDBRANCH   1   9
BRANCH   4  19
ATOM     19  S   UNL     1       5.236  -3.736  -6.546  0.00  0.00    +0.090 S 
ATOM     20  O   UNL     1       5.077  -5.108  -6.880  0.00  0.00    -0.149 OA
ATOM     21  O   UNL     1       4.370  -2.726  -7.045  0.00  0.00    -0.149 OA
BRANCH  19  22
ATOM     22  N   UNL     1       6.770  -3.313  -7.003  0.00  0.00    -0.095 NA
BRANCH  22  23
ATOM     23  C   UNL     1       7.119  -3.303  -8.358  0.00  0.00    +0.109 A 
ATOM     24  C   UNL     1       6.178  -3.642  -9.321  0.00  0.00    +0.030 A 
ATOM     25  C   UNL     1       6.525  -3.632 -10.658  0.00  0.00    +0.017 A 
ATOM     26  C   UNL     1       7.808  -3.284 -11.040  0.00  0.00    +0.021 A 
ATOM     27  C   UNL     1       8.749  -2.945 -10.084  0.00  0.00    +0.055 A 
ATOM     28  C   UNL     1       8.407  -2.948  -8.744  0.00  0.00    +0.149 A 
ATOM     29  F   UNL     1       9.324  -2.611  -7.811  0.00  0.00    -0.203 F 
ATOM     30 BR   UNL     1       8.278  -3.271 -12.871  0.00  0.00    -0.050 Br
ENDBRANCH  22  23
ENDBRANCH  19  22
ENDBRANCH   4  19
TORSDOF 5
