REMARK  Name = ZINC42505808
REMARK  9 active torsions:
REMARK  status: ('A' for Active; 'I' for Inactive)
REMARK    1  A    between atoms: C_1  and  C_2
REMARK    2  A    between atoms: C_2  and  C_3
REMARK    3  A    between atoms: C_3  and  C_4
REMARK    4  A    between atoms: C_8  and  C_23
REMARK    5  A    between atoms: C_10  and  N_13
REMARK    6  A    between atoms: N_13  and  C_14
REMARK    7  A    between atoms: N_13  and  C_17
REMARK    8  A    between atoms: C_14  and  C_15
REMARK    9  A    between atoms: C_15  and  O_16
REMARK                            x       y       z     vdW  Elec       q    Type
REMARK                         _______ _______ _______ _____ _____    ______ ____
ROOT
ATOM      1  N   UNL     1       2.448  -4.557   3.459  0.00  0.00    +0.386 N 
ATOM      2  H   UNL     1       2.070  -4.187   4.318  0.00  0.00    -0.081 HD
ENDROOT
BRANCH   1   7
ATOM      3  C   UNL     1      -0.454  -3.092   1.505  0.00  0.00    -0.012 C 
ATOM      4  C   UNL     1      -0.396  -4.052   0.315  0.00  0.00    +0.005 C 
ATOM      5  C   UNL     1       1.065  -4.305  -0.064  0.00  0.00    +0.017 C 
ATOM      6  C   UNL     1       1.800  -4.924   1.126  0.00  0.00    +0.078 C 
ATOM      7  C   UNL     1       1.742  -3.964   2.316  0.00  0.00    -0.051 C 
ATOM      8  C   UNL     1       0.281  -3.710   2.695  0.00  0.00    -0.011 C 
BRANCH   6   9
ATOM      9  C   UNL     1       3.205  -5.168   0.761  0.00  0.00    +0.064 C 
ATOM     10  N   UNL     1       4.290  -5.356   0.480  0.00  0.00    -0.196 NA
ENDBRANCH   6   9
BRANCH   3  11
ATOM     11  C   UNL     1      -1.915  -2.838   1.884  0.00  0.00    +0.003 C 
BRANCH  11  13
ATOM     12  C   UNL     1      -4.080  -1.853   1.118  0.00  0.00    +0.004 C 
ATOM     13  C   UNL     1      -2.619  -2.107   0.739  0.00  0.00    -0.003 C 
ENDBRANCH  11  13
ENDBRANCH   3  11
ENDBRANCH   1   7
BRANCH   1  14
ATOM     14  C   UNL     1       2.276  -6.016   3.438  0.00  0.00    -0.068 C 
ATOM     15  C   UNL     1       0.784  -6.354   3.461  0.00  0.00    -0.015 C 
ATOM     16  C   UNL     1       0.605  -7.873   3.439  0.00  0.00    -0.002 C 
ATOM     17  C   UNL     1       1.286  -8.485   4.664  0.00  0.00    -0.000 C 
ATOM     18  C   UNL     1       2.778  -8.147   4.641  0.00  0.00    -0.002 C 
ATOM     19  C   UNL     1       2.958  -6.628   4.663  0.00  0.00    -0.015 C 
ENDBRANCH   1  14
BRANCH   1  20
ATOM     20  C   UNL     1       3.878  -4.231   3.374  0.00  0.00    -0.050 C 
BRANCH  20  21
ATOM     21  C   UNL     1       4.068  -2.722   3.539  0.00  0.00    +0.137 C 
BRANCH  21  22
ATOM     22  O   UNL     1       3.604  -2.322   4.830  0.00  0.00    -0.397 OA
ATOM     23  H   UNL     1       3.695  -1.376   5.005  0.00  0.00    +0.209 HD
ENDBRANCH  21  22
ENDBRANCH  20  21
ENDBRANCH   1  20
TORSDOF 8
