REMARK  Name = ZINC63162916
REMARK  6 active torsions:
REMARK  status: ('A' for Active; 'I' for Inactive)
REMARK    1  A    between atoms: C_2  and  C_3
REMARK    2  A    between atoms: C_3  and  N_4
REMARK    3  A    between atoms: C_5  and  C_22
REMARK    4  A    between atoms: C_9  and  S_11
REMARK    5  A    between atoms: S_11  and  C_12
REMARK    6  A    between atoms: C_12  and  C_13
REMARK                            x       y       z     vdW  Elec       q    Type
REMARK                         _______ _______ _______ _____ _____    ______ ____
ROOT
ATOM      1  N   UNL     1      -1.315  -1.705  -1.134  0.00  0.00    -0.254 NA
ATOM      2  C   UNL     1      -2.461  -2.647  -1.022  0.00  0.00    +0.172 C 
ATOM      3  N   UNL     1      -2.683  -3.065  -2.431  0.00  0.00    -0.233 NA
ATOM      4  N   UNL     1      -2.440  -1.852  -3.217  0.00  0.00    -0.229 NA
ATOM      5  C   UNL     1      -1.567  -0.982  -2.402  0.00  0.00    +0.200 C 
ATOM      6  H   UNL     1      -2.045  -3.801  -2.695  0.00  0.00    +0.143 HD
ATOM      7  H   UNL     1      -2.006  -2.075  -4.100  0.00  0.00    +0.143 HD
ENDROOT
BRANCH   2   8
ATOM      8  C   UNL     1      -2.098  -3.829  -0.162  0.00  0.00    -0.015 A 
ATOM      9  C   UNL     1      -2.884  -4.159   0.927  0.00  0.00    +0.006 A 
ATOM     10  C   UNL     1      -2.551  -5.243   1.717  0.00  0.00    +0.000 A 
ATOM     11  C   UNL     1      -1.433  -5.999   1.418  0.00  0.00    +0.000 A 
ATOM     12  C   UNL     1      -0.647  -5.670   0.328  0.00  0.00    +0.000 A 
ATOM     13  C   UNL     1      -0.983  -4.588  -0.464  0.00  0.00    +0.006 A 
ENDBRANCH   2   8
BRANCH   1  14
ATOM     14  C   UNL     1      -1.284  -0.777   0.004  0.00  0.00    +0.115 C 
BRANCH  14  16
ATOM     15  C   UNL     1       0.021   1.287   0.006  0.00  0.00    +0.005 C 
ATOM     16  C   UNL     1       0.021  -0.023   0.001  0.00  0.00    -0.019 C 
ENDBRANCH  14  16
ENDBRANCH   1  14
BRANCH   5  17
ATOM     17  S   UNL     1      -0.002  -0.684  -3.269  0.00  0.00    -0.121 S 
BRANCH  17  18
ATOM     18  C   UNL     1       0.662  -2.347  -3.560  0.00  0.00    +0.118 C 
BRANCH  18  19
ATOM     19  C   UNL     1       2.000  -2.240  -4.295  0.00  0.00    +0.184 C 
ATOM     20  N   UNL     1       2.934  -1.411  -3.523  0.00  0.00    -0.363 N 
ATOM     21  C   UNL     1       3.251  -0.388  -4.262  0.00  0.00    +0.060 A 
ATOM     22  C   UNL     1       4.131   0.768  -4.044  0.00  0.00    +0.027 A 
ATOM     23  C   UNL     1       4.267   1.693  -5.015  0.00  0.00    +0.002 A 
ATOM     24  C   UNL     1       3.597   1.602  -6.248  0.00  0.00    +0.002 A 
ATOM     25  C   UNL     1       2.767   0.584  -6.551  0.00  0.00    +0.027 A 
ATOM     26  C   UNL     1       2.542  -0.485  -5.568  0.00  0.00    +0.060 A 
ATOM     27  N   UNL     1       1.814  -1.564  -5.584  0.00  0.00    -0.363 N 
ATOM     28  H   UNL     1       3.256  -1.593  -2.626  0.00  0.00    +0.162 HD
ATOM     29  H   UNL     1       1.252  -1.865  -6.315  0.00  0.00    +0.162 HD
ENDBRANCH  18  19
ENDBRANCH  17  18
ENDBRANCH   5  17
TORSDOF 6
