REMARK  Name = ZINC39950943
REMARK  3 active torsions:
REMARK  status: ('A' for Active; 'I' for Inactive)
REMARK    1  A    between atoms: C_1  and  C_2
REMARK    2  A    between atoms: C_2  and  C_3
REMARK    3  A    between atoms: C_8  and  C_24
REMARK                            x       y       z     vdW  Elec       q    Type
REMARK                         _______ _______ _______ _____ _____    ______ ____
ROOT
ATOM      1  C   UNL     1       0.756  -0.597  -1.190  0.00  0.00    +0.040 C 
ATOM      2  C   UNL     1       0.080  -0.105  -2.433  0.00  0.00    -0.003 C 
ATOM      3  C   UNL     1       0.288  -0.930  -3.654  0.00  0.00    -0.074 C 
ATOM      4  N   UNL     1       1.591  -1.533  -3.798  0.00  0.00    +0.401 N 
ATOM      5  C   UNL     1       2.738  -0.778  -3.387  0.00  0.00    -0.060 C 
ATOM      6  C   UNL     1       3.177  -0.898  -1.938  0.00  0.00    +0.025 C 
ATOM      7  C   UNL     1       2.180  -0.147  -1.083  0.00  0.00    +0.146 C 
ATOM      8  O   UNL     1       2.520   0.757  -0.358  0.00  0.00    -0.296 OA
ATOM      9  C   UNL     1       3.091  -2.359  -1.468  0.00  0.00    +0.096 C 
ATOM     10  N   UNL     1       1.731  -2.827  -1.779  0.00  0.00    -0.299 NA
ATOM     11  C   UNL     1       0.679  -2.117  -1.062  0.00  0.00    +0.098 C 
ATOM     12  C   UNL     1       1.553  -2.883  -3.227  0.00  0.00    +0.095 C 
ATOM     13  C   UNL     1       0.280  -3.580  -3.592  0.00  0.00    -0.014 A 
ATOM     14  C   UNL     1      -1.037  -3.282  -3.312  0.00  0.00    +0.006 A 
ATOM     15  C   UNL     1      -2.000  -4.152  -3.811  0.00  0.00    +0.000 A 
ATOM     16  C   UNL     1      -1.651  -5.262  -4.552  0.00  0.00    +0.002 A 
ATOM     17  C   UNL     1      -0.330  -5.569  -4.837  0.00  0.00    +0.023 A 
ATOM     18  C   UNL     1       0.647  -4.704  -4.342  0.00  0.00    +0.037 A 
ATOM     19  N   UNL     1       2.023  -4.765  -4.472  0.00  0.00    -0.285 N 
ATOM     20  C   UNL     1       2.637  -3.736  -3.853  0.00  0.00    +0.225 C 
ATOM     21  O   UNL     1       3.832  -3.533  -3.805  0.00  0.00    -0.275 OA
ATOM     22  C   UNL     1       4.589  -0.338  -1.753  0.00  0.00    +0.018 C 
ATOM     23  H   UNL     1       2.491  -5.466  -4.953  0.00  0.00    +0.155 HD
ATOM     24  H   UNL     1       1.715  -1.670  -4.790  0.00  0.00    -0.078 HD
ENDROOT
BRANCH   1  26
ATOM     25  C   UNL     1      -1.429  -0.546   0.022  0.00  0.00    +0.005 C 
ATOM     26  C   UNL     1       0.002  -0.004   0.002  0.00  0.00    +0.012 C 
ENDBRANCH   1  26
TORSDOF 1
