REMARK  Name = ZINC49203319
REMARK  9 active torsions:
REMARK  status: ('A' for Active; 'I' for Inactive)
REMARK    1  A    between atoms: C_1  and  C_2
REMARK    2  A    between atoms: C_2  and  CA_3
REMARK    3  A    between atoms: CA_3  and  C_5
REMARK    4  A    between atoms: CA_3  and  N_7
REMARK    5  A    between atoms: C_5  and  O_6
REMARK    6  A    between atoms: N_10  and  C_11
REMARK    7  A    between atoms: C_12  and  C_20
REMARK    8  A    between atoms: C_16  and  O_17
REMARK    9  A    between atoms: O_17  and  C_18
REMARK                            x       y       z     vdW  Elec       q    Type
REMARK                         _______ _______ _______ _____ _____    ______ ____
ROOT
ATOM      1  N   UNL     1      -1.356  -0.023  -2.436  0.00  0.00    -0.294 N 
ATOM      2  C   UNL     1      -1.182   1.239  -2.876  0.00  0.00    +0.304 C 
ATOM      3  O   UNL     1      -1.546   2.177  -2.193  0.00  0.00    -0.252 OA
ATOM      4  N   UNL     1      -0.604   1.462  -4.073  0.00  0.00    -0.266 N 
ATOM      5  H   UNL     1      -1.065  -0.771  -2.981  0.00  0.00    +0.151 HD
ATOM      6  H   UNL     1      -0.251   0.719  -4.587  0.00  0.00    +0.156 HD
ENDROOT
BRANCH   4   7
ATOM      7  C   UNL     1      -0.514   2.767  -4.576  0.00  0.00    +0.080 A 
ATOM      8  C   UNL     1      -1.514   3.265  -5.399  0.00  0.00    -0.025 A 
ATOM      9  C   UNL     1      -1.424   4.553  -5.894  0.00  0.00    +0.020 A 
ATOM     10  C   UNL     1      -0.338   5.347  -5.571  0.00  0.00    +0.022 A 
ATOM     11  C   UNL     1       0.663   4.856  -4.752  0.00  0.00    +0.062 A 
ATOM     12  C   UNL     1       0.576   3.569  -4.247  0.00  0.00    +0.143 A 
ATOM     13 BR   UNL     1      -0.220   7.107  -6.253  0.00  0.00    -0.050 Br
ATOM     14  C   UNL     1      -2.698   2.403  -5.753  0.00  0.00    +0.046 C 
BRANCH  12  15
ATOM     15  O   UNL     1       1.555   3.087  -3.436  0.00  0.00    -0.493 OA
ATOM     16  C   UNL     1       2.643   3.966  -3.140  0.00  0.00    +0.277 C 
ENDBRANCH  12  15
ENDBRANCH   4   7
BRANCH   1  17
ATOM     17  CA  UNL     1      -1.984  -0.265  -1.135  0.00  0.00    +0.100 C 
BRANCH  17  19
ATOM     18  C   UNL     1      -3.975   1.126  -1.718  0.00  0.00    +0.006 C 
ATOM     19  C   UNL     1      -3.505  -0.267  -1.295  0.00  0.00    +0.021 C 
ENDBRANCH  17  19
BRANCH  17  20
ATOM     20  C   UNL     1      -1.526  -1.620  -0.592  0.00  0.00    +0.178 C 
BRANCH  20  21
ATOM     21  O   UNL     1      -2.007  -2.662  -1.443  0.00  0.00    -0.393 OA
ATOM     22  H   UNL     1      -1.754  -3.551  -1.159  0.00  0.00    +0.209 HD
ENDBRANCH  20  21
ENDBRANCH  17  20
ENDBRANCH   1  17
TORSDOF 6
