REMARK  Name = ZINC22795227
REMARK  7 active torsions:
REMARK  status: ('A' for Active; 'I' for Inactive)
REMARK    1  A    between atoms: C_4  and  N_7
REMARK    2  A    between atoms: C_11  and  C_15
REMARK    3  A    between atoms: C_15  and  N_16
REMARK    4  A    between atoms: N_16  and  C_17
REMARK    5  A    between atoms: C_17  and  C_18
REMARK    6  A    between atoms: C_18  and  N_19
REMARK    7  A    between atoms: C_25  and  C_27
REMARK                            x       y       z     vdW  Elec       q    Type
REMARK                         _______ _______ _______ _____ _____    ______ ____
ROOT
ATOM      1  N   UNL     1       3.623  -0.651  -0.037  0.00  0.00    -0.215 N 
ATOM      2  C   UNL     1       3.870  -1.833   0.586  0.00  0.00    +0.145 A 
ATOM      3  C   UNL     1       5.199  -2.168   0.323  0.00  0.00    +0.045 A 
ATOM      4  C   UNL     1       5.739  -3.359   0.850  0.00  0.00    +0.020 A 
ATOM      5  C   UNL     1       4.947  -4.165   1.610  0.00  0.00    +0.001 A 
ATOM      6  C   UNL     1       3.611  -3.802   1.858  0.00  0.00    +0.252 A 
ATOM      7  N   UNL     1       3.099  -2.664   1.353  0.00  0.00    -0.307 N 
ATOM      8  O   UNL     1       2.908  -4.529   2.540  0.00  0.00    -0.268 OA
ATOM      9  C   UNL     1       5.742  -1.093  -0.512  0.00  0.00    +0.102 A 
ATOM     10  N   UNL     1       4.776  -0.224  -0.703  0.00  0.00    -0.164 NA
ATOM     11  H   UNL     1       2.175  -2.431   1.536  0.00  0.00    +0.170 HD
ENDROOT
BRANCH   9  12
ATOM     12  C   UNL     1       7.122  -1.005  -1.045  0.00  0.00    +0.005 A 
ATOM     13  C   UNL     1       8.194  -1.485  -0.294  0.00  0.00    +0.010 A 
ATOM     14  C   UNL     1       9.477  -1.402  -0.795  0.00  0.00    +0.003 A 
ATOM     15  C   UNL     1       9.702  -0.844  -2.040  0.00  0.00    +0.038 A 
ATOM     16  C   UNL     1       8.642  -0.364  -2.792  0.00  0.00    +0.124 A 
ATOM     17  C   UNL     1       7.352  -0.448  -2.302  0.00  0.00    +0.048 A 
ATOM     18  F   UNL     1       8.868   0.181  -4.007  0.00  0.00    -0.205 F 
ENDBRANCH   9  12
BRANCH   1  22
ATOM     19  C   UNL     1      -0.017   1.379   0.010  0.00  0.00    +0.000 A 
ATOM     20  C   UNL     1       1.170   2.089   0.002  0.00  0.00    +0.002 A 
ATOM     21  C   UNL     1       2.377   1.419  -0.013  0.00  0.00    +0.028 A 
ATOM     22  C   UNL     1       2.400   0.031  -0.021  0.00  0.00    +0.068 A 
ATOM     23  C   UNL     1       1.206  -0.680  -0.013  0.00  0.00    +0.028 A 
ATOM     24  C   UNL     1       0.002  -0.004   0.002  0.00  0.00    +0.002 A 
ENDBRANCH   1  22
BRANCH   5  25
ATOM     25  C   UNL     1       5.502  -5.443   2.184  0.00  0.00    -0.041 C 
BRANCH  25  26
ATOM     26  N   UNL     1       5.971  -5.201   3.554  0.00  0.00    +0.383 N 
ATOM     27  H   UNL     1       6.693  -4.497   3.544  0.00  0.00    -0.085 HD
ATOM     28  H   UNL     1       5.200  -4.884   4.123  0.00  0.00    -0.085 HD
BRANCH  26  29
ATOM     29  C   UNL     1       6.512  -6.448   4.114  0.00  0.00    -0.067 C 
BRANCH  29  30
ATOM     30  C   UNL     1       7.000  -6.196   5.542  0.00  0.00    +0.065 C 
BRANCH  30  31
ATOM     31  N   UNL     1       7.541  -7.442   6.101  0.00  0.00    -0.300 NA
ATOM     32  C   UNL     1       6.480  -8.446   6.273  0.00  0.00    +0.112 C 
ATOM     33  C   UNL     1       7.095  -9.745   6.800  0.00  0.00    +0.175 C 
ATOM     34  O   UNL     1       7.790  -9.476   8.021  0.00  0.00    -0.377 OA
ATOM     35  C   UNL     1       8.830  -8.504   7.890  0.00  0.00    +0.175 C 
ATOM     36  C   UNL     1       8.232  -7.192   7.374  0.00  0.00    +0.112 C 
ENDBRANCH  30  31
ENDBRANCH  29  30
ENDBRANCH  26  29
ENDBRANCH  25  26
ENDBRANCH   5  25
TORSDOF 7
