REMARK  Name = ZINC36240353
REMARK  7 active torsions:
REMARK  status: ('A' for Active; 'I' for Inactive)
REMARK    1  A    between atoms: C_1  and  C_2
REMARK    2  A    between atoms: C_8  and  C_11
REMARK    3  A    between atoms: C_14  and  O_18
REMARK    4  A    between atoms: C_15  and  N_17
REMARK    5  A    between atoms: O_18  and  C_19
REMARK    6  A    between atoms: C_19  and  C_20
REMARK    7  A    between atoms: C_19  and  C_21
REMARK                            x       y       z     vdW  Elec       q    Type
REMARK                         _______ _______ _______ _____ _____    ______ ____
ROOT
ATOM      1  C   UNL     1      -0.349   1.135   3.040  0.00  0.00    +0.022 A 
ATOM      2  C   UNL     1      -0.356   2.207   2.146  0.00  0.00    +0.015 A 
ATOM      3  C   UNL     1      -0.118   3.488   2.602  0.00  0.00    +0.048 A 
ATOM      4  C   UNL     1       0.129   3.714   3.947  0.00  0.00    +0.141 A 
ATOM      5  C   UNL     1       0.138   2.649   4.846  0.00  0.00    +0.068 A 
ATOM      6  C   UNL     1      -0.107   1.362   4.396  0.00  0.00    +0.038 A 
ENDROOT
BRANCH   1  14
ATOM      7  C   UNL     1      -2.923   1.477   1.495  0.00  0.00    +0.064 C 
ATOM      8  C   UNL     1      -2.742   0.000   1.258  0.00  0.00    +0.024 A 
ATOM      9  C   UNL     1      -3.647  -0.675   0.518  0.00  0.00    +0.021 A 
ATOM     10  C   UNL     1      -3.490  -2.053   0.289  0.00  0.00    +0.005 A 
ATOM     11  C   UNL     1      -2.420  -2.708   0.816  0.00  0.00    +0.049 A 
ATOM     12  C   UNL     1      -1.485  -1.990   1.585  0.00  0.00    +0.162 A 
ATOM     13  N   UNL     1      -1.663  -0.642   1.787  0.00  0.00    -0.280 N 
ATOM     14  C   UNL     1      -0.604  -0.236   2.554  0.00  0.00    +0.169 A 
ATOM     15  N   UNL     1       0.147  -1.297   2.776  0.00  0.00    -0.128 NA
ATOM     16  N   UNL     1      -0.372  -2.333   2.215  0.00  0.00    -0.129 NA
ENDBRANCH   1  14
BRANCH   5  17
ATOM     17  N   UNL     1       0.389   2.880   6.204  0.00  0.00    -0.355 N 
ATOM     18  H   UNL     1       0.556   3.782   6.519  0.00  0.00    +0.142 HD
ATOM     19  H   UNL     1       0.395   2.138   6.829  0.00  0.00    +0.142 HD
ENDBRANCH   5  17
BRANCH   4  20
ATOM     20  O   UNL     1       0.364   4.978   4.390  0.00  0.00    -0.488 OA
BRANCH  20  21
ATOM     21  C   UNL     1       0.361   6.020   3.412  0.00  0.00    +0.167 C 
ATOM     22  C   UNL     1      -1.080   6.328   2.999  0.00  0.00    +0.051 C 
ATOM     23  C   UNL     1       1.001   7.277   4.004  0.00  0.00    +0.051 C 
ENDBRANCH  20  21
ENDBRANCH   4  20
TORSDOF 4
