REMARK  Name = ZINC20629602
REMARK  6 active torsions:
REMARK  status: ('A' for Active; 'I' for Inactive)
REMARK    1  A    between atoms: C_1  and  C_2
REMARK    2  A    between atoms: C_5  and  N_12
REMARK    3  A    between atoms: C_7  and  S_8
REMARK    4  A    between atoms: S_8  and  N_11
REMARK    5  A    between atoms: N_12  and  S_13
REMARK    6  A    between atoms: S_13  and  C_16
REMARK                            x       y       z     vdW  Elec       q    Type
REMARK                         _______ _______ _______ _____ _____    ______ ____
ROOT
ATOM      1  C   UNL     1      -0.514   1.988   2.791  0.00  0.00    +0.046 C 
ATOM      2  C   UNL     1      -0.706   3.301   2.078  0.00  0.00    -0.024 A 
ATOM      3  C   UNL     1      -0.549   4.490   2.767  0.00  0.00    +0.007 A 
ATOM      4  C   UNL     1      -0.731   5.695   2.118  0.00  0.00    +0.027 A 
ATOM      5  C   UNL     1      -1.066   5.713   0.770  0.00  0.00    +0.076 A 
ATOM      6  C   UNL     1      -1.218   4.518   0.080  0.00  0.00    +0.055 A 
ATOM      7  C   UNL     1      -1.035   3.316   0.735  0.00  0.00    +0.110 A 
ENDROOT
BRANCH   7   8
ATOM      8  S   UNL     1      -1.227   1.798  -0.140  0.00  0.00    +0.056 S 
ATOM      9  O   UNL     1      -1.539   2.141  -1.484  0.00  0.00    -0.153 OA
ATOM     10  O   UNL     1      -2.073   0.977   0.653  0.00  0.00    -0.153 OA
BRANCH   8  11
ATOM     11  N   UNL     1       0.255   1.060  -0.172  0.00  0.00    -0.204 NA
ATOM     12  H   UNL     1       0.177   0.105  -0.712  0.00  0.00    +0.144 HD
ATOM     13  H   UNL     1       0.594   0.873   0.858  0.00  0.00    +0.144 HD
ENDBRANCH   8  11
ENDBRANCH   7   8
BRANCH   5  14
ATOM     14  N   UNL     1      -1.251   6.931   0.111  0.00  0.00    -0.098 NA
BRANCH  14  15
ATOM     15  S   UNL     1      -2.171   8.118   0.808  0.00  0.00    +0.094 S 
ATOM     16  O   UNL     1      -1.683   8.284   2.133  0.00  0.00    -0.148 OA
ATOM     17  O   UNL     1      -2.225   9.190  -0.123  0.00  0.00    -0.148 OA
BRANCH  15  18
ATOM     18  C   UNL     1      -3.811   7.491   0.950  0.00  0.00    +0.147 A 
ATOM     19  C   UNL     1      -4.669   7.545  -0.134  0.00  0.00    +0.069 A 
ATOM     20  C   UNL     1      -5.955   7.048  -0.023  0.00  0.00    +0.022 A 
ATOM     21  C   UNL     1      -6.387   6.508   1.174  0.00  0.00    +0.003 A 
ATOM     22  C   UNL     1      -5.532   6.459   2.259  0.00  0.00    +0.022 A 
ATOM     23  C   UNL     1      -4.244   6.951   2.148  0.00  0.00    +0.069 A 
ATOM     24 CL   UNL     1      -3.171   6.890   3.511  0.00  0.00    -0.081 Cl
ATOM     25 CL   UNL     1      -4.129   8.230  -1.635  0.00  0.00    -0.081 Cl
ENDBRANCH  15  18
ENDBRANCH  14  15
ENDBRANCH   5  14
TORSDOF 5
