REMARK  Name = ZINC35724480
REMARK  5 active torsions:
REMARK  status: ('A' for Active; 'I' for Inactive)
REMARK    1  A    between atoms: C_4  and  N_7
REMARK    2  A    between atoms: C_8  and  S_12
REMARK    3  A    between atoms: S_12  and  C_13
REMARK    4  A    between atoms: C_20  and  C_22
REMARK    5  A    between atoms: C_22  and  N_23
REMARK                            x       y       z     vdW  Elec       q    Type
REMARK                         _______ _______ _______ _____ _____    ______ ____
ROOT
ATOM      1  S   UNL     1       2.824  -2.812   1.538  0.00  0.00    -0.081 S 
ENDROOT
BRANCH   1   2
ATOM      2  C   UNL     1       3.835  -4.234   2.038  0.00  0.00    +0.056 C 
ATOM      3  C   UNL     1       4.234  -5.003   0.808  0.00  0.00    +0.015 C 
ATOM      4  C   UNL     1       5.653  -5.569   1.023  0.00  0.00    +0.001 C 
ATOM      5  C   UNL     1       5.651  -6.777   1.835  0.00  0.00    +0.000 C 
ATOM      6  C   UNL     1       5.103  -6.531   3.255  0.00  0.00    +0.000 C 
ATOM      7  C   UNL     1       3.599  -6.514   3.191  0.00  0.00    +0.003 C 
ATOM      8  C   UNL     1       3.031  -5.092   3.033  0.00  0.00    -0.015 C 
BRANCH   8   9
ATOM      9  C   UNL     1       1.584  -5.189   2.544  0.00  0.00    -0.082 C 
BRANCH   9  10
ATOM     10  N   UNL     1       0.777  -5.904   3.542  0.00  0.00    +0.378 N 
ATOM     11  H   UNL     1       1.150  -6.832   3.674  0.00  0.00    -0.090 HD
ATOM     12  H   UNL     1       0.803  -5.402   4.417  0.00  0.00    -0.090 HD
ATOM     13  H   UNL     1      -0.177  -5.968   3.219  0.00  0.00    -0.090 HD
ENDBRANCH   9  10
ENDBRANCH   8   9
ENDBRANCH   1   2
BRANCH   1  15
ATOM     14  N   UNL     1       3.624  -0.652  -0.037  0.00  0.00    -0.187 N 
ATOM     15  C   UNL     1       3.918  -1.831   0.567  0.00  0.00    +0.214 A 
ATOM     16  N   UNL     1       5.176  -2.102   0.291  0.00  0.00    -0.101 NA
ATOM     17  N   UNL     1       5.685  -1.178  -0.441  0.00  0.00    -0.022 NA
ATOM     18  N   UNL     1       4.809  -0.266  -0.689  0.00  0.00    -0.038 NA
BRANCH  14  22
ATOM     19  C   UNL     1      -0.017   1.379   0.010  0.00  0.00    +0.000 A 
ATOM     20  C   UNL     1       1.170   2.089   0.002  0.00  0.00    +0.002 A 
ATOM     21  C   UNL     1       2.377   1.419  -0.013  0.00  0.00    +0.028 A 
ATOM     22  C   UNL     1       2.399   0.031  -0.021  0.00  0.00    +0.070 A 
ATOM     23  C   UNL     1       1.207  -0.680  -0.013  0.00  0.00    +0.028 A 
ATOM     24  C   UNL     1       0.002  -0.004   0.002  0.00  0.00    +0.002 A 
ENDBRANCH  14  22
ENDBRANCH   1  15
TORSDOF 5
