REMARK  Name = ZINC49699005
REMARK  7 active torsions:
REMARK  status: ('A' for Active; 'I' for Inactive)
REMARK    1  A    between atoms: C_1  and  C_2
REMARK    2  A    between atoms: C_2  and  O_3
REMARK    3  A    between atoms: O_3  and  C_4
REMARK    4  A    between atoms: C_9  and  N_12
REMARK    5  A    between atoms: C_14  and  N_19
REMARK    6  A    between atoms: N_19  and  C_20
REMARK    7  A    between atoms: C_23  and  C_26
REMARK                            x       y       z     vdW  Elec       q    Type
REMARK                         _______ _______ _______ _____ _____    ______ ____
ROOT
ATOM      1  N   UNL     1       1.161  -3.643  -6.387  0.00  0.00    -0.279 NA
ATOM      2  C   UNL     1       1.966  -4.112  -7.279  0.00  0.00    +0.111 C 
ATOM      3  C   UNL     1       1.855  -4.586  -8.712  0.00  0.00    +0.182 C 
ATOM      4  C   UNL     1       3.317  -4.213  -8.832  0.00  0.00    +0.227 C 
ATOM      5  O   UNL     1       4.067  -3.888  -9.722  0.00  0.00    -0.286 OA
ATOM      6  C   UNL     1       3.418  -4.421  -7.358  0.00  0.00    +0.246 C 
ATOM      7  O   UNL     1       4.296  -4.712  -6.574  0.00  0.00    -0.282 OA
ENDROOT
BRANCH   1  13
ATOM      8  C   UNL     1       0.776  -1.798  -1.335  0.00  0.00    +0.403 C 
ATOM      9  O   UNL     1       0.312  -2.549  -0.500  0.00  0.00    -0.226 OA
ATOM     10  N   UNL     1       1.395  -2.298  -2.422  0.00  0.00    -0.267 N 
ATOM     11  C   UNL     1       1.966  -1.403  -3.437  0.00  0.00    +0.113 C 
ATOM     12  C   UNL     1       1.404  -1.790  -4.809  0.00  0.00    +0.046 C 
ATOM     13  C   UNL     1       1.667  -3.276  -5.062  0.00  0.00    +0.109 C 
ATOM     14  C   UNL     1       0.956  -4.111  -3.995  0.00  0.00    +0.046 C 
ATOM     15  C   UNL     1       1.517  -3.750  -2.611  0.00  0.00    +0.113 C 
BRANCH   8  16
ATOM     16  O   UNL     1       0.671  -0.465  -1.174  0.00  0.00    -0.451 OA
BRANCH  16  18
ATOM     17  C   UNL     1      -0.019   1.526   0.010  0.00  0.00    +0.048 C 
ATOM     18  C   UNL     1       0.002  -0.004   0.002  0.00  0.00    +0.230 C 
ENDBRANCH  16  18
ENDBRANCH   8  16
ENDBRANCH   1  13
BRANCH   3  19
ATOM     19  N   UNL     1       1.598  -6.026  -8.842  0.00  0.00    -0.299 NA
ATOM     20  H   UNL     1       1.059  -6.369  -8.061  0.00  0.00    +0.123 HD
BRANCH  19  21
ATOM     21  C   UNL     1       0.931  -6.329 -10.116  0.00  0.00    +0.055 C 
ATOM     22  C   UNL     1      -0.579  -6.140  -9.959  0.00  0.00    +0.019 C 
ATOM     23  C   UNL     1      -1.273  -6.455 -11.285  0.00  0.00    +0.005 C 
ATOM     24  C   UNL     1      -0.979  -7.903 -11.683  0.00  0.00    -0.014 C 
ATOM     25  C   UNL     1       0.531  -8.092 -11.840  0.00  0.00    +0.005 C 
ATOM     26  C   UNL     1       1.225  -7.777 -10.514  0.00  0.00    +0.019 C 
ATOM     27  C   UNL     1      -1.501  -8.846 -10.598  0.00  0.00    +0.007 C 
ENDBRANCH  19  21
ENDBRANCH   3  19
TORSDOF 5
