REMARK  Name = ZINC45165993
REMARK  6 active torsions:
REMARK  status: ('A' for Active; 'I' for Inactive)
REMARK    1  A    between atoms: C_1  and  C_2
REMARK    2  A    between atoms: C_7  and  N_12
REMARK    3  A    between atoms: C_9  and  C_11
REMARK    4  A    between atoms: N_12  and  S_13
REMARK    5  A    between atoms: S_13  and  C_16
REMARK    6  A    between atoms: C_17  and  N_23
REMARK                            x       y       z     vdW  Elec       q    Type
REMARK                         _______ _______ _______ _____ _____    ______ ____
ROOT
ATOM      1  S   UNL     1       0.697  -4.559   3.660  0.00  0.00    +0.062 S 
ATOM      2  O   UNL     1       1.484  -5.051   4.737  0.00  0.00    -0.153 OA
ATOM      3  O   UNL     1      -0.723  -4.516   3.712  0.00  0.00    -0.153 OA
ENDROOT
BRANCH   1   4
ATOM      4  C   UNL     1       1.120  -5.522   2.247  0.00  0.00    +0.144 A 
ATOM      5  C   UNL     1       0.209  -5.670   1.208  0.00  0.00    +0.053 A 
ATOM      6  C   UNL     1       0.547  -6.430   0.096  0.00  0.00    +0.025 A 
ATOM      7  C   UNL     1       1.786  -7.035   0.024  0.00  0.00    +0.003 A 
ATOM      8  C   UNL     1       2.691  -6.886   1.058  0.00  0.00    +0.022 A 
ATOM      9  C   UNL     1       2.361  -6.125   2.167  0.00  0.00    +0.069 A 
ATOM     10 CL   UNL     1       3.503  -5.934   3.460  0.00  0.00    -0.081 Cl
BRANCH   5  11
ATOM     11  N   UNL     1      -1.044  -5.058   1.284  0.00  0.00    -0.356 N 
ATOM     12  H   UNL     1      -1.172  -4.285   1.856  0.00  0.00    +0.142 HD
ATOM     13  H   UNL     1      -1.785  -5.405   0.764  0.00  0.00    +0.142 HD
ENDBRANCH   5  11
ENDBRANCH   1   4
BRANCH   1  14
ATOM     14  N   UNL     1       1.207  -3.011   3.370  0.00  0.00    -0.187 NA
ATOM     15  H   UNL     1       1.908  -2.621   3.915  0.00  0.00    +0.148 HD
BRANCH  14  21
ATOM     16  C   UNL     1      -0.189   1.526   1.988  0.00  0.00    +0.008 C 
ATOM     17  C   UNL     1      -0.111   0.055   1.573  0.00  0.00    -0.010 C 
ATOM     18  C   UNL     1       0.743  -0.074   0.310  0.00  0.00    +0.003 C 
ATOM     19  C   UNL     1       0.820  -1.545  -0.104  0.00  0.00    +0.002 C 
ATOM     20  C   UNL     1       1.454  -2.360   1.025  0.00  0.00    +0.020 C 
ATOM     21  C   UNL     1       0.601  -2.231   2.288  0.00  0.00    +0.080 C 
ATOM     22  C   UNL     1       0.523  -0.760   2.703  0.00  0.00    +0.007 C 
ATOM     23  C   UNL     1      -0.331  -0.630   3.966  0.00  0.00    +0.009 C 
ENDBRANCH  14  21
ENDBRANCH   1  14
TORSDOF 4
