REMARK  Name = ZINC36950845
REMARK  10 active torsions:
REMARK  status: ('A' for Active; 'I' for Inactive)
REMARK    1  A    between atoms: C_1  and  C_2
REMARK    2  A    between atoms: C_2  and  C_3
REMARK    3  A    between atoms: C_3  and  N_4
REMARK    4  A    between atoms: N_4  and  C_5
REMARK    5  A    between atoms: C_5  and  C_6
REMARK    6  A    between atoms: C_6  and  C_8
REMARK    7  A    between atoms: C_6  and  O_22
REMARK    8  A    between atoms: C_8  and  N_9
REMARK    9  A    between atoms: C_12  and  C_16
REMARK   10  A    between atoms: C_12  and  C_17
REMARK                            x       y       z     vdW  Elec       q    Type
REMARK                         _______ _______ _______ _____ _____    ______ ____
ROOT
ATOM      1  N   UNL     1      -4.182  -6.035  -0.116  0.00  0.00    -0.221 N 
ATOM      2  C   UNL     1      -4.080  -6.784  -1.231  0.00  0.00    +0.254 C 
ATOM      3  O   UNL     1      -3.990  -6.389  -2.374  0.00  0.00    -0.272 OA
ATOM      4  C   UNL     1      -4.099  -8.225  -0.760  0.00  0.00    +0.168 C 
ATOM      5  N   UNL     1      -4.221  -8.108   0.703  0.00  0.00    -0.279 N 
ATOM      6  C   UNL     1      -4.257  -6.793   0.983  0.00  0.00    +0.310 C 
ATOM      7  O   UNL     1      -4.351  -6.344   2.109  0.00  0.00    -0.252 OA
ATOM      8  C   UNL     1      -5.303  -8.966  -1.344  0.00  0.00    +0.050 C 
ATOM      9  H   UNL     1      -4.264  -8.838   1.341  0.00  0.00    +0.152 HD
ENDROOT
BRANCH   4  10
ATOM     10  C   UNL     1      -2.815  -8.921  -1.131  0.00  0.00    +0.137 A 
ATOM     11  C   UNL     1      -2.243  -9.931  -0.451  0.00  0.00    +0.047 A 
ATOM     12  C   UNL     1      -1.063 -10.277  -1.148  0.00  0.00    +0.041 A 
ATOM     13  C   UNL     1      -0.984  -9.458  -2.213  0.00  0.00    +0.195 A 
ATOM     14  O   UNL     1      -2.051  -8.643  -2.200  0.00  0.00    -0.465 OA
ENDBRANCH   4  10
BRANCH   1  15
ATOM     15  C   UNL     1      -4.202  -4.570  -0.108  0.00  0.00    +0.147 C 
BRANCH  15  16
ATOM     16  C   UNL     1      -2.771  -4.041   0.007  0.00  0.00    +0.115 C 
BRANCH  16  17
ATOM     17  O   UNL     1      -2.183  -4.516   1.220  0.00  0.00    -0.392 OA
ATOM     18  H   UNL     1      -2.654  -4.241   2.019  0.00  0.00    +0.210 HD
ENDBRANCH  16  17
BRANCH  16  19
ATOM     19  C   UNL     1      -2.792  -2.511   0.015  0.00  0.00    -0.049 C 
BRANCH  19  20
ATOM     20  N   UNL     1      -1.413  -2.002   0.005  0.00  0.00    +0.381 N 
ATOM     21  H   UNL     1      -0.941  -2.328  -0.825  0.00  0.00    -0.086 HD
ATOM     22  H   UNL     1      -0.925  -2.337   0.822  0.00  0.00    -0.086 HD
BRANCH  20  23
ATOM     23  C   UNL     1      -1.433  -0.534   0.013  0.00  0.00    -0.083 C 
BRANCH  23  25
ATOM     24  C   UNL     1      -0.019   1.526   0.010  0.00  0.00    +0.002 C 
ATOM     25  C   UNL     1       0.002  -0.004   0.002  0.00  0.00    -0.022 C 
ENDBRANCH  23  25
ENDBRANCH  20  23
ENDBRANCH  19  20
ENDBRANCH  16  19
ENDBRANCH  15  16
ENDBRANCH   1  15
TORSDOF 8
