REMARK  Name = ZINC57754351
REMARK  5 active torsions:
REMARK  status: ('A' for Active; 'I' for Inactive)
REMARK    1  A    between atoms: C_6  and  C_7
REMARK    2  A    between atoms: C_7  and  C_8
REMARK    3  A    between atoms: C_8  and  C_10
REMARK    4  A    between atoms: C_8  and  C_12
REMARK    5  A    between atoms: C_10  and  N_11
REMARK                            x       y       z     vdW  Elec       q    Type
REMARK                         _______ _______ _______ _____ _____    ______ ____
ROOT
ATOM      1  C   UNL     1      -1.746  -1.026  -1.429  0.00  0.00    +0.006 C 
ENDROOT
BRANCH   1   2
ATOM      2  C   UNL     1      -3.100  -1.687  -1.422  0.00  0.00    -0.042 A 
ATOM      3  C   UNL     1      -3.270  -2.907  -0.794  0.00  0.00    +0.007 A 
ATOM      4  C   UNL     1      -4.510  -3.516  -0.786  0.00  0.00    +0.050 A 
ATOM      5  C   UNL     1      -5.589  -2.905  -1.408  0.00  0.00    +0.162 A 
ATOM      6  C   UNL     1      -5.419  -1.677  -2.037  0.00  0.00    +0.162 A 
ATOM      7  C   UNL     1      -4.172  -1.069  -2.038  0.00  0.00    +0.053 A 
ATOM      8  O   UNL     1      -6.466  -1.057  -2.647  0.00  0.00    -0.485 OA
ATOM      9  C   UNL     1      -7.610  -1.865  -2.943  0.00  0.00    +0.270 C 
ATOM     10  C   UNL     1      -7.940  -2.704  -1.701  0.00  0.00    +0.270 C 
ATOM     11  O   UNL     1      -6.803  -3.519  -1.395  0.00  0.00    -0.485 OA
ENDBRANCH   1   2
BRANCH   1  12
ATOM     12  C   UNL     1      -1.294  -0.774   0.010  0.00  0.00    +0.041 C 
BRANCH  12  18
ATOM     13  C   UNL     1      -0.017   1.378   0.010  0.00  0.00    +0.007 A 
ATOM     14  C   UNL     1       1.170   2.088   0.002  0.00  0.00    +0.050 A 
ATOM     15  C   UNL     1       2.380   1.416  -0.013  0.00  0.00    +0.166 A 
ATOM     16  C   UNL     1       2.399   0.023  -0.021  0.00  0.00    +0.166 A 
ATOM     17  C   UNL     1       1.207  -0.682  -0.014  0.00  0.00    +0.053 A 
ATOM     18  C   UNL     1       0.002  -0.004   0.002  0.00  0.00    -0.043 A 
ATOM     19  O   UNL     1       3.698  -0.395  -0.036  0.00  0.00    -0.453 OA
ATOM     20  C   UNL     1       4.466   0.750  -0.450  0.00  0.00    +0.466 C 
ATOM     21  O   UNL     1       3.668   1.870  -0.024  0.00  0.00    -0.453 OA
ENDBRANCH  12  18
ENDBRANCH   1  12
BRANCH   1  22
ATOM     22  C   UNL     1      -0.737  -1.940  -2.128  0.00  0.00    -0.078 C 
BRANCH  22  23
ATOM     23  N   UNL     1      -1.106  -2.086  -3.542  0.00  0.00    +0.379 N 
ATOM     24  H   UNL     1      -1.103  -1.180  -3.986  0.00  0.00    -0.090 HD
ATOM     25  H   UNL     1      -0.440  -2.689  -4.003  0.00  0.00    -0.090 HD
ATOM     26  H   UNL     1      -2.028  -2.490  -3.609  0.00  0.00    -0.090 HD
ENDBRANCH  22  23
ENDBRANCH   1  22
TORSDOF 5
