REMARK  Name = ZINC51794099
REMARK  4 active torsions:
REMARK  status: ('A' for Active; 'I' for Inactive)
REMARK    1  A    between atoms: C_1  and  C_2
REMARK    2  A    between atoms: C_8  and  C_10
REMARK    3  A    between atoms: C_14  and  C_21
REMARK    4  A    between atoms: C_18  and  C_20
REMARK                            x       y       z     vdW  Elec       q    Type
REMARK                         _______ _______ _______ _____ _____    ______ ____
ROOT
ATOM      1  C   UNL     1       0.234   0.077   2.415  0.00  0.00    +0.202 C 
ATOM      2  O   UNL     1      -0.428  -0.636   3.138  0.00  0.00    -0.277 OA
ATOM      3  N   UNL     1       0.393   1.381   2.717  0.00  0.00    -0.299 N 
ATOM      4  C   UNL     1       1.072   2.289   1.782  0.00  0.00    +0.120 C 
ATOM      5  C   UNL     1       2.205   3.004   2.525  0.00  0.00    +0.092 C 
ATOM      6  C   UNL     1       1.639   3.692   3.769  0.00  0.00    +0.016 C 
ATOM      7  C   UNL     1       1.036   2.642   4.705  0.00  0.00    +0.023 C 
ATOM      8  C   UNL     1      -0.116   1.923   3.984  0.00  0.00    +0.073 C 
ATOM      9  C   UNL     1      -0.637   0.781   4.859  0.00  0.00    +0.028 C 
ENDROOT
BRANCH   1  16
ATOM     10  C   UNL     1      -1.064   0.281  -0.189  0.00  0.00    +0.006 C 
ATOM     11  C   UNL     1      -0.207  -0.928   0.192  0.00  0.00    -0.020 C 
ATOM     12  C   UNL     1      -1.089  -1.994   0.847  0.00  0.00    +0.000 C 
ATOM     13  C   UNL     1      -0.210  -3.166   1.294  0.00  0.00    -0.019 C 
ATOM     14  C   UNL     1       0.876  -2.649   2.241  0.00  0.00    -0.082 C 
ATOM     15  N   UNL     1       1.701  -1.653   1.548  0.00  0.00    +0.387 N 
ATOM     16  C   UNL     1       0.879  -0.494   1.179  0.00  0.00    +0.019 C 
ATOM     17  H   UNL     1       2.448  -1.353   2.158  0.00  0.00    -0.085 HD
ATOM     18  H   UNL     1       2.094  -2.064   0.715  0.00  0.00    -0.085 HD
ENDBRANCH   1  16
BRANCH   5  19
ATOM     19  C   UNL     1       3.250   1.999   2.936  0.00  0.00    +0.215 C 
ATOM     20  O   UNL     1       3.104   0.827   2.663  0.00  0.00    -0.276 OA
ATOM     21  N   UNL     1       4.346   2.404   3.608  0.00  0.00    -0.329 N 
ATOM     22  H   UNL     1       4.463   3.342   3.826  0.00  0.00    +0.145 HD
ATOM     23  H   UNL     1       5.019   1.757   3.873  0.00  0.00    +0.145 HD
ENDBRANCH   5  19
TORSDOF 2
