REMARK  Name = ZINC33937394
REMARK  9 active torsions:
REMARK  status: ('A' for Active; 'I' for Inactive)
REMARK    1  A    between atoms: C_1  and  C_2
REMARK    2  A    between atoms: C_2  and  C_3
REMARK    3  A    between atoms: C_3  and  C_5
REMARK    4  A    between atoms: C_3  and  N_17
REMARK    5  A    between atoms: N_9  and  C_10
REMARK    6  A    between atoms: C_10  and  C_11
REMARK    7  A    between atoms: N_17  and  C_18
REMARK    8  A    between atoms: N_17  and  C_34
REMARK    9  A    between atoms: C_18  and  C_19
REMARK                            x       y       z     vdW  Elec       q    Type
REMARK                         _______ _______ _______ _____ _____    ______ ____
ROOT
ATOM      1  N   UNL     1      -0.840  -1.116  -2.079  0.00  0.00    +0.391 N 
ATOM      2  H   UNL     1      -0.005  -1.347  -2.596  0.00  0.00    -0.080 HD
ENDROOT
BRANCH   1   3
ATOM      3  C   UNL     1      -1.844  -2.170  -2.274  0.00  0.00    -0.067 C 
ATOM      4  C   UNL     1      -1.792  -2.663  -3.722  0.00  0.00    -0.015 C 
ATOM      5  C   UNL     1      -2.838  -3.760  -3.925  0.00  0.00    -0.002 C 
ATOM      6  C   UNL     1      -4.230  -3.200  -3.628  0.00  0.00    -0.000 C 
ATOM      7  C   UNL     1      -4.283  -2.707  -2.180  0.00  0.00    -0.002 C 
ATOM      8  C   UNL     1      -3.237  -1.609  -1.976  0.00  0.00    -0.015 C 
ENDBRANCH   1   3
BRANCH   1   9
ATOM      9  C   UNL     1      -0.517  -1.007  -0.650  0.00  0.00    +0.003 C 
BRANCH   9  10
ATOM     10  C   UNL     1       0.176  -2.265  -0.194  0.00  0.00    +0.138 A 
ATOM     11  N   UNL     1       1.007  -2.999  -0.894  0.00  0.00    -0.115 NA
ATOM     12  N   UNL     1       1.384  -3.986  -0.157  0.00  0.00    -0.023 NA
ATOM     13  N   UNL     1       0.815  -3.901   0.995  0.00  0.00    -0.044 NA
ATOM     14  N   UNL     1       0.067  -2.851   1.013  0.00  0.00    -0.228 N 
BRANCH  14  15
ATOM     15  C   UNL     1      -0.751  -2.384   2.135  0.00  0.00    +0.178 C 
BRANCH  15  16
ATOM     16  C   UNL     1      -2.123  -3.061   2.083  0.00  0.00    +0.140 C 
ATOM     17  C   UNL     1      -2.981  -2.631   3.299  0.00  0.00    +0.035 C 
ATOM     18  C   UNL     1      -4.414  -2.856   2.742  0.00  0.00    +0.031 C 
ATOM     19  C   UNL     1      -4.246  -2.495   1.250  0.00  0.00    +0.160 C 
ATOM     20  O   UNL     1      -2.854  -2.617   0.929  0.00  0.00    -0.375 OA
ENDBRANCH  15  16
ENDBRANCH  14  15
ENDBRANCH   9  10
BRANCH   9  22
ATOM     21  C   UNL     1      -0.437   1.439  -0.146  0.00  0.00    +0.002 C 
ATOM     22  C   UNL     1       0.406   0.193  -0.426  0.00  0.00    -0.011 C 
ENDBRANCH   9  22
ENDBRANCH   1   9
BRANCH   1  23
ATOM     23  C   UNL     1      -1.375   0.165  -2.559  0.00  0.00    -0.036 C 
BRANCH  23  24
ATOM     24  C   UNL     1      -1.560   0.104  -4.053  0.00  0.00    +0.001 A 
ATOM     25  C   UNL     1      -2.808   0.170  -4.583  0.00  0.00    +0.017 A 
ATOM     26  C   UNL     1      -2.954   0.107  -6.037  0.00  0.00    +0.002 A 
ATOM     27  C   UNL     1      -4.218   0.169  -6.639  0.00  0.00    +0.059 A 
ATOM     28  C   UNL     1      -4.324   0.107  -8.010  0.00  0.00    +0.167 A 
ATOM     29  C   UNL     1      -3.176  -0.017  -8.803  0.00  0.00    +0.168 A 
ATOM     30  C   UNL     1      -1.925  -0.079  -8.217  0.00  0.00    +0.075 A 
ATOM     31  C   UNL     1      -1.801  -0.018  -6.835  0.00  0.00    +0.053 A 
ATOM     32  N   UNL     1      -0.560  -0.079  -6.233  0.00  0.00    -0.322 N 
ATOM     33  H   UNL     1       0.234  -0.165  -6.783  0.00  0.00    +0.169 HD
ATOM     34  C   UNL     1      -0.436  -0.016  -4.896  0.00  0.00    +0.251 A 
ATOM     35  O   UNL     1       0.676  -0.069  -4.399  0.00  0.00    -0.268 OA
ATOM     36  O   UNL     1      -3.557  -0.056 -10.112  0.00  0.00    -0.453 OA
ATOM     37  C   UNL     1      -4.962  -0.369 -10.097  0.00  0.00    +0.466 C 
ATOM     38  O   UNL     1      -5.416   0.144  -8.831  0.00  0.00    -0.453 OA
ENDBRANCH  23  24
ENDBRANCH   1  23
TORSDOF 8
