REMARK  Name = ZINC16420646
REMARK  6 active torsions:
REMARK  status: ('A' for Active; 'I' for Inactive)
REMARK    1  A    between atoms: C_1  and  C_2
REMARK    2  A    between atoms: C_11  and  C_12
REMARK    3  A    between atoms: C_11  and  N_48
REMARK    4  A    between atoms: N_14  and  C_15
REMARK    5  A    between atoms: C_15  and  C_16
REMARK    6  A    between atoms: C_16  and  C_17
REMARK                            x       y       z     vdW  Elec       q    Type
REMARK                         _______ _______ _______ _____ _____    ______ ____
ROOT
ATOM      1  C   UNL     1       1.418   3.444  -0.381  0.00  0.00    +0.019 C 
ENDROOT
BRANCH   1  11
ATOM      2  C   UNL     1       3.515   2.198   1.170  0.00  0.00    -0.008 C 
ATOM      3  C   UNL     1       2.041   1.801   1.284  0.00  0.00    -0.039 C 
ATOM      4  C   UNL     1       1.935   0.321   1.638  0.00  0.00    -0.051 A 
ATOM      5  C   UNL     1       2.754  -0.316   2.567  0.00  0.00    +0.010 A 
ATOM      6  C   UNL     1       2.593  -1.637   2.818  0.00  0.00    +0.045 A 
ATOM      7  S   UNL     1       1.241  -2.057   1.728  0.00  0.00    -0.101 S 
ATOM      8  C   UNL     1       0.994  -0.451   1.026  0.00  0.00    -0.010 A 
ATOM      9  C   UNL     1       0.002  -0.004   0.002  0.00  0.00    +0.024 C 
ATOM     10  C   UNL     1      -0.019   1.534   0.011  0.00  0.00    -0.072 C 
ATOM     11  N   UNL     1       1.385   2.012  -0.027  0.00  0.00    +0.390 N 
ATOM     12  H   UNL     1       1.896   1.480  -0.742  0.00  0.00    -0.080 HD
ENDBRANCH   1  11
BRANCH   1  13
ATOM     13  C   UNL     1       0.750   4.275   0.684  0.00  0.00    +0.196 C 
ATOM     14  O   UNL     1       0.278   3.739   1.664  0.00  0.00    -0.278 OA
ATOM     15  N   UNL     1       0.678   5.614   0.548  0.00  0.00    -0.317 N 
ATOM     16  H   UNL     1       1.056   6.043  -0.235  0.00  0.00    +0.149 HD
BRANCH  15  17
ATOM     17  C   UNL     1       0.029   6.422   1.584  0.00  0.00    +0.108 C 
BRANCH  17  18
ATOM     18  C   UNL     1       0.082   7.898   1.187  0.00  0.00    +0.049 C 
BRANCH  18  19
ATOM     19  C   UNL     1      -0.585   8.729   2.253  0.00  0.00    -0.072 C 
ATOM     20  C   UNL     1       0.161   9.251   3.172  0.00  0.00    -0.028 C 
ATOM     21  C   UNL     1      -0.359  10.095   4.299  0.00  0.00    +0.027 C 
ATOM     22  C   UNL     1      -1.774  10.585   3.982  0.00  0.00    +0.004 C 
ATOM     23  C   UNL     1      -2.613   9.383   3.531  0.00  0.00    +0.005 C 
ATOM     24  C   UNL     1      -2.075   8.895   2.184  0.00  0.00    +0.030 C 
ENDBRANCH  18  19
ENDBRANCH  17  18
ENDBRANCH  15  17
ENDBRANCH   1  13
TORSDOF 5
