REMARK  Name = ZINC05028858
REMARK  6 active torsions:
REMARK  status: ('A' for Active; 'I' for Inactive)
REMARK    1  A    between atoms: C_1  and  C_2
REMARK    2  A    between atoms: C_2  and  O_4
REMARK    3  A    between atoms: O_4  and  C_5
REMARK    4  A    between atoms: C_14  and  C_24
REMARK    5  A    between atoms: C_14  and  O_25
REMARK    6  A    between atoms: C_19  and  O_23
REMARK                            x       y       z     vdW  Elec       q    Type
REMARK                         _______ _______ _______ _____ _____    ______ ____
ROOT
ATOM      1  C   UNL     1       3.921   2.500  -4.965  0.00  0.00    +0.206 C 
ATOM      2  C   UNL     1       3.252   1.927  -6.176  0.00  0.00    +0.013 C 
ATOM      3  C   UNL     1       2.103   1.333  -6.153  0.00  0.00    -0.027 C 
ATOM      4  C   UNL     1       1.294   1.124  -4.910  0.00  0.00    +0.039 C 
ATOM      5  C   UNL     1       1.776   2.043  -3.780  0.00  0.00    +0.074 C 
ATOM      6  C   UNL     1       3.306   1.932  -3.679  0.00  0.00    +0.080 C 
ATOM      7  C   UNL     1       3.803   2.784  -2.510  0.00  0.00    +0.096 C 
ATOM      8  C   UNL     1       3.112   2.432  -1.224  0.00  0.00    -0.002 A 
ATOM      9  C   UNL     1       3.736   2.706  -0.023  0.00  0.00    +0.007 A 
ATOM     10  C   UNL     1       3.117   2.399   1.177  0.00  0.00    +0.004 A 
ATOM     11  C   UNL     1       1.863   1.822   1.193  0.00  0.00    +0.046 A 
ATOM     12  C   UNL     1       1.220   1.531  -0.001  0.00  0.00    +0.128 A 
ATOM     13  C   UNL     1       1.850   1.834  -1.219  0.00  0.00    +0.065 A 
ATOM     14  C   UNL     1       1.188   1.507  -2.488  0.00  0.00    +0.171 C 
ATOM     15  O   UNL     1       0.187   0.821  -2.503  0.00  0.00    -0.292 OA
ATOM     16  C   UNL     1       5.308   2.568  -2.341  0.00  0.00    +0.047 C 
ENDROOT
BRANCH  12  17
ATOM     17  O   UNL     1      -0.011   0.963   0.007  0.00  0.00    -0.506 OA
ATOM     18  H   UNL     1       0.002  -0.004   0.002  0.00  0.00    +0.292 HD
ENDBRANCH  12  17
BRANCH   7  19
ATOM     19  O   UNL     1       3.562   4.161  -2.805  0.00  0.00    -0.384 OA
ATOM     20  H   UNL     1       3.883   4.771  -2.127  0.00  0.00    +0.211 HD
ENDBRANCH   7  19
BRANCH   1  21
ATOM     21  O   UNL     1       5.335   2.173  -5.002  0.00  0.00    -0.457 OA
BRANCH  21  23
ATOM     22  C   UNL     1       7.622   2.760  -5.723  0.00  0.00    +0.136 C 
ATOM     23  C   UNL     1       6.142   3.033  -5.642  0.00  0.00    +0.305 C 
ATOM     24  O   UNL     1       5.683   4.026  -6.154  0.00  0.00    -0.251 OA
ENDBRANCH  21  23
ENDBRANCH   1  21
TORSDOF 4
