REMARK  Name = ZINC40096104
REMARK  4 active torsions:
REMARK  status: ('A' for Active; 'I' for Inactive)
REMARK    1  A    between atoms: C_1  and  C_2
REMARK    2  A    between atoms: C_2  and  C_4
REMARK    3  A    between atoms: C_2  and  N_14
REMARK    4  A    between atoms: C_4  and  N_5
REMARK                            x       y       z     vdW  Elec       q    Type
REMARK                         _______ _______ _______ _____ _____    ______ ____
ROOT
ATOM      1  C   UNL     1      -0.125   1.505   0.217  0.00  0.00    -0.012 C 
ATOM      2  C   UNL     1       0.011  -0.004   0.006  0.00  0.00    -0.054 C 
ENDROOT
BRANCH   2   3
ATOM      3  N   UNL     1       0.781  -0.586   1.113  0.00  0.00    +0.385 N 
ATOM      4  C   UNL     1       0.099  -0.310   2.387  0.00  0.00    -0.073 C 
ATOM      5  C   UNL     1       0.735  -1.171   3.478  0.00  0.00    +0.017 C 
ATOM      6  C   UNL     1       2.233  -1.001   3.453  0.00  0.00    -0.048 A 
ATOM      7  C   UNL     1       2.967  -1.410   4.556  0.00  0.00    +0.004 A 
ATOM      8  C   UNL     1       4.340  -1.273   4.568  0.00  0.00    +0.000 A 
ATOM      9  C   UNL     1       4.987  -0.727   3.474  0.00  0.00    +0.000 A 
ATOM     10  C   UNL     1       4.256  -0.318   2.377  0.00  0.00    +0.002 A 
ATOM     11  C   UNL     1       2.876  -0.453   2.364  0.00  0.00    -0.061 A 
ATOM     12  C   UNL     1       2.118   0.013   1.149  0.00  0.00    -0.042 C 
ATOM     13  H   UNL     1       0.862  -1.583   0.981  0.00  0.00    -0.081 HD
ENDBRANCH   2   3
BRANCH   2  14
ATOM     14  C   UNL     1       0.735  -0.271  -1.315  0.00  0.00    +0.090 C 
BRANCH  14  15
ATOM     15  N   UNL     1       0.961  -1.710  -1.466  0.00  0.00    -0.301 N 
ATOM     16  C   UNL     1       1.503  -2.192  -2.602  0.00  0.00    +0.305 C 
ATOM     17  O   UNL     1       1.805  -1.432  -3.501  0.00  0.00    -0.252 OA
ATOM     18  N   UNL     1       1.711  -3.516  -2.741  0.00  0.00    -0.248 N 
ATOM     19  C   UNL     1       2.270  -4.013  -3.913  0.00  0.00    +0.165 A 
ATOM     20  N   UNL     1       2.660  -3.348  -4.978  0.00  0.00    -0.233 NA
ATOM     21  C   UNL     1       3.177  -3.972  -6.021  0.00  0.00    +0.120 A 
ATOM     22  C   UNL     1       3.285  -5.320  -5.940  0.00  0.00    +0.068 A 
ATOM     23  S   UNL     1       2.619  -5.611  -4.309  0.00  0.00    -0.060 S 
ATOM     24  H   UNL     1       0.720  -2.317  -0.748  0.00  0.00    +0.150 HD
ATOM     25  H   UNL     1       1.470  -4.123  -2.023  0.00  0.00    +0.158 HD
ENDBRANCH  14  15
ENDBRANCH   2  14
TORSDOF 3
