REMARK  Name = ZINC00875593
REMARK  5 active torsions:
REMARK  status: ('A' for Active; 'I' for Inactive)
REMARK    1  A    between atoms: C_1  and  C_2
REMARK    2  A    between atoms: C_2  and  C_26
REMARK    3  A    between atoms: C_6  and  C_17
REMARK    4  A    between atoms: C_11  and  O_16
REMARK    5  A    between atoms: C_12  and  O_15
REMARK                            x       y       z     vdW  Elec       q    Type
REMARK                         _______ _______ _______ _____ _____    ______ ____
ROOT
ATOM      1  C   UNL     1       4.905   1.907  -0.599  0.00  0.00    +0.031 C 
ATOM      2  C   UNL     1       4.857   0.419  -0.951  0.00  0.00    +0.033 C 
ATOM      3  C   UNL     1       3.908  -0.304   0.011  0.00  0.00    +0.094 C 
ATOM      4  C   UNL     1       2.490   0.228  -0.209  0.00  0.00    +0.180 C 
ATOM      5  C   UNL     1       1.505  -0.563   0.659  0.00  0.00    +0.082 C 
ATOM      6  C   UNL     1       0.087  -0.086   0.335  0.00  0.00    +0.065 C 
ATOM      7  C   UNL     1       0.043   1.422   0.349  0.00  0.00    +0.006 A 
ATOM      8  C   UNL     1      -1.189   2.050   0.445  0.00  0.00    +0.011 A 
ATOM      9  C   UNL     1      -1.273   3.427   0.462  0.00  0.00    +0.050 A 
ATOM     10  C   UNL     1      -0.120   4.193   0.374  0.00  0.00    +0.162 A 
ATOM     11  C   UNL     1       1.116   3.570   0.274  0.00  0.00    +0.201 A 
ATOM     12  C   UNL     1       1.198   2.178   0.263  0.00  0.00    +0.172 A 
ATOM     13  O   UNL     1       2.426   1.603   0.168  0.00  0.00    -0.464 OA
ATOM     14  N   UNL     1       2.129   0.081  -1.619  0.00  0.00    -0.289 N 
ATOM     15  C   UNL     1       3.062   0.106  -2.584  0.00  0.00    +0.133 C 
ATOM     16  S   UNL     1       2.564  -0.060  -4.213  0.00  0.00    -0.019 S 
ATOM     17  N   UNL     1       4.368   0.256  -2.321  0.00  0.00    -0.321 N 
ATOM     18  C   UNL     1       6.259  -0.182  -0.833  0.00  0.00    +0.031 C 
ATOM     19  H   UNL     1       1.198  -0.038  -1.862  0.00  0.00    +0.151 HD
ATOM     20  H   UNL     1       5.003   0.256  -3.054  0.00  0.00    +0.148 HD
ENDROOT
BRANCH   6  21
ATOM     21  C   UNL     1      -0.871  -0.625   1.365  0.00  0.00    -0.003 A 
ATOM     22  C   UNL     1      -1.943  -1.436   1.192  0.00  0.00    +0.012 A 
ATOM     23  C   UNL     1      -2.687  -1.808   2.296  0.00  0.00    +0.008 A 
ATOM     24  C   UNL     1      -2.323  -1.351   3.519  0.00  0.00    +0.045 A 
ATOM     25  S   UNL     1      -0.884  -0.368   3.132  0.00  0.00    -0.101 S 
ENDBRANCH   6  21
BRANCH  11  26
ATOM     26  O   UNL     1       2.249   4.318   0.187  0.00  0.00    -0.501 OA
ATOM     27  H   UNL     1       2.507   4.537  -0.719  0.00  0.00    +0.292 HD
ENDBRANCH  11  26
BRANCH  10  28
ATOM     28  O   UNL     1      -0.201   5.551   0.384  0.00  0.00    -0.503 OA
ATOM     29  H   UNL     1      -0.294   5.946  -0.494  0.00  0.00    +0.292 HD
ENDBRANCH  10  28
TORSDOF 3
