REMARK  Name = ZINC66242132
REMARK  3 active torsions:
REMARK  status: ('A' for Active; 'I' for Inactive)
REMARK    1  A    between atoms: C_6  and  C_7
REMARK    2  A    between atoms: C_7  and  C_12
REMARK    3  A    between atoms: C_12  and  N_13
REMARK                            x       y       z     vdW  Elec       q    Type
REMARK                         _______ _______ _______ _____ _____    ______ ____
ROOT
ATOM      1  C   UNL     1      -1.278  -0.754   0.027  0.00  0.00    +0.011 C 
ATOM      2  C   UNL     1      -1.196  -1.472  -1.336  0.00  0.00    +0.013 C 
ATOM      3  C   UNL     1      -2.669  -1.560  -1.808  0.00  0.00    +0.001 C 
ATOM      4  C   UNL     1      -3.258  -0.204  -1.344  0.00  0.00    +0.001 C 
ATOM      5  C   UNL     1      -2.588   0.052   0.022  0.00  0.00    +0.013 C 
ENDROOT
BRANCH   1  11
ATOM      6  C   UNL     1       0.696   0.083   1.318  0.00  0.00    +0.008 A 
ATOM      7  C   UNL     1       1.774   0.933   1.474  0.00  0.00    +0.050 A 
ATOM      8  C   UNL     1       2.059   1.880   0.502  0.00  0.00    +0.162 A 
ATOM      9  C   UNL     1       1.258   1.970  -0.631  0.00  0.00    +0.162 A 
ATOM     10  C   UNL     1       0.177   1.115  -0.781  0.00  0.00    +0.053 A 
ATOM     11  C   UNL     1      -0.102   0.174   0.193  0.00  0.00    -0.036 A 
ATOM     12  O   UNL     1       1.525   2.887  -1.601  0.00  0.00    -0.485 OA
ATOM     13  C   UNL     1       2.389   3.971  -1.242  0.00  0.00    +0.270 C 
ATOM     14  C   UNL     1       3.599   3.394  -0.494  0.00  0.00    +0.270 C 
ATOM     15  O   UNL     1       3.122   2.713   0.672  0.00  0.00    -0.485 OA
ENDBRANCH   1  11
BRANCH   1  16
ATOM     16  C   UNL     1      -1.298  -1.781   1.161  0.00  0.00    +0.115 C 
BRANCH  16  17
ATOM     17  N   UNL     1      -0.108  -2.630   1.072  0.00  0.00    -0.318 N 
ATOM     18  C   UNL     1       0.053  -3.675   1.940  0.00  0.00    +0.154 C 
ATOM     19  N   UNL     1      -0.889  -3.895   2.844  0.00  0.00    -0.361 N 
ATOM     20  C   UNL     1      -0.789  -4.997   3.802  0.00  0.00    +0.116 C 
ATOM     21  C   UNL     1       0.691  -5.295   4.069  0.00  0.00    +0.040 C 
ATOM     22  C   UNL     1       1.382  -5.557   2.726  0.00  0.00    +0.106 C 
ATOM     23  N   UNL     1       1.141  -4.423   1.832  0.00  0.00    -0.319 N 
ATOM     24  H   UNL     1       0.567  -2.451   0.398  0.00  0.00    +0.149 HD
ATOM     25  H   UNL     1       1.795  -4.212   1.148  0.00  0.00    +0.149 HD
ATOM     26  H   UNL     1      -1.664  -3.312   2.872  0.00  0.00    +0.162 HD
ENDBRANCH  16  17
ENDBRANCH   1  16
TORSDOF 3
