REMARK  Name = ZINC61692609
REMARK  4 active torsions:
REMARK  status: ('A' for Active; 'I' for Inactive)
REMARK    1  A    between atoms: C_1  and  C_2
REMARK    2  A    between atoms: C_2  and  N_3
REMARK    3  A    between atoms: N_3  and  C_4
REMARK    4  A    between atoms: N_14  and  C_15
REMARK                            x       y       z     vdW  Elec       q    Type
REMARK                         _______ _______ _______ _____ _____    ______ ____
ROOT
ATOM      1  C   UNL     1       0.710  -1.960  -1.215  0.00  0.00    -0.068 C 
ATOM      2  C   UNL     1       1.492  -2.428   0.003  0.00  0.00    +0.007 C 
ATOM      3  C   UNL     1       1.855  -3.908  -0.057  0.00  0.00    +0.072 C 
ATOM      4  C   UNL     1       0.614  -4.787   0.062  0.00  0.00    +0.022 C 
ATOM      5  C   UNL     1      -0.302  -4.684  -1.145  0.00  0.00    +0.004 C 
ATOM      6  C   UNL     1       0.422  -4.769  -2.478  0.00  0.00    +0.022 C 
ATOM      7  C   UNL     1       1.673  -3.899  -2.536  0.00  0.00    +0.072 C 
ATOM      8  C   UNL     1       1.315  -2.417  -2.534  0.00  0.00    +0.007 C 
ATOM      9  N   UNL     1       2.501  -4.183  -1.352  0.00  0.00    -0.323 N 
ENDROOT
BRANCH   9  10
ATOM     10  C   UNL     1       3.804  -4.678  -1.449  0.00  0.00    +0.050 A 
ATOM     11  C   UNL     1       4.028  -6.049  -1.476  0.00  0.00    +0.040 A 
ATOM     12  C   UNL     1       5.317  -6.535  -1.573  0.00  0.00    +0.020 A 
ATOM     13  C   UNL     1       6.386  -5.658  -1.643  0.00  0.00    +0.017 A 
ATOM     14  C   UNL     1       6.167  -4.293  -1.616  0.00  0.00    +0.023 A 
ATOM     15  C   UNL     1       4.879  -3.800  -1.525  0.00  0.00    +0.062 A 
ATOM     16 CL   UNL     1       4.604  -2.087  -1.498  0.00  0.00    -0.082 Cl
ATOM     17 BR   UNL     1       5.623  -8.401  -1.611  0.00  0.00    -0.050 Br
ENDBRANCH   9  10
BRANCH   1  18
ATOM     18  N   UNL     1       0.690  -0.478  -1.207  0.00  0.00    +0.381 N 
ATOM     19  H   UNL     1       0.202  -0.144  -2.024  0.00  0.00    -0.086 HD
ATOM     20  H   UNL     1       1.636  -0.129  -1.214  0.00  0.00    -0.086 HD
BRANCH  18  22
ATOM     21  C   UNL     1      -0.019   1.526   0.010  0.00  0.00    -0.017 C 
ATOM     22  C   UNL     1       0.002  -0.004   0.002  0.00  0.00    -0.086 C 
ENDBRANCH  18  22
ENDBRANCH   1  18
TORSDOF 3
