REMARK  Name = ZINC35454535
REMARK  7 active torsions:
REMARK  status: ('A' for Active; 'I' for Inactive)
REMARK    1  A    between atoms: C_1  and  C_2
REMARK    2  A    between atoms: C_2  and  C_4
REMARK    3  A    between atoms: C_2  and  N_29
REMARK    4  A    between atoms: CA_16  and  C_20
REMARK    5  A    between atoms: C_20  and  C_21
REMARK    6  A    between atoms: C_24  and  O_27
REMARK    7  A    between atoms: O_27  and  C_28
REMARK                            x       y       z     vdW  Elec       q    Type
REMARK                         _______ _______ _______ _____ _____    ______ ____
ROOT
ATOM      1  C   UNL     1       0.931  -0.632  -1.381  0.00  0.00    +0.201 C 
ATOM      2  O   UNL     1       1.914  -1.340  -1.443  0.00  0.00    -0.277 OA
ATOM      3  N   UNL     1       0.348  -0.190  -2.513  0.00  0.00    -0.299 N 
ATOM      4  C   UNL     1      -0.763   0.751  -2.429  0.00  0.00    +0.126 C 
ATOM      5  C   UNL     1      -0.498   1.970  -3.292  0.00  0.00    +0.127 C 
ATOM      6  N   UNL     1       0.182   1.661  -4.535  0.00  0.00    -0.285 N 
ATOM      7  CA  UNL     1       0.858   0.416  -4.848  0.00  0.00    +0.179 C 
ATOM      8  C   UNL     1       0.839  -0.653  -3.801  0.00  0.00    +0.139 C 
ATOM      9  C   UNL     1       2.245   0.717  -5.358  0.00  0.00    +0.236 C 
ATOM     10  O   UNL     1       3.222   0.119  -4.958  0.00  0.00    -0.274 OA
ATOM     11  N   UNL     1       2.335   1.705  -6.296  0.00  0.00    -0.302 N 
ATOM     12  CA  UNL     1       1.071   2.329  -6.728  0.00  0.00    +0.163 C 
ATOM     13  C   UNL     1       0.243   2.634  -5.498  0.00  0.00    +0.237 C 
ATOM     14  O   UNL     1      -0.340   3.690  -5.371  0.00  0.00    -0.274 OA
ATOM     15  H   UNL     1       3.189   1.982  -6.661  0.00  0.00    +0.150 HD
ENDROOT
BRANCH   1  17
ATOM     16  C   UNL     1       0.938   1.103   0.389  0.00  0.00    -0.005 C 
ATOM     17  C   UNL     1       0.362  -0.247  -0.040  0.00  0.00    +0.010 C 
BRANCH  17  18
ATOM     18  N   UNL     1       0.717  -1.269   0.954  0.00  0.00    +0.385 N 
ATOM     19  H   UNL     1       0.336  -1.012   1.852  0.00  0.00    -0.089 HD
ATOM     20  H   UNL     1       0.337  -2.160   0.670  0.00  0.00    -0.089 HD
ATOM     21  H   UNL     1       1.721  -1.338   1.022  0.00  0.00    -0.089 HD
ENDBRANCH  17  18
ENDBRANCH   1  17
BRANCH  12  22
ATOM     22  C   UNL     1       0.307   1.368  -7.640  0.00  0.00    +0.067 C 
BRANCH  22  23
ATOM     23  C   UNL     1       1.076   1.171  -8.921  0.00  0.00    -0.045 A 
ATOM     24  C   UNL     1       0.852   2.011  -9.996  0.00  0.00    +0.007 A 
ATOM     25  C   UNL     1       1.555   1.833 -11.172  0.00  0.00    +0.046 A 
ATOM     26  C   UNL     1       2.487   0.811 -11.273  0.00  0.00    +0.120 A 
ATOM     27  C   UNL     1       2.711  -0.030 -10.192  0.00  0.00    +0.046 A 
ATOM     28  C   UNL     1       2.008   0.155  -9.017  0.00  0.00    +0.007 A 
BRANCH  26  29
ATOM     29  O   UNL     1       3.180   0.633 -12.428  0.00  0.00    -0.495 OA
ATOM     30  C   UNL     1       4.124  -0.440 -12.461  0.00  0.00    +0.277 C 
ENDBRANCH  26  29
ENDBRANCH  22  23
ENDBRANCH  12  22
TORSDOF 5
