REMARK  Name = ZINC40925476
REMARK  7 active torsions:
REMARK  status: ('A' for Active; 'I' for Inactive)
REMARK    1  A    between atoms: C_1  and  C_2
REMARK    2  A    between atoms: C_9  and  N_13
REMARK    3  A    between atoms: C_10  and  C_11
REMARK    4  A    between atoms: C_14  and  C_16
REMARK    5  A    between atoms: C_16  and  C_17
REMARK    6  A    between atoms: C_16  and  C_18
REMARK    7  A    between atoms: C_16  and  N_19
REMARK                            x       y       z     vdW  Elec       q    Type
REMARK                         _______ _______ _______ _____ _____    ______ ____
ROOT
ATOM      1  C   UNL     1      -0.019   1.526   0.010  0.00  0.00    +0.008 C 
ATOM      2  C   UNL     1       0.002  -0.004   0.002  0.00  0.00    -0.009 C 
ATOM      3  C   UNL     1      -1.434  -0.537   0.019  0.00  0.00    +0.008 C 
ATOM      4  C   UNL     1      -1.433  -2.045  -0.237  0.00  0.00    +0.037 C 
ATOM      5  C   UNL     1      -0.464  -2.704   0.734  0.00  0.00    -0.018 A 
ATOM      6  C   UNL     1       0.485  -1.986   1.374  0.00  0.00    -0.004 A 
ATOM      7  S   UNL     1       1.344  -3.168   2.371  0.00  0.00    -0.077 S 
ATOM      8  C   UNL     1       0.493  -4.558   1.966  0.00  0.00    +0.090 A 
ATOM      9  C   UNL     1      -0.459  -4.119   1.059  0.00  0.00    +0.084 A 
ATOM     10  C   UNL     1       0.739  -0.515   1.248  0.00  0.00    +0.046 C 
ENDROOT
BRANCH   8  11
ATOM     11  N   UNL     1       0.696  -5.849   2.431  0.00  0.00    -0.280 N 
ATOM     12  C   UNL     1       1.678  -6.098   3.319  0.00  0.00    +0.206 C 
ATOM     13  O   UNL     1       2.384  -5.194   3.713  0.00  0.00    -0.277 OA
ATOM     14  H   UNL     1       0.132  -6.573   2.116  0.00  0.00    +0.155 HD
BRANCH  12  15
ATOM     15  C   UNL     1       1.900  -7.501   3.824  0.00  0.00    +0.002 C 
ATOM     16  C   UNL     1       3.352  -7.656   4.279  0.00  0.00    -0.001 C 
ATOM     17  C   UNL     1       0.964  -7.772   5.004  0.00  0.00    -0.001 C 
BRANCH  15  18
ATOM     18  N   UNL     1       1.619  -8.459   2.747  0.00  0.00    +0.387 N 
ATOM     19  H   UNL     1       2.236  -8.281   1.969  0.00  0.00    -0.089 HD
ATOM     20  H   UNL     1       1.767  -9.398   3.085  0.00  0.00    -0.089 HD
ATOM     21  H   UNL     1       0.661  -8.357   2.447  0.00  0.00    -0.089 HD
ENDBRANCH  15  18
ENDBRANCH  12  15
ENDBRANCH   8  11
BRANCH   9  22
ATOM     22  C   UNL     1      -1.399  -5.024   0.469  0.00  0.00    +0.102 C 
ATOM     23  N   UNL     1      -2.144  -5.741   0.000  0.00  0.00    -0.191 NA
ENDBRANCH   9  22
TORSDOF 4
