REMARK  Name = ZINC04334881
REMARK  6 active torsions:
REMARK  status: ('A' for Active; 'I' for Inactive)
REMARK    1  A    between atoms: C_6  and  C_7
REMARK    2  A    between atoms: C_7  and  N_38
REMARK    3  A    between atoms: C_8  and  C_9
REMARK    4  A    between atoms: C_8  and  N_38
REMARK    5  A    between atoms: C_9  and  N_10
REMARK    6  A    between atoms: C_18  and  N_19
REMARK                            x       y       z     vdW  Elec       q    Type
REMARK                         _______ _______ _______ _____ _____    ______ ____
ROOT
ATOM      1  C   UNL     1       7.414  -1.188   1.765  0.00  0.00    -0.060 C 
ENDROOT
BRANCH   1   2
ATOM      2  N   UNL     1       6.051  -1.075   1.214  0.00  0.00    +0.383 N 
ATOM      3  H   UNL     1       6.048  -0.379   0.459  0.00  0.00    -0.085 HD
ATOM      4  H   UNL     1       5.759  -1.986   0.841  0.00  0.00    -0.085 HD
BRANCH   2   5
ATOM      5  C   UNL     1       5.106  -0.655   2.266  0.00  0.00    -0.047 C 
BRANCH   5  11
ATOM      6  C   UNL     1       2.886  -1.646   1.677  0.00  0.00    +0.005 A 
ATOM      7  C   UNL     1       1.617  -1.552   1.135  0.00  0.00    +0.050 A 
ATOM      8  C   UNL     1       1.183  -0.356   0.589  0.00  0.00    +0.166 A 
ATOM      9  C   UNL     1       2.029   0.752   0.587  0.00  0.00    +0.166 A 
ATOM     10  C   UNL     1       3.298   0.650   1.131  0.00  0.00    +0.051 A 
ATOM     11  C   UNL     1       3.724  -0.547   1.675  0.00  0.00    -0.061 A 
ATOM     12  O   UNL     1       1.376   1.797  -0.001  0.00  0.00    -0.453 OA
ATOM     13  C   UNL     1      -0.018   1.436   0.010  0.00  0.00    +0.466 C 
ATOM     14  O   UNL     1       0.002  -0.004   0.002  0.00  0.00    -0.453 OA
ENDBRANCH   5  11
ENDBRANCH   2   5
ENDBRANCH   1   2
BRANCH   1  15
ATOM     15  C   UNL     1       8.370  -1.625   0.653  0.00  0.00    +0.106 C 
BRANCH  15  16
ATOM     16  N   UNL     1       9.727  -1.740   1.193  0.00  0.00    -0.317 N 
ATOM     17  C   UNL     1      10.695  -0.780   1.155  0.00  0.00    +0.201 A 
ATOM     18  N   UNL     1      11.778  -1.219   1.727  0.00  0.00    -0.231 NA
ATOM     19  C   UNL     1      11.576  -2.484   2.167  0.00  0.00    +0.147 A 
ATOM     20  C   UNL     1      10.255  -2.832   1.835  0.00  0.00    +0.165 A 
ATOM     21  N   UNL     1       9.805  -4.040   2.156  0.00  0.00    -0.216 NA
ATOM     22  C   UNL     1      10.579  -4.898   2.786  0.00  0.00    +0.225 A 
ATOM     23  N   UNL     1      11.824  -4.615   3.124  0.00  0.00    -0.219 NA
ATOM     24  C   UNL     1      12.363  -3.434   2.840  0.00  0.00    +0.147 A 
BRANCH  24  25
ATOM     25  N   UNL     1      13.668  -3.147   3.197  0.00  0.00    -0.341 N 
ATOM     26  H   UNL     1      14.201  -2.940   2.377  0.00  0.00    +0.144 HD
ATOM     27  H   UNL     1      14.201  -3.811   3.661  0.00  0.00    +0.144 HD
ENDBRANCH  24  25
ENDBRANCH  15  16
ENDBRANCH   1  15
TORSDOF 6
