REMARK  Name = ZINC61511912
REMARK  6 active torsions:
REMARK  status: ('A' for Active; 'I' for Inactive)
REMARK    1  A    between atoms: C_1  and  C_2
REMARK    2  A    between atoms: C_2  and  C_3
REMARK    3  A    between atoms: C_3  and  C_5
REMARK    4  A    between atoms: C_3  and  N_16
REMARK    5  A    between atoms: C_8  and  C_10
REMARK    6  A    between atoms: N_16  and  C_17
REMARK                            x       y       z     vdW  Elec       q    Type
REMARK                         _______ _______ _______ _____ _____    ______ ____
ROOT
ATOM      1  C   UNL     1       0.892  -1.765  -1.160  0.00  0.00    +0.204 A 
ATOM      2  N   UNL     1      -0.068  -2.645  -1.151  0.00  0.00    -0.114 NA
ATOM      3  N   UNL     1       0.425  -3.821  -0.976  0.00  0.00    -0.107 NA
ATOM      4  C   UNL     1       1.733  -3.729  -0.867  0.00  0.00    +0.255 A 
ATOM      5  O   UNL     1       2.053  -2.424  -0.987  0.00  0.00    -0.421 OA
ENDROOT
BRANCH   4   6
ATOM      6  C   UNL     1       2.671  -4.842  -0.659  0.00  0.00    +0.077 A 
ATOM      7  C   UNL     1       2.408  -6.194  -0.541  0.00  0.00    +0.022 A 
ATOM      8  C   UNL     1       3.464  -7.053  -0.348  0.00  0.00    +0.024 A 
ATOM      9  C   UNL     1       4.726  -6.550  -0.281  0.00  0.00    +0.056 A 
ATOM     10  S   UNL     1       4.449  -4.800  -0.502  0.00  0.00    -0.077 S 
ATOM     11 BR   UNL     1       6.358  -7.470  -0.027  0.00  0.00    -0.043 Br
ENDBRANCH   4   6
BRANCH   1  12
ATOM     12  C   UNL     1       0.733  -0.277  -1.339  0.00  0.00    +0.017 C 
BRANCH  12  13
ATOM     13  N   UNL     1      -0.206  -0.014  -2.438  0.00  0.00    +0.385 N 
ATOM     14  C   UNL     1       0.374  -0.489  -3.701  0.00  0.00    -0.099 C 
ATOM     15  H   UNL     1      -1.073  -0.498  -2.263  0.00  0.00    -0.085 HD
ATOM     16  H   UNL     1      -0.381   0.978  -2.500  0.00  0.00    -0.085 HD
ENDBRANCH  12  13
BRANCH  12  18
ATOM     17  C   UNL     1       0.152   1.860  -0.183  0.00  0.00    +0.002 C 
ATOM     18  C   UNL     1       0.190   0.337  -0.047  0.00  0.00    -0.010 C 
ENDBRANCH  12  18
ENDBRANCH   1  12
TORSDOF 4
