REMARK  Name = ZINC28914060
REMARK  4 active torsions:
REMARK  status: ('A' for Active; 'I' for Inactive)
REMARK    1  A    between atoms: C_5  and  C_7
REMARK    2  A    between atoms: C_7  and  C_9
REMARK    3  A    between atoms: C_7  and  O_21
REMARK    4  A    between atoms: C_9  and  N_10
REMARK                            x       y       z     vdW  Elec       q    Type
REMARK                         _______ _______ _______ _____ _____    ______ ____
ROOT
ATOM      1  C   UNL     1      -5.248   3.146   0.610  0.00  0.00    +0.154 C 
ENDROOT
BRANCH   1   2
ATOM      2  N   UNL     1      -3.812   2.950   0.395  0.00  0.00    -0.222 N 
ATOM      3  C   UNL     1      -2.879   3.011   1.371  0.00  0.00    +0.244 C 
ATOM      4  O   UNL     1      -3.065   3.187   2.556  0.00  0.00    -0.273 OA
ATOM      5  C   UNL     1      -1.557   2.813   0.670  0.00  0.00    +0.164 C 
ATOM      6  C   UNL     1      -0.783   1.608   1.248  0.00  0.00    +0.033 C 
ATOM      7  C   UNL     1      -0.013   1.086   0.008  0.00  0.00    +0.021 C 
ATOM      8  C   UNL     1      -0.803   1.619  -1.206  0.00  0.00    +0.110 C 
ATOM      9  N   UNL     1      -1.975   2.317  -0.671  0.00  0.00    -0.274 N 
ATOM     10  C   UNL     1      -3.254   2.685  -0.798  0.00  0.00    +0.312 C 
ATOM     11  O   UNL     1      -3.839   2.769  -1.860  0.00  0.00    -0.252 OA
ENDBRANCH   1   2
BRANCH   1  12
ATOM     12  C   UNL     1      -5.590   4.628   0.446  0.00  0.00    +0.165 C 
BRANCH  12  17
ATOM     13  C   UNL     1      -9.325   5.061   0.098  0.00  0.00    +0.001 A 
ATOM     14  C   UNL     1      -9.705   5.255   1.413  0.00  0.00    +0.003 A 
ATOM     15  C   UNL     1      -8.755   5.247   2.416  0.00  0.00    +0.039 A 
ATOM     16  C   UNL     1      -7.421   5.044   2.104  0.00  0.00    +0.129 A 
ATOM     17  C   UNL     1      -7.041   4.850   0.787  0.00  0.00    +0.018 A 
ATOM     18  C   UNL     1      -7.993   4.864  -0.215  0.00  0.00    +0.009 A 
ATOM     19  F   UNL     1      -6.491   5.037   3.084  0.00  0.00    -0.205 F 
ENDBRANCH  12  17
BRANCH  12  20
ATOM     20  O   UNL     1      -5.353   5.025  -0.906  0.00  0.00    -0.386 OA
ATOM     21  H   UNL     1      -4.345   4.936  -1.337  0.00  0.00    +0.210 HD
ENDBRANCH  12  20
ENDBRANCH   1  12
TORSDOF 4
