REMARK  Name = ZINC62238595
REMARK  4 active torsions:
REMARK  status: ('A' for Active; 'I' for Inactive)
REMARK    1  A    between atoms: C_6  and  C_7
REMARK    2  A    between atoms: C_8  and  C_19
REMARK    3  A    between atoms: N_11  and  C_12
REMARK    4  A    between atoms: C_19  and  N_20
REMARK                            x       y       z     vdW  Elec       q    Type
REMARK                         _______ _______ _______ _____ _____    ______ ____
ROOT
ATOM      1  C   UNL     1      -1.252  -0.732  -0.011  0.00  0.00    +0.096 A 
ATOM      2  C   UNL     1      -1.600  -1.774  -0.820  0.00  0.00    +0.074 A 
ATOM      3  N   UNL     1      -2.808  -2.207  -0.465  0.00  0.00    -0.135 NA
ATOM      4  N   UNL     1      -3.259  -1.512   0.519  0.00  0.00    -0.060 NA
ATOM      5  N   UNL     1      -2.295  -0.550   0.858  0.00  0.00    -0.212 N 
ENDROOT
BRANCH   1  11
ATOM      6  C   UNL     1      -0.030   1.432  -0.189  0.00  0.00    +0.013 A 
ATOM      7  C   UNL     1       1.147   2.150  -0.232  0.00  0.00    +0.039 A 
ATOM      8  C   UNL     1       2.365   1.495  -0.147  0.00  0.00    +0.123 A 
ATOM      9  C   UNL     1       2.408   0.116  -0.019  0.00  0.00    +0.039 A 
ATOM     10  C   UNL     1       1.237  -0.612   0.026  0.00  0.00    +0.013 A 
ATOM     11  C   UNL     1       0.008   0.043  -0.059  0.00  0.00    +0.002 A 
ATOM     12  F   UNL     1       3.515   2.203  -0.191  0.00  0.00    -0.205 F 
ENDBRANCH   1  11
BRANCH   5  13
ATOM     13  C   UNL     1      -2.384   0.408   1.877  0.00  0.00    +0.068 A 
ATOM     14  C   UNL     1      -1.246   0.785   2.578  0.00  0.00    +0.030 A 
ATOM     15  C   UNL     1      -1.335   1.730   3.582  0.00  0.00    +0.040 A 
ATOM     16  C   UNL     1      -2.559   2.300   3.890  0.00  0.00    +0.124 A 
ATOM     17  C   UNL     1      -3.695   1.925   3.193  0.00  0.00    +0.040 A 
ATOM     18  C   UNL     1      -3.609   0.985   2.184  0.00  0.00    +0.030 A 
ATOM     19  F   UNL     1      -2.644   3.224   4.872  0.00  0.00    -0.205 F 
ENDBRANCH   5  13
BRANCH   2  20
ATOM     20  C   UNL     1      -0.757  -2.340  -1.933  0.00  0.00    -0.026 C 
BRANCH  20  21
ATOM     21  N   UNL     1      -0.015  -3.508  -1.439  0.00  0.00    +0.382 N 
ATOM     22  H   UNL     1       0.620  -3.830  -2.154  0.00  0.00    -0.090 HD
ATOM     23  H   UNL     1       0.509  -3.250  -0.616  0.00  0.00    -0.090 HD
ATOM     24  H   UNL     1      -0.663  -4.245  -1.208  0.00  0.00    -0.090 HD
ENDBRANCH  20  21
ENDBRANCH   2  20
TORSDOF 4
