REMARK  Name = ZINC14141657
REMARK  3 active torsions:
REMARK  status: ('A' for Active; 'I' for Inactive)
REMARK    1  A    between atoms: C_10  and  C_12
REMARK    2  A    between atoms: C_12  and  S_13
REMARK    3  A    between atoms: S_13  and  C_14
REMARK                            x       y       z     vdW  Elec       q    Type
REMARK                         _______ _______ _______ _____ _____    ______ ____
ROOT
ATOM      1  C   UNL     1      -0.016   1.349   0.009  0.00  0.00    +0.013 A 
ATOM      2  C   UNL     1       0.002  -0.004   0.002  0.00  0.00    +0.046 A 
ATOM      3  S   UNL     1       1.755  -0.348  -0.015  0.00  0.00    -0.101 S 
ATOM      4  C   UNL     1       2.328   1.330  -0.009  0.00  0.00    -0.004 A 
ATOM      5  C   UNL     1       1.181   2.062   0.002  0.00  0.00    -0.020 A 
ATOM      6  C   UNL     1       1.246   3.588   0.000  0.00  0.00    +0.143 C 
ATOM      7  N   UNL     1       2.630   3.979   0.302  0.00  0.00    -0.296 N 
ATOM      8  C   UNL     1       3.731   3.314  -0.410  0.00  0.00    +0.113 C 
ATOM      9  C   UNL     1       3.736   1.830  -0.013  0.00  0.00    +0.061 C 
ATOM     10  C   UNL     1       2.886   4.934   1.218  0.00  0.00    +0.226 C 
ATOM     11  O   UNL     1       4.032   5.250   1.460  0.00  0.00    -0.275 OA
ENDROOT
BRANCH  10  12
ATOM     12  C   UNL     1       1.749   5.609   1.941  0.00  0.00    +0.172 C 
BRANCH  12  13
ATOM     13  S   UNL     1       2.413   6.836   3.100  0.00  0.00    -0.088 S 
BRANCH  13  14
ATOM     14  C   UNL     1       0.980   7.527   3.857  0.00  0.00    +0.160 A 
ATOM     15  N   UNL     1      -0.292   7.243   3.654  0.00  0.00    -0.133 NA
ATOM     16  N   UNL     1      -1.264   7.911   4.362  0.00  0.00    -0.125 NA
ATOM     17  C   UNL     1      -0.920   8.832   5.240  0.00  0.00    +0.180 A 
ATOM     18  S   UNL     1       0.861   8.795   5.109  0.00  0.00    -0.025 S 
ATOM     19  N   UNL     1      -1.727   9.618   6.054  0.00  0.00    -0.336 N 
ATOM     20  H   UNL     1      -2.692   9.523   6.018  0.00  0.00    +0.144 HD
ATOM     21  H   UNL     1      -1.326  10.262   6.659  0.00  0.00    +0.144 HD
ENDBRANCH  13  14
ENDBRANCH  12  13
ENDBRANCH  10  12
TORSDOF 3
