REMARK  Name = ZINC39455559
REMARK  6 active torsions:
REMARK  status: ('A' for Active; 'I' for Inactive)
REMARK    1  A    between atoms: C_1  and  N_2
REMARK    2  A    between atoms: C_10  and  C_12
REMARK    3  A    between atoms: N_26  and  C_27
REMARK    4  A    between atoms: C_27  and  C_28
REMARK    5  A    between atoms: C_31  and  S_34
REMARK    6  A    between atoms: S_34  and  C_35
REMARK                            x       y       z     vdW  Elec       q    Type
REMARK                         _______ _______ _______ _____ _____    ______ ____
ROOT
ATOM      1  C   UNL     1       1.285  -0.618   2.008  0.00  0.00    +0.143 C 
ATOM      2  C   UNL     1       2.510  -0.900   1.171  0.00  0.00    +0.041 A 
ATOM      3  H   UNL     1       2.100  -0.040  -0.682  0.00  0.00    +0.166 HD
ATOM      4  C   UNL     1       3.583  -1.577   1.639  0.00  0.00    -0.016 A 
ATOM      5  C   UNL     1       4.546  -1.650   0.564  0.00  0.00    +0.003 A 
ATOM      6  C   UNL     1       5.818  -2.220   0.464  0.00  0.00    +0.010 A 
ATOM      7  C   UNL     1       6.463  -2.095  -0.742  0.00  0.00    +0.001 A 
ATOM      8  C   UNL     1       5.889  -1.438  -1.818  0.00  0.00    +0.002 A 
ATOM      9  C   UNL     1       4.631  -0.864  -1.748  0.00  0.00    +0.026 A 
ATOM     10  C   UNL     1       3.954  -0.975  -0.536  0.00  0.00    +0.047 A 
ATOM     11  N   UNL     1       2.725  -0.535  -0.131  0.00  0.00    -0.356 N 
ATOM     12  C   UNL     1       3.675  -2.120   3.043  0.00  0.00    +0.053 C 
ATOM     13  C   UNL     1       2.588  -1.441   3.887  0.00  0.00    +0.090 C 
ATOM     14  N   UNL     1       1.300  -1.509   3.179  0.00  0.00    -0.287 NA
ENDROOT
BRANCH   1  24
ATOM     15  C   UNL     1      -0.018   1.461   0.010  0.00  0.00    +0.131 C 
ATOM     16  N   UNL     1       0.002  -0.004   0.002  0.00  0.00    -0.312 N 
ATOM     17  C   UNL     1       0.009  -0.828  -1.132  0.00  0.00    +0.052 A 
ATOM     18  C   UNL     1      -0.002  -0.504  -2.483  0.00  0.00    +0.025 A 
ATOM     19  C   UNL     1       0.007  -1.504  -3.437  0.00  0.00    +0.002 A 
ATOM     20  C   UNL     1       0.026  -2.832  -3.050  0.00  0.00    +0.002 A 
ATOM     21  C   UNL     1       0.037  -3.163  -1.709  0.00  0.00    +0.025 A 
ATOM     22  C   UNL     1       0.028  -2.164  -0.743  0.00  0.00    +0.050 A 
ATOM     23  N   UNL     1       0.035  -2.251   0.656  0.00  0.00    -0.323 N 
ATOM     24  C   UNL     1       0.025  -0.880   1.179  0.00  0.00    +0.182 C 
ATOM     25  H   UNL     1       0.048  -3.067   1.181  0.00  0.00    +0.148 HD
ENDBRANCH   1  24
BRANCH  14  26
ATOM     26  C   UNL     1       0.181  -1.210   4.083  0.00  0.00    +0.123 C 
BRANCH  26  27
ATOM     27  C   UNL     1       0.082  -2.286   5.133  0.00  0.00    +0.003 A 
ATOM     28  C   UNL     1      -0.695  -3.414   4.920  0.00  0.00    +0.120 A 
ATOM     29  N   UNL     1      -0.760  -4.340   5.862  0.00  0.00    -0.230 NA
ATOM     30  C   UNL     1      -0.094  -4.197   7.000  0.00  0.00    +0.188 A 
ATOM     31  N   UNL     1       0.658  -3.131   7.234  0.00  0.00    -0.230 NA
ATOM     32  C   UNL     1       0.771  -2.171   6.331  0.00  0.00    +0.120 A 
BRANCH  30  33
ATOM     33  S   UNL     1      -0.210  -5.455   8.228  0.00  0.00    -0.089 S 
ATOM     34  C   UNL     1       0.840  -4.849   9.578  0.00  0.00    +0.093 C 
ENDBRANCH  30  33
ENDBRANCH  26  27
ENDBRANCH  14  26
TORSDOF 4
