REMARK  Name = ZINC32099509
REMARK  8 active torsions:
REMARK  status: ('A' for Active; 'I' for Inactive)
REMARK    1  A    between atoms: C_1  and  O_2
REMARK    2  A    between atoms: O_2  and  C_3
REMARK    3  A    between atoms: C_5  and  C_25
REMARK    4  A    between atoms: C_8  and  O_9
REMARK    5  A    between atoms: O_9  and  S_10
REMARK    6  A    between atoms: S_10  and  C_13
REMARK    7  A    between atoms: C_26  and  C_27
REMARK    8  A    between atoms: C_26  and  C_29
REMARK                            x       y       z     vdW  Elec       q    Type
REMARK                         _______ _______ _______ _____ _____    ______ ____
ROOT
ATOM      1  C   UNL     1      -3.317  -5.198   0.295  0.00  0.00    +0.165 A 
ATOM      2  C   UNL     1      -2.170  -4.437   0.197  0.00  0.00    +0.057 A 
ATOM      3  C   UNL     1      -2.265  -3.042   0.104  0.00  0.00    -0.020 A 
ATOM      4  C   UNL     1      -3.525  -2.428   0.118  0.00  0.00    +0.012 A 
ATOM      5  C   UNL     1      -4.664  -3.197   0.210  0.00  0.00    +0.053 A 
ATOM      6  C   UNL     1      -4.567  -4.580   0.301  0.00  0.00    +0.198 A 
ENDROOT
BRANCH   1   8
ATOM      7  C   UNL     1      -1.917  -7.119   0.372  0.00  0.00    +0.277 C 
ATOM      8  O   UNL     1      -3.229  -6.552   0.385  0.00  0.00    -0.491 OA
ENDBRANCH   1   8
BRANCH   3   9
ATOM      9  C   UNL     1      -1.051  -2.227   0.000  0.00  0.00    +0.030 C 
ATOM     10  C   UNL     1      -1.083  -1.038  -0.670  0.00  0.00    +0.094 C 
BRANCH  10  11
ATOM     11  C   UNL     1       0.093  -0.148  -0.648  0.00  0.00    +0.150 A 
ATOM     12  N   UNL     1       0.176   1.064  -1.281  0.00  0.00    -0.337 N 
ATOM     13  H   UNL     1      -0.679   1.442  -1.862  0.00  0.00    +0.167 HD
ATOM     14  C   UNL     1       1.432   1.577  -1.017  0.00  0.00    +0.066 A 
ATOM     15  C   UNL     1       2.090   2.745  -1.376  0.00  0.00    +0.028 A 
ATOM     16  C   UNL     1       3.378   2.967  -0.937  0.00  0.00    +0.002 A 
ATOM     17  C   UNL     1       4.021   2.030  -0.140  0.00  0.00    +0.002 A 
ATOM     18  C   UNL     1       3.390   0.874   0.224  0.00  0.00    +0.030 A 
ATOM     19  C   UNL     1       2.083   0.628  -0.210  0.00  0.00    +0.089 A 
ATOM     20  N   UNL     1       1.218  -0.398  -0.020  0.00  0.00    -0.227 NA
ENDBRANCH  10  11
BRANCH  10  21
ATOM     21  C   UNL     1      -2.258  -0.654  -1.393  0.00  0.00    +0.103 C 
ATOM     22  N   UNL     1      -3.190  -0.350  -1.967  0.00  0.00    -0.191 NA
ENDBRANCH  10  21
ENDBRANCH   3   9
BRANCH   6  23
ATOM     23  O   UNL     1      -5.694  -5.332   0.398  0.00  0.00    -0.339 OA
BRANCH  23  24
ATOM     24  S   UNL     1      -6.153  -5.579   1.828  0.00  0.00    +0.151 S 
ATOM     25  O   UNL     1      -7.200  -6.537   1.758  0.00  0.00    -0.131 OA
ATOM     26  O   UNL     1      -4.979  -5.788   2.601  0.00  0.00    -0.131 OA
BRANCH  24  27
ATOM     27  C   UNL     1      -6.878  -4.082   2.409  0.00  0.00    +0.130 A 
ATOM     28  C   UNL     1      -6.092  -3.137   3.047  0.00  0.00    +0.033 A 
ATOM     29  C   UNL     1      -6.651  -1.959   3.501  0.00  0.00    +0.030 A 
ATOM     30  C   UNL     1      -8.006  -1.725   3.327  0.00  0.00    +0.067 A 
ATOM     31  C   UNL     1      -8.800  -2.680   2.688  0.00  0.00    +0.069 A 
ATOM     32  C   UNL     1      -8.229  -3.858   2.230  0.00  0.00    +0.058 A 
ATOM     33  N   UNL     1     -10.097  -2.172   2.660  0.00  0.00    -0.306 N 
ATOM     34  H   UNL     1     -10.906  -2.757   2.200  0.00  0.00    +0.170 HD
ATOM     35  C   UNL     1     -10.092  -0.964   3.255  0.00  0.00    +0.325 A 
ATOM     36  O   UNL     1     -11.067  -0.250   3.399  0.00  0.00    -0.247 OA
ATOM     37  N   UNL     1      -8.845  -0.667   3.668  0.00  0.00    -0.306 N 
ATOM     38  H   UNL     1      -8.438   0.213   4.188  0.00  0.00    +0.170 HD
ENDBRANCH  24  27
ENDBRANCH  23  24
ENDBRANCH   6  23
TORSDOF 7
