REMARK  Name = ZINC14457032
REMARK  6 active torsions:
REMARK  status: ('A' for Active; 'I' for Inactive)
REMARK    1  A    between atoms: C_1  and  O_2
REMARK    2  A    between atoms: O_2  and  C_3
REMARK    3  A    between atoms: C_6  and  C_10
REMARK    4  A    between atoms: C_8  and  O_9
REMARK    5  A    between atoms: C_23  and  C_26
REMARK    6  A    between atoms: N_28  and  C_29
REMARK                            x       y       z     vdW  Elec       q    Type
REMARK                         _______ _______ _______ _____ _____    ______ ____
ROOT
ATOM      1  C   UNL     1      -1.291   2.095   0.013  0.00  0.00    +0.105 C 
ATOM      2  C   UNL     1      -1.904   2.011   1.412  0.00  0.00    +0.029 C 
ATOM      3  C   UNL     1      -0.824   2.463   2.434  0.00  0.00    +0.033 C 
ATOM      4  C   UNL     1       0.013   1.216   2.644  0.00  0.00    -0.030 C 
ATOM      5  C   UNL     1      -0.663   0.147   2.304  0.00  0.00    -0.023 C 
ATOM      6  C   UNL     1      -2.041   0.526   1.811  0.00  0.00    +0.049 C 
ATOM      7  C   UNL     1      -2.432  -0.324   0.638  0.00  0.00    -0.019 A 
ATOM      8  C   UNL     1      -2.740  -1.656   0.874  0.00  0.00    +0.006 A 
ATOM      9  C   UNL     1      -3.105  -2.497  -0.161  0.00  0.00    +0.001 A 
ATOM     10  C   UNL     1      -3.167  -2.022  -1.453  0.00  0.00    +0.015 A 
ATOM     11  C   UNL     1      -2.863  -0.685  -1.711  0.00  0.00    +0.058 A 
ATOM     12  C   UNL     1      -2.495   0.170  -0.654  0.00  0.00    +0.044 A 
ATOM     13  N   UNL     1      -2.206   1.492  -0.956  0.00  0.00    -0.336 N 
ATOM     14  H   UNL     1      -3.052   2.036  -1.042  0.00  0.00    +0.147 HD
ENDROOT
BRANCH   1  18
ATOM     15  C   UNL     1       2.432  -0.009  -0.055  0.00  0.00    +0.161 A 
ATOM     16  C   UNL     1       1.284  -0.610  -0.548  0.00  0.00    +0.050 A 
ATOM     17  C   UNL     1       0.082   0.072  -0.523  0.00  0.00    +0.009 A 
ATOM     18  C   UNL     1       0.021   1.354  -0.006  0.00  0.00    -0.023 A 
ATOM     19  C   UNL     1       1.162   1.958   0.487  0.00  0.00    +0.054 A 
ATOM     20  C   UNL     1       2.370   1.280   0.465  0.00  0.00    +0.159 A 
BRANCH  15  22
ATOM     21  C   UNL     1       3.603  -1.999  -0.627  0.00  0.00    +0.277 C 
ATOM     22  O   UNL     1       3.615  -0.679  -0.079  0.00  0.00    -0.491 OA
ENDBRANCH  15  22
BRANCH  20  23
ATOM     23  O   UNL     1       3.494   1.873   0.950  0.00  0.00    -0.503 OA
ATOM     24  H   UNL     1       3.990   2.376   0.289  0.00  0.00    +0.292 HD
ENDBRANCH  20  23
ENDBRANCH   1  18
BRANCH  11  25
ATOM     25  C   UNL     1      -2.927  -0.168  -3.089  0.00  0.00    +0.250 C 
ATOM     26  O   UNL     1      -2.662   0.997  -3.314  0.00  0.00    -0.270 OA
ATOM     27  N   UNL     1      -3.279  -0.987  -4.101  0.00  0.00    -0.281 N 
ATOM     28  H   UNL     1      -3.563  -1.895  -3.913  0.00  0.00    +0.155 HD
BRANCH  27  29
ATOM     29  C   UNL     1      -3.233  -0.527  -5.421  0.00  0.00    +0.034 A 
ATOM     30  C   UNL     1      -4.168  -0.973  -6.346  0.00  0.00    +0.023 A 
ATOM     31  C   UNL     1      -4.123  -0.512  -7.647  0.00  0.00    +0.002 A 
ATOM     32  C   UNL     1      -3.142   0.383  -8.032  0.00  0.00    +0.000 A 
ATOM     33  C   UNL     1      -2.206   0.825  -7.115  0.00  0.00    +0.002 A 
ATOM     34  C   UNL     1      -2.249   0.373  -5.811  0.00  0.00    +0.023 A 
ENDBRANCH  27  29
ENDBRANCH  11  25
TORSDOF 5
