REMARK  Name = ZINC00044663
REMARK  6 active torsions:
REMARK  status: ('A' for Active; 'I' for Inactive)
REMARK    1  A    between atoms: C_1  and  N_42
REMARK    2  A    between atoms: C_2  and  N_42
REMARK    3  A    between atoms: C_3  and  C_4
REMARK    4  A    between atoms: C_3  and  N_42
REMARK    5  A    between atoms: C_5  and  O_25
REMARK    6  A    between atoms: C_13  and  C_15
REMARK                            x       y       z     vdW  Elec       q    Type
REMARK                         _______ _______ _______ _____ _____    ______ ____
ROOT
ATOM      1  C   UNL     1      -2.457   3.865   0.046  0.00  0.00    +0.020 A 
ATOM      2  C   UNL     1      -3.646   3.155   0.054  0.00  0.00    +0.122 A 
ATOM      3  C   UNL     1      -3.637   1.761   0.047  0.00  0.00    +0.046 A 
ATOM      4  C   UNL     1      -2.457   1.079   0.032  0.00  0.00    +0.015 A 
ATOM      5  C   UNL     1      -1.242   1.781   0.018  0.00  0.00    +0.019 A 
ATOM      6  C   UNL     1      -1.246   3.189   0.031  0.00  0.00    +0.144 A 
ATOM      7  O   UNL     1      -0.088   3.884   0.023  0.00  0.00    -0.421 OA
ATOM      8  C   UNL     1       1.103   3.261   0.009  0.00  0.00    +0.348 A 
ATOM      9  O   UNL     1       2.130   3.914   0.002  0.00  0.00    -0.244 OA
ATOM     10  C   UNL     1       1.168   1.796   0.001  0.00  0.00    +0.102 A 
ATOM     11  C   UNL     1      -0.013   1.076   0.008  0.00  0.00    +0.030 A 
ENDROOT
BRANCH  10  12
ATOM     12  C   UNL     1       2.470   1.103  -0.015  0.00  0.00    +0.146 A 
ATOM     13  N   UNL     1       3.692   1.722  -0.023  0.00  0.00    -0.338 N 
ATOM     14  H   UNL     1       3.858   2.708  -0.020  0.00  0.00    +0.167 HD
ATOM     15  C   UNL     1       4.652   0.728  -0.036  0.00  0.00    +0.066 A 
ATOM     16  C   UNL     1       6.040   0.731  -0.048  0.00  0.00    +0.028 A 
ATOM     17  C   UNL     1       6.726  -0.466  -0.060  0.00  0.00    +0.002 A 
ATOM     18  C   UNL     1       6.038  -1.671  -0.059  0.00  0.00    +0.002 A 
ATOM     19  C   UNL     1       4.672  -1.694  -0.047  0.00  0.00    +0.030 A 
ATOM     20  C   UNL     1       3.955  -0.493  -0.035  0.00  0.00    +0.089 A 
ATOM     21  N   UNL     1       2.632  -0.199  -0.017  0.00  0.00    -0.228 NA
ENDBRANCH  10  12
BRANCH   2  22
ATOM     22  O   UNL     1      -4.829   3.820   0.069  0.00  0.00    -0.506 OA
ATOM     23  H   UNL     1      -5.180   4.018  -0.810  0.00  0.00    +0.292 HD
ENDBRANCH   2  22
BRANCH   1  24
ATOM     24  C   UNL     1      -2.479   5.372   0.053  0.00  0.00    -0.036 C 
BRANCH  24  27
ATOM     25  C   UNL     1      -2.760   7.314  -1.366  0.00  0.00    -0.096 C 
ATOM     26  C   UNL     1      -1.248   5.540  -2.025  0.00  0.00    -0.096 C 
ATOM     27  N   UNL     1      -2.521   5.855  -1.343  0.00  0.00    +0.379 N 
ATOM     28  H   UNL     1      -3.289   5.384  -1.836  0.00  0.00    -0.082 HD
ENDBRANCH  24  27
ENDBRANCH   1  24
TORSDOF 4
