REMARK  Name = ZINC42075783
REMARK  10 active torsions:
REMARK  status: ('A' for Active; 'I' for Inactive)
REMARK    1  A    between atoms: C_1  and  C_2
REMARK    2  A    between atoms: C_2  and  C_3
REMARK    3  A    between atoms: C_3  and  C_4
REMARK    4  A    between atoms: C_4  and  C_5
REMARK    5  A    between atoms: C_5  and  C_6
REMARK    6  A    between atoms: C_6  and  C_8
REMARK    7  A    between atoms: C_6  and  N_9
REMARK    8  A    between atoms: N_9  and  C_10
REMARK    9  A    between atoms: C_15  and  C_22
REMARK   10  A    between atoms: C_16  and  C_21
REMARK                            x       y       z     vdW  Elec       q    Type
REMARK                         _______ _______ _______ _____ _____    ______ ____
ROOT
ATOM      1  C   UNL     1       2.470  -6.075  -1.507  0.00  0.00    +0.049 C 
ATOM      2  C   UNL     1       1.131  -6.620  -1.063  0.00  0.00    -0.031 A 
ATOM      3  C   UNL     1      -0.144  -6.496  -1.566  0.00  0.00    +0.004 A 
ATOM      4  C   UNL     1      -1.201  -7.123  -0.930  0.00  0.00    +0.004 A 
ATOM      5  C   UNL     1      -0.971  -7.874   0.209  0.00  0.00    -0.046 A 
ATOM      6  C   UNL     1       0.306  -8.000   0.715  0.00  0.00    -0.026 A 
ATOM      7  C   UNL     1       1.375  -7.371   0.080  0.00  0.00    +0.039 A 
ATOM      8  N   UNL     1       2.735  -7.347   0.392  0.00  0.00    -0.286 N 
ATOM      9  C   UNL     1       3.448  -6.614  -0.485  0.00  0.00    +0.208 C 
ATOM     10  O   UNL     1       4.645  -6.422  -0.462  0.00  0.00    -0.277 OA
ATOM     11  C   UNL     1       0.545  -8.819   1.957  0.00  0.00    +0.046 C 
ATOM     12  C   UNL     1      -2.122  -8.557   0.901  0.00  0.00    +0.044 C 
ATOM     13  H   UNL     1       3.123  -7.807   1.153  0.00  0.00    +0.155 HD
ENDROOT
BRANCH   1  14
ATOM     14  N   UNL     1       2.460  -4.606  -1.486  0.00  0.00    +0.391 N 
ATOM     15  H   UNL     1       3.402  -4.263  -1.597  0.00  0.00    -0.084 HD
ATOM     16  H   UNL     1       2.087  -4.285  -0.605  0.00  0.00    -0.084 HD
BRANCH  14  17
ATOM     17  C   UNL     1       1.623  -4.106  -2.584  0.00  0.00    -0.074 C 
ATOM     18  C   UNL     1       2.265  -4.474  -3.923  0.00  0.00    -0.014 C 
BRANCH  17  19
ATOM     19  C   UNL     1       1.499  -2.585  -2.478  0.00  0.00    -0.016 C 
BRANCH  19  20
ATOM     20  C   UNL     1       0.745  -2.222  -1.197  0.00  0.00    -0.002 C 
BRANCH  20  21
ATOM     21  C   UNL     1       0.621  -0.701  -1.092  0.00  0.00    -0.000 C 
BRANCH  21  23
ATOM     22  C   UNL     1      -0.256   1.183   0.295  0.00  0.00    +0.004 C 
ATOM     23  C   UNL     1      -0.132  -0.338   0.190  0.00  0.00    -0.003 C 
ENDBRANCH  21  23
ENDBRANCH  20  21
ENDBRANCH  19  20
ENDBRANCH  17  19
ENDBRANCH  14  17
ENDBRANCH   1  14
TORSDOF 6
