REMARK  Name = ZINC20191371
REMARK  8 active torsions:
REMARK  status: ('A' for Active; 'I' for Inactive)
REMARK    1  A    between atoms: C_1  and  C_2
REMARK    2  A    between atoms: C_2  and  C_3
REMARK    3  A    between atoms: C_7  and  N_23
REMARK    4  A    between atoms: C_12  and  N_13
REMARK    5  A    between atoms: N_13  and  C_14
REMARK    6  A    between atoms: N_13  and  C_16
REMARK    7  A    between atoms: C_14  and  C_15
REMARK    8  A    between atoms: C_20  and  C_22
REMARK                            x       y       z     vdW  Elec       q    Type
REMARK                         _______ _______ _______ _____ _____    ______ ____
ROOT
ATOM      1  C   UNL     1       1.155   7.414   0.152  0.00  0.00    -0.009 A 
ATOM      2  C   UNL     1       2.341   8.038   0.399  0.00  0.00    +0.017 A 
ATOM      3  C   UNL     1       3.497   7.243   0.539  0.00  0.00    +0.000 A 
ATOM      4  C   UNL     1       4.750   7.823   0.787  0.00  0.00    +0.032 A 
ATOM      5  C   UNL     1       5.858   7.013   0.917  0.00  0.00    +0.025 A 
ATOM      6  C   UNL     1       5.740   5.623   0.804  0.00  0.00    +0.025 A 
ATOM      7  C   UNL     1       4.536   5.040   0.563  0.00  0.00    +0.028 A 
ATOM      8  C   UNL     1       3.385   5.836   0.425  0.00  0.00    +0.048 A 
ATOM      9  N   UNL     1       2.191   5.280   0.187  0.00  0.00    -0.342 N 
ATOM     10  C   UNL     1       1.108   6.016   0.055  0.00  0.00    +0.107 A 
ATOM     11  H   UNL     1       2.102   4.187   0.098  0.00  0.00    +0.167 HD
ENDROOT
BRANCH   5  12
ATOM     12  N   UNL     1       7.109   7.585   1.165  0.00  0.00    -0.358 N 
ATOM     13  H   UNL     1       7.996   6.943   1.270  0.00  0.00    +0.142 HD
ATOM     14  H   UNL     1       7.207   8.677   1.255  0.00  0.00    +0.142 HD
ENDBRANCH   5  12
BRANCH   1  16
ATOM     15  C   UNL     1      -0.822   8.329   1.337  0.00  0.00    +0.009 C 
ATOM     16  C   UNL     1      -0.105   8.225  -0.011  0.00  0.00    +0.035 C 
ENDBRANCH   1  16
BRANCH  10  17
ATOM     17  N   UNL     1      -0.109   5.394  -0.192  0.00  0.00    -0.287 N 
BRANCH  17  18
ATOM     18  C   UNL     1      -0.573   5.262  -1.504  0.00  0.00    +0.035 A 
ATOM     19  C   UNL     1       0.121   5.855  -2.551  0.00  0.00    +0.023 A 
ATOM     20  C   UNL     1      -0.340   5.723  -3.846  0.00  0.00    +0.002 A 
ATOM     21  C   UNL     1      -1.493   5.002  -4.101  0.00  0.00    +0.003 A 
ATOM     22  C   UNL     1      -2.190   4.416  -3.060  0.00  0.00    -0.049 A 
ATOM     23  C   UNL     1      -1.730   4.539  -1.763  0.00  0.00    +0.026 A 
ATOM     24  C   UNL     1      -3.448   3.637  -3.342  0.00  0.00    +0.044 C 
ENDBRANCH  17  18
BRANCH  17  25
ATOM     25  C   UNL     1      -0.906   4.877   0.923  0.00  0.00    +0.109 C 
ATOM     26  C   UNL     1      -0.507   3.427   1.205  0.00  0.00    +0.025 C 
ENDBRANCH  17  25
ENDBRANCH  10  17
TORSDOF 5
