REMARK  Name = ZINC35677240
REMARK  4 active torsions:
REMARK  status: ('A' for Active; 'I' for Inactive)
REMARK    1  A    between atoms: N_9  and  C_13
REMARK    2  A    between atoms: C_13  and  C_14
REMARK    3  A    between atoms: C_14  and  C_15
REMARK    4  A    between atoms: C_18  and  N_21
REMARK                            x       y       z     vdW  Elec       q    Type
REMARK                         _______ _______ _______ _____ _____    ______ ____
ROOT
ATOM      1  C   UNL     1      -0.017   1.372   0.010  0.00  0.00    +0.001 A 
ATOM      2  C   UNL     1       1.161   2.099   0.002  0.00  0.00    +0.002 A 
ATOM      3  C   UNL     1       2.377   1.432  -0.013  0.00  0.00    +0.029 A 
ATOM      4  C   UNL     1       2.399   0.066  -0.020  0.00  0.00    +0.121 A 
ATOM      5  C   UNL     1       1.225  -0.698  -0.013  0.00  0.00    +0.065 A 
ATOM      6  C   UNL     1       0.002  -0.004   0.002  0.00  0.00    +0.015 A 
ATOM      7  C   UNL     1       1.491  -2.142  -0.024  0.00  0.00    +0.268 C 
ATOM      8  O   UNL     1       0.579  -2.946  -0.020  0.00  0.00    -0.268 OA
ATOM      9  N   UNL     1       2.769  -2.551  -0.039  0.00  0.00    -0.167 N 
ATOM     10  S   UNL     1       3.686  -1.151  -0.040  0.00  0.00    +0.078 S 
ATOM     11  O   UNL     1       4.343  -1.066  -1.297  0.00  0.00    -0.150 OA
ATOM     12  O   UNL     1       4.367  -1.080   1.206  0.00  0.00    -0.150 OA
ENDROOT
BRANCH   9  13
ATOM     13  C   UNL     1       3.258  -3.932  -0.051  0.00  0.00    +0.139 C 
BRANCH  13  14
ATOM     14  C   UNL     1       3.296  -4.447  -1.491  0.00  0.00    +0.056 C 
BRANCH  14  15
ATOM     15  C   UNL     1       3.800  -5.867  -1.503  0.00  0.00    -0.046 A 
ATOM     16  C   UNL     1       5.155  -6.118  -1.616  0.00  0.00    +0.005 A 
ATOM     17  C   UNL     1       5.620  -7.418  -1.627  0.00  0.00    +0.023 A 
ATOM     18  C   UNL     1       4.724  -8.475  -1.525  0.00  0.00    +0.025 A 
ATOM     19  C   UNL     1       3.363  -8.220  -1.412  0.00  0.00    +0.023 A 
ATOM     20  C   UNL     1       2.906  -6.917  -1.395  0.00  0.00    +0.005 A 
BRANCH  18  21
ATOM     21  N   UNL     1       5.190  -9.792  -1.537  0.00  0.00    -0.358 N 
ATOM     22  H   UNL     1       6.141  -9.969  -1.616  0.00  0.00    +0.142 HD
ATOM     23  H   UNL     1       4.564 -10.529  -1.465  0.00  0.00    +0.142 HD
ENDBRANCH  18  21
ENDBRANCH  14  15
ENDBRANCH  13  14
ENDBRANCH   9  13
TORSDOF 4
