REMARK  Name = ZINC63271435
REMARK  6 active torsions:
REMARK  status: ('A' for Active; 'I' for Inactive)
REMARK    1  A    between atoms: C_1  and  C_2
REMARK    2  A    between atoms: C_7  and  C_9
REMARK    3  A    between atoms: C_7  and  C_10
REMARK    4  A    between atoms: C_13  and  C_15
REMARK    5  A    between atoms: C_15  and  C_16
REMARK    6  A    between atoms: C_16  and  N_17
REMARK                            x       y       z     vdW  Elec       q    Type
REMARK                         _______ _______ _______ _____ _____    ______ ____
ROOT
ATOM      1  N   UNL     1      -5.970  -3.307  -0.573  0.00  0.00    -0.299 N 
ATOM      2  C   UNL     1      -6.969  -4.170  -0.846  0.00  0.00    +0.302 C 
ATOM      3  O   UNL     1      -6.762  -5.134  -1.558  0.00  0.00    -0.253 OA
ATOM      4  N   UNL     1      -8.197  -3.965  -0.330  0.00  0.00    -0.283 N 
ATOM      5  C   UNL     1      -8.470  -2.738   0.426  0.00  0.00    +0.114 C 
ATOM      6  C   UNL     1      -9.639  -1.980  -0.230  0.00  0.00    +0.052 C 
ATOM      7  C   UNL     1     -10.706  -3.005  -0.527  0.00  0.00    -0.036 C 
ATOM      8  C   UNL     1     -11.999  -3.036  -0.230  0.00  0.00    -0.001 A 
ATOM      9  C   UNL     1     -12.885  -2.041   0.396  0.00  0.00    +0.010 A 
ATOM     10  C   UNL     1     -14.179  -2.417   0.573  0.00  0.00    +0.001 A 
ATOM     11  C   UNL     1     -14.675  -3.668   0.193  0.00  0.00    +0.002 A 
ATOM     12  C   UNL     1     -13.934  -4.640  -0.396  0.00  0.00    +0.026 A 
ATOM     13  C   UNL     1     -12.559  -4.359  -0.641  0.00  0.00    +0.043 A 
ATOM     14  N   UNL     1     -11.639  -5.086  -1.204  0.00  0.00    -0.376 N 
ATOM     15  C   UNL     1     -10.408  -4.299  -1.274  0.00  0.00    +0.124 C 
ATOM     16  C   UNL     1      -9.251  -4.971  -0.536  0.00  0.00    +0.138 C 
ATOM     17  H   UNL     1      -6.151  -2.501  -0.066  0.00  0.00    +0.150 HD
ATOM     18  H   UNL     1     -11.750  -5.996  -1.521  0.00  0.00    +0.160 HD
ENDROOT
BRANCH   1  19
ATOM     19  C   UNL     1      -4.611  -3.588  -1.043  0.00  0.00    +0.115 C 
BRANCH  19  20
ATOM     20  C   UNL     1      -3.676  -2.460  -0.602  0.00  0.00    +0.114 C 
BRANCH  20  32
ATOM     21  C   UNL     1      -0.009   1.517   0.039  0.00  0.00    +0.013 C 
ATOM     22  C   UNL     1       0.009  -0.020   0.024  0.00  0.00    -0.014 C 
ATOM     23  C   UNL     1       0.692  -0.590  -1.249  0.00  0.00    +0.030 C 
ATOM     24  C   UNL     1       0.133  -2.034  -1.217  0.00  0.00    +0.077 C 
ATOM     25  C   UNL     1       0.890  -2.789  -0.128  0.00  0.00    +0.029 C 
ATOM     26  C   UNL     1       0.825  -2.127   1.237  0.00  0.00    -0.033 C 
ATOM     27  C   UNL     1       0.731  -0.613   1.232  0.00  0.00    +0.014 C 
ATOM     28  C   UNL     1       2.127  -2.502   1.988  0.00  0.00    +0.011 C 
ATOM     29  C   UNL     1      -0.332  -2.725   2.051  0.00  0.00    +0.011 C 
ATOM     30  N   UNL     1      -1.279  -1.885  -0.812  0.00  0.00    -0.298 N 
ATOM     31  C   UNL     1      -1.411  -0.623  -0.068  0.00  0.00    +0.114 C 
ATOM     32  C   UNL     1      -2.278  -2.748  -1.085  0.00  0.00    +0.217 C 
ATOM     33  O   UNL     1      -2.052  -3.757  -1.719  0.00  0.00    -0.276 OA
ENDBRANCH  20  32
ENDBRANCH  19  20
ENDBRANCH   1  19
TORSDOF 3
