REMARK  Name = ZINC41152266
REMARK  8 active torsions:
REMARK  status: ('A' for Active; 'I' for Inactive)
REMARK    1  A    between atoms: C_1  and  C_2
REMARK    2  A    between atoms: C_2  and  C_3
REMARK    3  A    between atoms: C_3  and  C_4
REMARK    4  A    between atoms: C_3  and  C_5
REMARK    5  A    between atoms: C_3  and  N_20
REMARK    6  A    between atoms: C_7  and  C_10
REMARK    7  A    between atoms: C_14  and  N_17
REMARK    8  A    between atoms: C_15  and  C_16
REMARK                            x       y       z     vdW  Elec       q    Type
REMARK                         _______ _______ _______ _____ _____    ______ ____
ROOT
ATOM      1  C   UNL     1       0.816  -2.022  -1.176  0.00  0.00    +0.161 A 
ATOM      2  N   UNL     1       1.429  -2.776  -2.093  0.00  0.00    -0.193 NA
ATOM      3  C   UNL     1       1.230  -4.048  -1.833  0.00  0.00    +0.259 A 
ATOM      4  O   UNL     1       0.473  -4.134  -0.726  0.00  0.00    -0.333 OA
ATOM      5  N   UNL     1       0.222  -2.798  -0.315  0.00  0.00    -0.062 NA
ENDROOT
BRANCH   3   6
ATOM      6  C   UNL     1       1.748  -5.186  -2.622  0.00  0.00    +0.044 A 
ATOM      7  C   UNL     1       2.418  -4.959  -3.825  0.00  0.00    +0.013 A 
ATOM      8  C   UNL     1       2.899  -6.025  -4.556  0.00  0.00    +0.003 A 
ATOM      9  C   UNL     1       2.718  -7.319  -4.098  0.00  0.00    +0.033 A 
ATOM     10  C   UNL     1       2.055  -7.551  -2.907  0.00  0.00    +0.130 A 
ATOM     11  C   UNL     1       1.574  -6.493  -2.163  0.00  0.00    -0.008 A 
ATOM     12  C   UNL     1       0.857  -6.748  -0.863  0.00  0.00    +0.047 C 
BRANCH  10  13
ATOM     13  N   UNL     1       1.865  -8.938  -2.426  0.00  0.00    +0.057 N 
ATOM     14  O   UNL     1       2.391  -9.858  -3.010  0.00  0.00    -0.126 OA
ATOM     15  O   UNL     1       1.185  -9.152  -1.449  0.00  0.00    -0.126 OA
ENDBRANCH  10  13
ENDBRANCH   3   6
BRANCH   1  16
ATOM     16  C   UNL     1       0.818  -0.516  -1.140  0.00  0.00    -0.009 C 
ATOM     17  C   UNL     1       0.076   0.024  -2.364  0.00  0.00    -0.003 C 
BRANCH  16  18
ATOM     18  N   UNL     1       2.203  -0.027  -1.152  0.00  0.00    +0.386 N 
ATOM     19  H   UNL     1       2.692  -0.384  -0.344  0.00  0.00    -0.089 HD
ATOM     20  H   UNL     1       2.664  -0.344  -1.992  0.00  0.00    -0.089 HD
ATOM     21  H   UNL     1       2.204   0.982  -1.128  0.00  0.00    -0.089 HD
ENDBRANCH  16  18
BRANCH  16  23
ATOM     22  C   UNL     1       0.120   1.494   0.170  0.00  0.00    +0.003 C 
ATOM     23  C   UNL     1       0.118  -0.035   0.133  0.00  0.00    -0.009 C 
ENDBRANCH  16  23
ENDBRANCH   1  16
TORSDOF 5
