REMARK  Name = ZINC51751362
REMARK  8 active torsions:
REMARK  status: ('A' for Active; 'I' for Inactive)
REMARK    1  A    between atoms: C_1  and  C_2
REMARK    2  A    between atoms: C_2  and  O_3
REMARK    3  A    between atoms: O_3  and  C_4
REMARK    4  A    between atoms: C_4  and  C_6
REMARK    5  A    between atoms: C_8  and  N_14
REMARK    6  A    between atoms: C_11  and  N_12
REMARK    7  A    between atoms: C_17  and  C_23
REMARK    8  A    between atoms: C_20  and  C_22
REMARK                            x       y       z     vdW  Elec       q    Type
REMARK                         _______ _______ _______ _____ _____    ______ ____
ROOT
ATOM      1  C   UNL     1       1.491  -2.372   2.478  0.00  0.00    +0.081 A 
ATOM      2  C   UNL     1       2.130  -1.523   3.389  0.00  0.00    +0.042 A 
ATOM      3  C   UNL     1       2.793  -2.055   4.478  0.00  0.00    +0.066 A 
ATOM      4  C   UNL     1       2.828  -3.436   4.671  0.00  0.00    +0.146 A 
ATOM      5  C   UNL     1       2.200  -4.282   3.777  0.00  0.00    +0.063 A 
ATOM      6  C   UNL     1       1.524  -3.761   2.682  0.00  0.00    +0.042 A 
ATOM      7  F   UNL     1       3.479  -3.949   5.738  0.00  0.00    -0.203 F 
ENDROOT
BRANCH   3   8
ATOM      8  N   UNL     1       3.433  -1.205   5.390  0.00  0.00    -0.325 N 
ATOM      9  C   UNL     1       4.836  -0.816   5.193  0.00  0.00    +0.106 C 
ATOM     10  C   UNL     1       5.621  -1.139   6.467  0.00  0.00    +0.022 C 
ATOM     11  C   UNL     1       4.944  -0.467   7.664  0.00  0.00    -0.011 C 
ATOM     12  C   UNL     1       3.523  -1.012   7.821  0.00  0.00    +0.025 C 
ATOM     13  C   UNL     1       2.712  -0.682   6.558  0.00  0.00    +0.071 C 
ATOM     14  C   UNL     1       1.333  -1.339   6.646  0.00  0.00    +0.028 C 
ATOM     15  C   UNL     1       5.746  -0.760   8.934  0.00  0.00    +0.007 C 
ENDBRANCH   3   8
BRANCH   6  16
ATOM     16  N   UNL     1       0.887  -4.612   1.786  0.00  0.00    -0.357 N 
ATOM     17  H   UNL     1       0.488  -4.255   0.977  0.00  0.00    +0.142 HD
ATOM     18  H   UNL     1       0.842  -5.564   1.969  0.00  0.00    +0.142 HD
ENDBRANCH   6  16
BRANCH   1  19
ATOM     19  C   UNL     1       0.782  -1.812   1.317  0.00  0.00    +0.341 C 
ATOM     20  O   UNL     1       0.321  -2.553   0.471  0.00  0.00    -0.245 OA
BRANCH  19  21
ATOM     21  O   UNL     1       0.645  -0.477   1.190  0.00  0.00    -0.461 OA
BRANCH  21  23
ATOM     22  C   UNL     1      -0.108   1.526   0.067  0.00  0.00    +0.048 C 
ATOM     23  C   UNL     1      -0.054  -0.003   0.037  0.00  0.00    +0.229 C 
ENDBRANCH  21  23
ENDBRANCH  19  21
ENDBRANCH   1  19
TORSDOF 5
