REMARK  Name = ZINC62189636
REMARK  11 active torsions:
REMARK  status: ('A' for Active; 'I' for Inactive)
REMARK    1  A    between atoms: C_1  and  C_2
REMARK    2  A    between atoms: C_2  and  C_3
REMARK    3  A    between atoms: C_3  and  N_4
REMARK    4  A    between atoms: N_4  and  C_5
REMARK    5  A    between atoms: N_4  and  C_8
REMARK    6  A    between atoms: C_5  and  C_6
REMARK    7  A    between atoms: C_6  and  C_7
REMARK    8  A    between atoms: C_12  and  C_21
REMARK    9  A    between atoms: C_18  and  O_20
REMARK   10  A    between atoms: C_21  and  C_22
REMARK   11  A    between atoms: C_21  and  C_23
REMARK                            x       y       z     vdW  Elec       q    Type
REMARK                         _______ _______ _______ _____ _____    ______ ____
ROOT
ATOM      1  C   UNL     1       1.925  -1.951  -2.268  0.00  0.00    -0.002 C 
ATOM      2  C   UNL     1       2.968  -0.979  -1.777  0.00  0.00    -0.016 A 
ATOM      3  C   UNL     1       2.552   0.218  -1.218  0.00  0.00    +0.009 A 
ATOM      4  C   UNL     1       3.479   1.134  -0.761  0.00  0.00    -0.044 A 
ATOM      5  C   UNL     1       4.831   0.857  -0.861  0.00  0.00    +0.007 A 
ATOM      6  C   UNL     1       5.251  -0.334  -1.416  0.00  0.00    +0.046 A 
ATOM      7  C   UNL     1       4.319  -1.259  -1.876  0.00  0.00    +0.122 A 
ATOM      8  O   UNL     1       4.771  -2.425  -2.406  0.00  0.00    -0.489 OA
ATOM      9  C   UNL     1       3.864  -3.195  -3.198  0.00  0.00    +0.259 C 
ATOM     10  C   UNL     1       2.549  -3.340  -2.422  0.00  0.00    +0.143 C 
ENDROOT
BRANCH   4  11
ATOM     11  C   UNL     1       3.019   2.434  -0.153  0.00  0.00    +0.013 C 
ATOM     12  C   UNL     1       3.524   2.530   1.288  0.00  0.00    +0.012 C 
ATOM     13  C   UNL     1       3.576   3.603  -0.967  0.00  0.00    +0.012 C 
ENDBRANCH   4  11
BRANCH   1  14
ATOM     14  N   UNL     1       0.822  -2.015  -1.300  0.00  0.00    +0.386 N 
ATOM     15  H   UNL     1       0.452  -1.088  -1.151  0.00  0.00    -0.081 HD
BRANCH  14  16
ATOM     16  C   UNL     1      -0.238  -2.888  -1.823  0.00  0.00    -0.078 C 
BRANCH  16  18
ATOM     17  C   UNL     1      -2.670  -3.444  -1.694  0.00  0.00    +0.002 C 
ATOM     18  C   UNL     1      -1.566  -2.535  -1.150  0.00  0.00    -0.022 C 
ENDBRANCH  16  18
ENDBRANCH  14  16
BRANCH  14  19
ATOM     19  C   UNL     1       1.318  -2.555  -0.027  0.00  0.00    -0.078 C 
BRANCH  19  20
ATOM     20  C   UNL     1       2.666  -1.914   0.308  0.00  0.00    -0.022 C 
ATOM     21  C   UNL     1       3.173  -2.462   1.644  0.00  0.00    +0.002 C 
ENDBRANCH  19  20
ENDBRANCH  14  19
ENDBRANCH   1  14
BRANCH  10  22
ATOM     22  O   UNL     1       2.810  -3.897  -1.132  0.00  0.00    -0.390 OA
ATOM     23  H   UNL     1       3.206  -4.778  -1.157  0.00  0.00    +0.210 HD
ENDBRANCH  10  22
TORSDOF 7
