REMARK  Name = ZINC45549101
REMARK  7 active torsions:
REMARK  status: ('A' for Active; 'I' for Inactive)
REMARK    1  A    between atoms: C_1  and  C_2
REMARK    2  A    between atoms: C_2  and  C_4
REMARK    3  A    between atoms: C_2  and  O_22
REMARK    4  A    between atoms: N_6  and  N_7
REMARK    5  A    between atoms: C_8  and  C_10
REMARK    6  A    between atoms: N_13  and  C_15
REMARK    7  A    between atoms: O_22  and  C_23
REMARK                            x       y       z     vdW  Elec       q    Type
REMARK                         _______ _______ _______ _____ _____    ______ ____
ROOT
ATOM      1  N   UNL     1       0.979  -1.133  -3.559  0.00  0.00    -0.229 N 
ATOM      2  C   UNL     1       0.447  -1.095  -4.797  0.00  0.00    +0.284 C 
ATOM      3  O   UNL     1      -0.680  -0.667  -4.962  0.00  0.00    -0.267 OA
ATOM      4  H   UNL     1       1.877  -1.474  -3.428  0.00  0.00    +0.173 HD
ENDROOT
BRANCH   2   5
ATOM      5  C   UNL     1       1.230  -1.572  -5.952  0.00  0.00    +0.195 A 
ATOM      6  C   UNL     1       0.810  -1.590  -7.306  0.00  0.00    +0.229 A 
ATOM      7  C   UNL     1       1.853  -2.108  -8.002  0.00  0.00    +0.166 A 
ATOM      8  N   UNL     1       2.838  -2.382  -7.103  0.00  0.00    -0.235 N 
ATOM      9  N   UNL     1       2.457  -2.058  -5.919  0.00  0.00    -0.158 NA
ATOM     10  O   UNL     1      -0.387  -1.174  -7.802  0.00  0.00    -0.284 OA
BRANCH   8  11
ATOM     11  C   UNL     1       4.086  -2.932  -7.422  0.00  0.00    +0.065 A 
ATOM     12  C   UNL     1       4.396  -3.234  -8.741  0.00  0.00    +0.028 A 
ATOM     13  C   UNL     1       5.628  -3.776  -9.053  0.00  0.00    +0.002 A 
ATOM     14  C   UNL     1       6.552  -4.017  -8.053  0.00  0.00    +0.000 A 
ATOM     15  C   UNL     1       6.246  -3.717  -6.738  0.00  0.00    +0.002 A 
ATOM     16  C   UNL     1       5.018  -3.170  -6.421  0.00  0.00    +0.028 A 
ENDBRANCH   8  11
ENDBRANCH   2   5
BRANCH   1  19
ATOM     17  C   UNL     1       0.767  -0.717  -1.225  0.00  0.00    +0.270 C 
ATOM     18  O   UNL     1       1.890  -1.143  -1.061  0.00  0.00    -0.270 OA
ATOM     19  N   UNL     1       0.234  -0.679  -2.462  0.00  0.00    -0.231 N 
ATOM     20  H   UNL     1      -0.664  -0.338  -2.594  0.00  0.00    +0.173 HD
BRANCH  17  22
ATOM     21  C   UNL     1      -0.288   1.273  -0.187  0.00  0.00    +0.062 C 
ATOM     22  C   UNL     1      -0.034  -0.229  -0.045  0.00  0.00    +0.257 C 
BRANCH  22  23
ATOM     23  O   UNL     1       0.693  -0.477   1.160  0.00  0.00    -0.479 OA
BRANCH  23  24
ATOM     24  C   UNL     1      -0.031  -0.600   2.304  0.00  0.00    +0.136 A 
ATOM     25  C   UNL     1      -1.399  -0.371   2.288  0.00  0.00    +0.048 A 
ATOM     26  C   UNL     1      -2.133  -0.496   3.451  0.00  0.00    +0.023 A 
ATOM     27  C   UNL     1      -1.505  -0.849   4.633  0.00  0.00    +0.042 A 
ATOM     28  C   UNL     1      -0.141  -1.078   4.651  0.00  0.00    +0.039 A 
ATOM     29  C   UNL     1       0.597  -0.959   3.488  0.00  0.00    +0.061 A 
ATOM     30 BR   UNL     1       2.460  -1.279   3.512  0.00  0.00    -0.046 Br
ATOM     31 CL   UNL     1      -2.430  -1.005   6.093  0.00  0.00    -0.084 Cl
ENDBRANCH  23  24
ENDBRANCH  22  23
ENDBRANCH  17  22
ENDBRANCH   1  19
TORSDOF 6
