REMARK  Name = ZINC62985573
REMARK  4 active torsions:
REMARK  status: ('A' for Active; 'I' for Inactive)
REMARK    1  A    between atoms: C_1  and  C_2
REMARK    2  A    between atoms: C_6  and  C_12
REMARK    3  A    between atoms: C_9  and  N_11
REMARK    4  A    between atoms: C_17  and  N_20
REMARK                            x       y       z     vdW  Elec       q    Type
REMARK                         _______ _______ _______ _____ _____    ______ ____
ROOT
ATOM      1  C   UNL     1       1.500  -4.043  -0.031  0.00  0.00    +0.219 C 
ATOM      2  O   UNL     1       1.080  -4.661   0.924  0.00  0.00    -0.275 OA
ATOM      3  N   UNL     1       1.992  -4.704  -1.098  0.00  0.00    -0.300 N 
ATOM      4  C   UNL     1       2.636  -4.086  -2.267  0.00  0.00    +0.109 C 
ATOM      5  C   UNL     1       3.060  -5.228  -3.214  0.00  0.00    +0.039 C 
ATOM      6  C   UNL     1       3.139  -6.454  -2.266  0.00  0.00    +0.076 C 
ATOM      7  C   UNL     1       1.978  -6.166  -1.284  0.00  0.00    +0.126 C 
ENDROOT
BRANCH   1  12
ATOM      8  C   UNL     1       0.171   1.518   0.745  0.00  0.00    +0.006 C 
ATOM      9  C   UNL     1       0.198  -0.011   0.739  0.00  0.00    -0.029 C 
ATOM     10  C   UNL     1       0.170  -0.516  -0.705  0.00  0.00    +0.002 C 
ATOM     11  C   UNL     1       0.197  -2.046  -0.712  0.00  0.00    +0.013 C 
ATOM     12  C   UNL     1       1.474  -2.536  -0.025  0.00  0.00    +0.074 C 
ATOM     13  C   UNL     1       1.502  -2.031   1.419  0.00  0.00    -0.003 C 
ATOM     14  C   UNL     1       1.474  -0.502   1.425  0.00  0.00    -0.072 C 
BRANCH  14  15
ATOM     15  N   UNL     1       1.502  -0.017   2.812  0.00  0.00    +0.380 N 
ATOM     16  H   UNL     1       0.697  -0.370   3.307  0.00  0.00    -0.090 HD
ATOM     17  H   UNL     1       2.344  -0.340   3.265  0.00  0.00    -0.090 HD
ATOM     18  H   UNL     1       1.484   0.992   2.816  0.00  0.00    -0.090 HD
ENDBRANCH  14  15
ENDBRANCH   1  12
BRANCH   6  19
ATOM     19  N   UNL     1       2.912  -7.705  -3.002  0.00  0.00    -0.294 NA
ATOM     20  C   UNL     1       3.938  -7.902  -4.035  0.00  0.00    +0.113 C 
ATOM     21  C   UNL     1       3.631  -9.182  -4.816  0.00  0.00    +0.175 C 
ATOM     22  O   UNL     1       3.560 -10.283  -3.906  0.00  0.00    -0.377 OA
ATOM     23  C   UNL     1       2.569 -10.125  -2.887  0.00  0.00    +0.175 C 
ATOM     24  C   UNL     1       2.867  -8.854  -2.087  0.00  0.00    +0.113 C 
ENDBRANCH   6  19
TORSDOF 3
