REMARK  Name = ZINC38031330
REMARK  7 active torsions:
REMARK  status: ('A' for Active; 'I' for Inactive)
REMARK    1  A    between atoms: C_1  and  N_2
REMARK    2  A    between atoms: N_2  and  C_3
REMARK    3  A    between atoms: N_2  and  C_13
REMARK    4  A    between atoms: C_3  and  C_4
REMARK    5  A    between atoms: N_9  and  C_10
REMARK    6  A    between atoms: C_10  and  C_11
REMARK    7  A    between atoms: C_13  and  C_14
REMARK                            x       y       z     vdW  Elec       q    Type
REMARK                         _______ _______ _______ _____ _____    ______ ____
ROOT
ATOM      1  C   UNL     1      -0.018   1.465   0.010  0.00  0.00    -0.095 C 
ATOM      2  N   UNL     1       0.002  -0.004   0.002  0.00  0.00    +0.389 N 
ATOM      3  H   UNL     1       0.474  -0.330  -0.828  0.00  0.00    -0.081 HD
ENDROOT
BRANCH   2   4
ATOM      4  C   UNL     1      -1.376  -0.512   0.012  0.00  0.00    +0.019 C 
BRANCH   4   5
ATOM      5  C   UNL     1      -2.067  -0.116  -1.267  0.00  0.00    +0.204 C 
ATOM      6  O   UNL     1      -1.471   0.526  -2.104  0.00  0.00    -0.277 OA
ATOM      7  N   UNL     1      -3.349  -0.476  -1.480  0.00  0.00    -0.242 N 
ATOM      8  C   UNL     1      -3.967  -0.121  -2.623  0.00  0.00    +0.306 C 
ATOM      9  O   UNL     1      -3.369   0.523  -3.463  0.00  0.00    -0.252 OA
ATOM     10  N   UNL     1      -5.248  -0.481  -2.836  0.00  0.00    -0.296 N 
ATOM     11  H   UNL     1      -3.826  -0.990  -0.809  0.00  0.00    +0.159 HD
ATOM     12  H   UNL     1      -5.726  -0.995  -2.166  0.00  0.00    +0.151 HD
BRANCH  10  13
ATOM     13  C   UNL     1      -5.920  -0.096  -4.080  0.00  0.00    +0.132 C 
BRANCH  13  14
ATOM     14  C   UNL     1      -7.334  -0.618  -4.069  0.00  0.00    -0.016 C 
ATOM     15  C   UNL     1      -8.337   0.205  -4.252  0.00  0.00    +0.005 C 
ENDBRANCH  13  14
ENDBRANCH  10  13
ENDBRANCH   4   5
ENDBRANCH   2   4
BRANCH   2  16
ATOM     16  C   UNL     1       0.713  -0.491   1.192  0.00  0.00    +0.019 C 
BRANCH  16  17
ATOM     17  C   UNL     1       2.158  -0.072   1.120  0.00  0.00    +0.199 C 
ATOM     18  O   UNL     1       2.558   0.569   0.171  0.00  0.00    -0.278 OA
ATOM     19  N   UNL     1       3.008  -0.409   2.111  0.00  0.00    -0.301 N 
ATOM     20  C   UNL     1       2.546  -1.191   3.268  0.00  0.00    +0.123 C 
ATOM     21  C   UNL     1       2.977  -0.468   4.548  0.00  0.00    +0.100 C 
ATOM     22  N   UNL     1       4.425  -0.221   4.503  0.00  0.00    -0.313 NA
ATOM     23  C   UNL     1       4.779   0.671   3.391  0.00  0.00    +0.100 C 
ATOM     24  C   UNL     1       4.423  -0.011   2.060  0.00  0.00    +0.123 C 
ATOM     25  H   UNL     1       4.756   0.147   5.382  0.00  0.00    +0.122 HD
ENDBRANCH  16  17
ENDBRANCH   2  16
TORSDOF 6
