REMARK  Name = ZINC39690926
REMARK  8 active torsions:
REMARK  status: ('A' for Active; 'I' for Inactive)
REMARK    1  A    between atoms: C_1  and  C_2
REMARK    2  A    between atoms: C_2  and  C_4
REMARK    3  A    between atoms: C_4  and  N_5
REMARK    4  A    between atoms: C_6  and  C_8
REMARK    5  A    between atoms: C_19  and  C_21
REMARK    6  A    between atoms: C_25  and  N_27
REMARK    7  A    between atoms: N_27  and  C_28
REMARK    8  A    between atoms: N_27  and  C_29
REMARK                            x       y       z     vdW  Elec       q    Type
REMARK                         _______ _______ _______ _____ _____    ______ ____
ROOT
ATOM      1  C   UNL     1      -2.683  -2.263  -3.189  0.00  0.00    +0.100 C 
ATOM      2  C   UNL     1      -3.751  -2.950  -2.309  0.00  0.00    +0.121 C 
ATOM      3  N   UNL     1      -4.624  -3.666  -3.269  0.00  0.00    -0.296 N 
ATOM      4  C   UNL     1      -3.689  -4.210  -4.282  0.00  0.00    +0.115 C 
ATOM      5  C   UNL     1      -2.645  -3.093  -4.483  0.00  0.00    -0.004 C 
ATOM      6  C   UNL     1      -1.258  -3.698  -4.682  0.00  0.00    -0.010 C 
ATOM      7  C   UNL     1      -1.228  -4.470  -6.004  0.00  0.00    -0.082 C 
ATOM      8  N   UNL     1      -1.551  -3.562  -7.111  0.00  0.00    +0.379 N 
ATOM      9  C   UNL     1      -2.921  -3.057  -6.961  0.00  0.00    -0.082 C 
ATOM     10  C   UNL     1      -3.023  -2.225  -5.679  0.00  0.00    -0.010 C 
ATOM     11  C   UNL     1      -5.965  -3.793  -3.229  0.00  0.00    +0.247 C 
ATOM     12  O   UNL     1      -6.610  -3.179  -2.402  0.00  0.00    -0.270 OA
ATOM     13  H   UNL     1      -0.906  -2.786  -7.107  0.00  0.00    -0.086 HD
ATOM     14  H   UNL     1      -1.471  -4.058  -7.986  0.00  0.00    -0.086 HD
ENDROOT
BRANCH  11  15
ATOM     15  C   UNL     1      -6.652  -4.681  -4.193  0.00  0.00    +0.039 A 
ATOM     16  C   UNL     1      -5.941  -5.688  -4.847  0.00  0.00    +0.013 A 
ATOM     17  C   UNL     1      -6.584  -6.515  -5.745  0.00  0.00    +0.003 A 
ATOM     18  C   UNL     1      -7.932  -6.349  -6.002  0.00  0.00    +0.023 A 
ATOM     19  C   UNL     1      -8.649  -5.349  -5.356  0.00  0.00    +0.030 A 
ATOM     20  C   UNL     1      -8.014  -4.517  -4.446  0.00  0.00    +0.036 A 
BRANCH  19  21
ATOM     21  N   UNL     1     -10.012  -5.185  -5.619  0.00  0.00    -0.336 N 
ATOM     22  C   UNL     1     -10.653  -5.971  -6.676  0.00  0.00    +0.129 C 
ATOM     23  C   UNL     1     -10.799  -4.228  -4.837  0.00  0.00    +0.129 C 
ENDBRANCH  19  21
ENDBRANCH  11  15
BRANCH   1  25
ATOM     24  N   UNL     1      -0.392  -1.398  -2.842  0.00  0.00    -0.311 N 
ATOM     25  C   UNL     1      -1.341  -2.294  -2.506  0.00  0.00    +0.218 C 
ATOM     26  O   UNL     1      -1.113  -3.126  -1.653  0.00  0.00    -0.275 OA
ATOM     27  H   UNL     1      -0.574  -0.733  -3.524  0.00  0.00    +0.149 HD
BRANCH  24  28
ATOM     28  C   UNL     1       0.913  -1.428  -2.178  0.00  0.00    +0.134 C 
BRANCH  28  30
ATOM     29  C   UNL     1       2.581  -0.563  -3.990  0.00  0.00    +0.040 C 
ATOM     30  C   UNL     1       1.784  -0.330  -2.732  0.00  0.00    -0.063 C 
ATOM     31  C   UNL     1       1.849   0.826  -2.119  0.00  0.00    +0.009 C 
ENDBRANCH  28  30
ENDBRANCH  24  28
ENDBRANCH   1  25
TORSDOF 5
