REMARK  Name = ZINC49611127
REMARK  7 active torsions:
REMARK  status: ('A' for Active; 'I' for Inactive)
REMARK    1  A    between atoms: C_4  and  O_10
REMARK    2  A    between atoms: C_5  and  N_7
REMARK    3  A    between atoms: O_10  and  C_11
REMARK    4  A    between atoms: C_11  and  C_12
REMARK    5  A    between atoms: C_15  and  C_18
REMARK    6  A    between atoms: C_19  and  C_20
REMARK    7  A    between atoms: C_20  and  N_21
REMARK                            x       y       z     vdW  Elec       q    Type
REMARK                         _______ _______ _______ _____ _____    ______ ____
ROOT
ATOM      1  C   UNL     1       5.981  -0.737  -0.062  0.00  0.00    -0.010 A 
ATOM      2  C   UNL     1       6.542  -1.159   1.129  0.00  0.00    +0.008 A 
ATOM      3  C   UNL     1       7.648  -1.984   1.121  0.00  0.00    +0.017 A 
ATOM      4  C   UNL     1       8.200  -2.392  -0.094  0.00  0.00    +0.025 A 
ATOM      5  C   UNL     1       7.630  -1.962  -1.293  0.00  0.00    +0.017 A 
ATOM      6  C   UNL     1       6.521  -1.142  -1.270  0.00  0.00    +0.008 A 
ENDROOT
BRANCH   4   7
ATOM      7  C   UNL     1       9.348  -3.248  -0.111  0.00  0.00    -0.068 C 
ATOM      8  C   UNL     1      10.290  -3.949  -0.124  0.00  0.00    -0.117 C 
BRANCH   8   9
ATOM      9  C   UNL     1      11.470  -4.829  -0.141  0.00  0.00    +0.005 C 
BRANCH   9  10
ATOM     10  N   UNL     1      11.852  -5.109  -1.531  0.00  0.00    +0.385 N 
ATOM     11  H   UNL     1      11.086  -5.564  -2.005  0.00  0.00    -0.089 HD
ATOM     12  H   UNL     1      12.071  -4.243  -2.001  0.00  0.00    -0.089 HD
ATOM     13  H   UNL     1      12.661  -5.712  -1.543  0.00  0.00    -0.089 HD
ENDBRANCH   9  10
ENDBRANCH   8   9
ENDBRANCH   4   7
BRANCH   1  14
ATOM     14  C   UNL     1       4.772   0.164  -0.045  0.00  0.00    +0.264 C 
BRANCH  14  15
ATOM     15  O   UNL     1       3.586  -0.632  -0.037  0.00  0.00    -0.485 OA
BRANCH  15  19
ATOM     16  C   UNL     1      -0.017   1.378   0.010  0.00  0.00    +0.002 A 
ATOM     17  C   UNL     1       1.170   2.088   0.002  0.00  0.00    +0.004 A 
ATOM     18  C   UNL     1       2.377   1.417  -0.013  0.00  0.00    +0.048 A 
ATOM     19  C   UNL     1       2.399   0.030  -0.021  0.00  0.00    +0.151 A 
ATOM     20  C   UNL     1       1.207  -0.680  -0.013  0.00  0.00    +0.168 A 
ATOM     21  C   UNL     1       0.002  -0.004   0.002  0.00  0.00    +0.036 A 
BRANCH  20  22
ATOM     22  N   UNL     1       1.226  -2.160  -0.022  0.00  0.00    +0.060 N 
ATOM     23  O   UNL     1       0.188  -2.778  -0.015  0.00  0.00    -0.126 OA
ATOM     24  O   UNL     1       2.281  -2.750  -0.036  0.00  0.00    -0.126 OA
ENDBRANCH  20  22
ENDBRANCH  15  19
ENDBRANCH  14  15
ENDBRANCH   1  14
TORSDOF 7
