REMARK  Name = ZINC63217189
REMARK  4 active torsions:
REMARK  status: ('A' for Active; 'I' for Inactive)
REMARK    1  A    between atoms: C_6  and  N_10
REMARK    2  A    between atoms: C_11  and  C_13
REMARK    3  A    between atoms: C_15  and  O_29
REMARK    4  A    between atoms: N_23  and  C_26
REMARK                            x       y       z     vdW  Elec       q    Type
REMARK                         _______ _______ _______ _____ _____    ______ ____
ROOT
ATOM      1  C   UNL     1       3.827  -4.667  -2.450  0.00  0.00    +0.225 C 
ATOM      2  C   UNL     1       3.843  -6.183  -2.479  0.00  0.00    +0.116 C 
ATOM      3  C   UNL     1       2.678  -6.790  -2.721  0.00  0.00    -0.011 C 
ATOM      4  C   UNL     1       2.661  -8.285  -2.840  0.00  0.00    +0.036 C 
ATOM      5  C   UNL     1       1.225  -8.810  -2.803  0.00  0.00    +0.005 C 
ATOM      6  C   UNL     1       0.408  -8.000  -3.820  0.00  0.00    +0.002 C 
ATOM      7  C   UNL     1       0.190  -6.603  -3.246  0.00  0.00    +0.027 C 
ATOM      8  C   UNL     1       1.484  -5.913  -2.910  0.00  0.00    +0.106 C 
ATOM      9  N   UNL     1       1.811  -4.829  -3.842  0.00  0.00    -0.291 N 
ATOM     10  C   UNL     1       2.997  -4.187  -3.626  0.00  0.00    +0.236 C 
ATOM     11  O   UNL     1       3.369  -3.278  -4.338  0.00  0.00    -0.274 OA
ENDROOT
BRANCH   1  13
ATOM     12  N   UNL     1       3.078  -2.868  -0.926  0.00  0.00    -0.277 N 
ATOM     13  C   UNL     1       3.210  -4.189  -1.161  0.00  0.00    +0.235 C 
ATOM     14  O   UNL     1       2.832  -4.992  -0.335  0.00  0.00    -0.274 OA
ATOM     15  H   UNL     1       3.381  -2.225  -1.587  0.00  0.00    +0.152 HD
BRANCH  12  21
ATOM     16  C   UNL     1      -1.089   0.484   0.590  0.00  0.00    +0.002 A 
ATOM     17  C   UNL     1      -0.047   1.415   0.743  0.00  0.00    +0.002 A 
ATOM     18  C   UNL     1       1.253   1.059   0.737  0.00  0.00    +0.027 A 
ATOM     19  C   UNL     1       1.616  -0.354   0.565  0.00  0.00    +0.061 A 
ATOM     20  N   UNL     1       2.760  -0.975   0.520  0.00  0.00    -0.348 N 
ATOM     21  C   UNL     1       2.479  -2.403   0.327  0.00  0.00    +0.269 C 
ATOM     22  N   UNL     1       1.018  -2.533   0.265  0.00  0.00    -0.348 N 
ATOM     23  C   UNL     1       0.513  -1.341   0.404  0.00  0.00    +0.061 A 
ATOM     24  C   UNL     1      -0.867  -0.836   0.426  0.00  0.00    +0.027 A 
ATOM     25  H   UNL     1       3.637  -0.568   0.600  0.00  0.00    +0.163 HD
ATOM     26  H   UNL     1       0.519  -3.356   0.142  0.00  0.00    +0.163 HD
ENDBRANCH  12  21
ENDBRANCH   1  13
BRANCH   9  27
ATOM     27  C   UNL     1       0.918  -4.457  -4.942  0.00  0.00    +0.077 C 
ATOM     28  C   UNL     1       1.493  -3.574  -6.051  0.00  0.00    +0.024 C 
ATOM     29  C   UNL     1       0.499  -2.989  -5.046  0.00  0.00    +0.024 C 
ENDBRANCH   9  27
BRANCH   2  30
ATOM     30  O   UNL     1       4.984  -6.887  -2.272  0.00  0.00    -0.510 OA
ATOM     31  H   UNL     1       5.762  -6.337  -2.108  0.00  0.00    +0.292 HD
ENDBRANCH   2  30
TORSDOF 4
