REMARK  Name = ZINC40400485
REMARK  10 active torsions:
REMARK  status: ('A' for Active; 'I' for Inactive)
REMARK    1  A    between atoms: C_1  and  C_2
REMARK    2  A    between atoms: C_2  and  N_3
REMARK    3  A    between atoms: N_3  and  C_4
REMARK    4  A    between atoms: C_4  and  C_5
REMARK    5  A    between atoms: C_6  and  C_8
REMARK    6  A    between atoms: C_9  and  C_32
REMARK    7  A    between atoms: C_13  and  C_15
REMARK    8  A    between atoms: C_22  and  C_25
REMARK    9  A    between atoms: C_26  and  N_28
REMARK   10  A    between atoms: N_28  and  C_29
REMARK                            x       y       z     vdW  Elec       q    Type
REMARK                         _______ _______ _______ _____ _____    ______ ____
ROOT
ATOM      1  C   UNL     1      -1.893  -0.588  -2.220  0.00  0.00    +0.061 C 
ATOM      2  C   UNL     1      -2.948  -0.721  -3.101  0.00  0.00    +0.051 C 
ATOM      3  N   UNL     1      -4.197  -0.652  -2.668  0.00  0.00    -0.230 NA
ATOM      4  C   UNL     1      -4.547  -0.458  -1.413  0.00  0.00    +0.166 C 
ATOM      5  N   UNL     1      -3.656  -0.303  -0.388  0.00  0.00    -0.267 N 
ATOM      6  C   UNL     1      -2.217  -0.369  -0.760  0.00  0.00    +0.149 C 
ATOM      7  C   UNL     1      -4.181  -0.109   0.874  0.00  0.00    +0.048 C 
ATOM      8  C   UNL     1      -5.526  -0.088   0.998  0.00  0.00    +0.072 C 
ATOM      9  S   UNL     1      -6.055  -0.343  -0.685  0.00  0.00    -0.060 S 
ATOM     10  C   UNL     1      -2.675  -0.947  -4.566  0.00  0.00    +0.066 C 
ENDROOT
BRANCH   6  11
ATOM     11  C   UNL     1      -1.572   0.923  -0.330  0.00  0.00    -0.004 A 
ATOM     12  C   UNL     1      -2.278   2.109  -0.411  0.00  0.00    +0.007 A 
ATOM     13  C   UNL     1      -1.686   3.294  -0.017  0.00  0.00    +0.000 A 
ATOM     14  C   UNL     1      -0.388   3.294   0.459  0.00  0.00    +0.001 A 
ATOM     15  C   UNL     1       0.319   2.110   0.541  0.00  0.00    +0.020 A 
ATOM     16  C   UNL     1      -0.275   0.922   0.152  0.00  0.00    +0.046 A 
ATOM     17 CL   UNL     1       0.609  -0.568   0.261  0.00  0.00    -0.083 Cl
ENDBRANCH   6  11
BRANCH   1  19
ATOM     18  N   UNL     1       0.004  -1.859  -2.900  0.00  0.00    -0.298 N 
ATOM     19  C   UNL     1      -0.565  -0.660  -2.665  0.00  0.00    +0.246 C 
ATOM     20  O   UNL     1       0.076   0.363  -2.839  0.00  0.00    -0.270 OA
BRANCH  18  22
ATOM     21  C   UNL     1      -0.785  -3.586  -1.357  0.00  0.00    +0.024 C 
ATOM     22  C   UNL     1      -0.798  -3.082  -2.802  0.00  0.00    +0.104 C 
ENDBRANCH  18  22
BRANCH  18  23
ATOM     23  C   UNL     1       1.423  -1.940  -3.253  0.00  0.00    +0.104 C 
ATOM     24  C   UNL     1       1.576  -1.857  -4.773  0.00  0.00    +0.024 C 
ENDBRANCH  18  23
ENDBRANCH   1  19
BRANCH   7  25
ATOM     25  C   UNL     1      -3.307   0.067   2.043  0.00  0.00    +0.091 C 
ATOM     26  C   UNL     1      -3.836   0.104   3.281  0.00  0.00    +0.239 C 
ATOM     27  O   UNL     1      -5.153  -0.162   3.463  0.00  0.00    -0.271 OA
BRANCH  26  28
ATOM     28  N   UNL     1      -3.036   0.414   4.367  0.00  0.00    -0.309 N 
ATOM     29  H   UNL     1      -2.112   0.676   4.230  0.00  0.00    +0.149 HD
BRANCH  28  30
ATOM     30  C   UNL     1      -3.584   0.345   5.724  0.00  0.00    +0.073 C 
ATOM     31  C   UNL     1      -3.334   1.539   6.648  0.00  0.00    +0.024 C 
ATOM     32  C   UNL     1      -2.592   0.221   6.882  0.00  0.00    +0.024 C 
ENDBRANCH  28  30
ENDBRANCH  26  28
ENDBRANCH   7  25
TORSDOF 7
