REMARK  Name = ZINC02927507
REMARK  7 active torsions:
REMARK  status: ('A' for Active; 'I' for Inactive)
REMARK    1  A    between atoms: C_1  and  C_2
REMARK    2  A    between atoms: C_2  and  C_3
REMARK    3  A    between atoms: C_3  and  C_5
REMARK    4  A    between atoms: C_3  and  S_12
REMARK    5  A    between atoms: S_12  and  C_13
REMARK    6  A    between atoms: C_17  and  C_21
REMARK    7  A    between atoms: N_24  and  C_25
REMARK                            x       y       z     vdW  Elec       q    Type
REMARK                         _______ _______ _______ _____ _____    ______ ____
ROOT
ATOM      1  C   UNL     1      -3.027   1.260  -1.151  0.00  0.00    +0.178 A 
ATOM      2  N   UNL     1      -4.200   0.680  -1.227  0.00  0.00    -0.201 NA
ATOM      3  C   UNL     1      -4.889   0.306  -0.138  0.00  0.00    +0.187 A 
ATOM      4  C   UNL     1      -4.350   0.536   1.135  0.00  0.00    +0.082 A 
ATOM      5  C   UNL     1      -5.275   0.049   2.076  0.00  0.00    +0.046 A 
ATOM      6  N   UNL     1      -6.299  -0.440   1.431  0.00  0.00    -0.279 N 
ATOM      7  N   UNL     1      -6.093  -0.297   0.053  0.00  0.00    -0.153 NA
ATOM      8  H   UNL     1      -7.142  -0.875   1.987  0.00  0.00    +0.189 HD
ATOM      9  C   UNL     1      -5.114   0.092   3.574  0.00  0.00    +0.066 C 
ATOM     10  C   UNL     1      -3.036   1.185   1.229  0.00  0.00    +0.124 A 
ATOM     11  N   UNL     1      -2.477   1.429   2.389  0.00  0.00    -0.384 N 
ATOM     12  N   UNL     1      -2.411   1.530   0.041  0.00  0.00    -0.273 N 
ATOM     13  H   UNL     1      -1.492   1.916   2.434  0.00  0.00    +0.157 HD
ATOM     14  H   UNL     1      -2.993   1.147   3.319  0.00  0.00    +0.157 HD
ENDROOT
BRANCH  12  15
ATOM     15  C   UNL     1      -1.156   2.152   0.060  0.00  0.00    +0.069 A 
ATOM     16  C   UNL     1      -1.066   3.537   0.106  0.00  0.00    +0.028 A 
ATOM     17  C   UNL     1       0.173   4.147   0.120  0.00  0.00    +0.002 A 
ATOM     18  C   UNL     1       1.324   3.380   0.092  0.00  0.00    +0.002 A 
ATOM     19  C   UNL     1       1.239   2.001   0.051  0.00  0.00    +0.022 A 
ATOM     20  C   UNL     1       0.002   1.384   0.038  0.00  0.00    +0.065 A 
ATOM     21 CL   UNL     1      -0.105  -0.348  -0.014  0.00  0.00    -0.081 Cl
ENDBRANCH  12  15
BRANCH   1  22
ATOM     22  S   UNL     1      -2.208   1.709  -2.645  0.00  0.00    -0.075 S 
BRANCH  22  23
ATOM     23  C   UNL     1      -3.361   1.016  -3.856  0.00  0.00    +0.140 C 
BRANCH  23  24
ATOM     24  C   UNL     1      -4.644   1.806  -3.838  0.00  0.00    +0.229 C 
ATOM     25  O   UNL     1      -4.641   2.959  -3.463  0.00  0.00    -0.274 OA
ATOM     26  N   UNL     1      -5.795   1.231  -4.240  0.00  0.00    -0.301 N 
ATOM     27  C   UNL     1      -5.941  -0.150  -4.722  0.00  0.00    +0.108 C 
ATOM     28  C   UNL     1      -7.426  -0.353  -5.089  0.00  0.00    +0.020 C 
ATOM     29  C   UNL     1      -7.922   1.096  -5.335  0.00  0.00    +0.020 C 
ATOM     30  C   UNL     1      -7.116   1.885  -4.274  0.00  0.00    +0.108 C 
ENDBRANCH  23  24
BRANCH  23  32
ATOM     31  C   UNL     1      -1.513   0.171  -5.309  0.00  0.00    +0.005 C 
ATOM     32  C   UNL     1      -2.738   1.085  -5.251  0.00  0.00    +0.020 C 
ENDBRANCH  23  32
ENDBRANCH  22  23
ENDBRANCH   1  22
TORSDOF 5
