REMARK  Name = ZINC15708319
REMARK  7 active torsions:
REMARK  status: ('A' for Active; 'I' for Inactive)
REMARK    1  A    between atoms: C_1  and  S_2
REMARK    2  A    between atoms: S_2  and  N_5
REMARK    3  A    between atoms: N_5  and  C_6
REMARK    4  A    between atoms: C_15  and  C_18
REMARK    5  A    between atoms: C_18  and  C_19
REMARK    6  A    between atoms: C_19  and  C_20
REMARK    7  A    between atoms: N_22  and  C_23
REMARK                            x       y       z     vdW  Elec       q    Type
REMARK                         _______ _______ _______ _____ _____    ______ ____
ROOT
ATOM      1  C   UNL     1      -0.590   1.801  -1.178  0.00  0.00    +0.059 C 
ATOM      2  C   UNL     1       0.157   1.232   0.058  0.00  0.00    +0.012 C 
ATOM      3  C   UNL     1      -0.698   1.675   1.245  0.00  0.00    +0.021 C 
ATOM      4  C   UNL     1       0.041   1.996   2.498  0.00  0.00    +0.200 C 
ATOM      5  O   UNL     1       1.050   1.389   2.787  0.00  0.00    -0.278 OA
ATOM      6  N   UNL     1      -0.427   2.968   3.305  0.00  0.00    -0.318 N 
ATOM      7  C   UNL     1      -1.554   3.835   2.989  0.00  0.00    +0.089 C 
ATOM      8  C   UNL     1      -2.315   3.364   1.742  0.00  0.00    -0.050 C 
ATOM      9  C   UNL     1      -1.784   2.602  -0.589  0.00  0.00    -0.057 C 
ATOM     10  H   UNL     1       0.019   3.099   4.157  0.00  0.00    +0.149 HD
ATOM     11  N   UNL     1      -1.270   2.901   0.758  0.00  0.00    +0.391 N 
ATOM     12  H   UNL     1      -0.547   3.627   0.685  0.00  0.00    -0.080 HD
ENDROOT
BRANCH   1  13
ATOM     13  N   UNL     1       0.292   2.686  -1.944  0.00  0.00    -0.194 NA
ATOM     14  H   UNL     1       0.942   3.239  -1.483  0.00  0.00    +0.148 HD
BRANCH  13  16
ATOM     15  C   UNL     1      -1.470   3.421  -3.926  0.00  0.00    +0.214 C 
ATOM     16  S   UNL     1       0.179   2.741  -3.595  0.00  0.00    +0.027 S 
ATOM     17  O   UNL     1       1.179   3.667  -3.996  0.00  0.00    -0.158 OA
ATOM     18  O   UNL     1       0.240   1.383  -4.008  0.00  0.00    -0.158 OA
ENDBRANCH  13  16
ENDBRANCH   1  13
BRANCH   8  19
ATOM     19  C   UNL     1      -3.146   4.516   1.174  0.00  0.00    -0.005 C 
BRANCH  19  20
ATOM     20  C   UNL     1      -4.269   4.867   2.152  0.00  0.00    +0.094 C 
BRANCH  20  21
ATOM     21  C   UNL     1      -5.159   5.917   1.540  0.00  0.00    +0.213 C 
ATOM     22  O   UNL     1      -4.920   6.343   0.430  0.00  0.00    -0.276 OA
ATOM     23  N   UNL     1      -6.222   6.383   2.226  0.00  0.00    -0.312 N 
ATOM     24  H   UNL     1      -6.413   6.042   3.114  0.00  0.00    +0.149 HD
BRANCH  23  25
ATOM     25  C   UNL     1      -7.088   7.404   1.631  0.00  0.00    +0.073 C 
ATOM     26  C   UNL     1      -7.529   8.564   2.525  0.00  0.00    +0.024 C 
ATOM     27  C   UNL     1      -8.533   7.481   2.127  0.00  0.00    +0.024 C 
ENDBRANCH  23  25
ENDBRANCH  20  21
ENDBRANCH  19  20
ENDBRANCH   8  19
TORSDOF 6
