REMARK  Name = ZINC00104187
REMARK  5 active torsions:
REMARK  status: ('A' for Active; 'I' for Inactive)
REMARK    1  A    between atoms: C_4  and  C_7
REMARK    2  A    between atoms: C_8  and  C_9
REMARK    3  A    between atoms: C_8  and  C_11
REMARK    4  A    between atoms: N_13  and  C_14
REMARK    5  A    between atoms: C_15  and  C_22
REMARK                            x       y       z     vdW  Elec       q    Type
REMARK                         _______ _______ _______ _____ _____    ______ ____
ROOT
ATOM      1  C   UNL     1       5.003  -2.754   0.152  0.00  0.00    +0.259 C 
ATOM      2  O   UNL     1       6.044  -2.125   0.144  0.00  0.00    -0.269 OA
ATOM      3  N   UNL     1       5.029  -4.098   0.246  0.00  0.00    -0.275 N 
ATOM      4  H   UNL     1       4.199  -4.601   0.252  0.00  0.00    +0.156 HD
ENDROOT
BRANCH   3   5
ATOM      5  C   UNL     1       6.242  -4.763   0.334  0.00  0.00    +0.085 A 
ATOM      6  C   UNL     1       6.459  -6.125   0.431  0.00  0.00    +0.068 A 
ATOM      7  C   UNL     1       7.847  -6.578   0.512  0.00  0.00    -0.023 A 
ATOM      8  C   UNL     1       8.751  -5.582   0.482  0.00  0.00    -0.004 A 
ATOM      9  S   UNL     1       7.782  -4.102   0.341  0.00  0.00    -0.077 S 
ATOM     10  C   UNL     1      10.161  -6.101   0.573  0.00  0.00    +0.043 C 
ATOM     11  C   UNL     1      10.011  -7.547   1.097  0.00  0.00    +0.010 C 
ATOM     12  C   UNL     1       8.589  -7.908   0.622  0.00  0.00    +0.037 C 
BRANCH   6  13
ATOM     13  C   UNL     1       5.344  -7.077   0.451  0.00  0.00    +0.244 C 
ATOM     14  O   UNL     1       4.920  -7.541  -0.591  0.00  0.00    -0.270 OA
ATOM     15  N   UNL     1       4.788  -7.439   1.625  0.00  0.00    -0.325 N 
ATOM     16  H   UNL     1       5.126  -7.069   2.456  0.00  0.00    +0.145 HD
ATOM     17  H   UNL     1       4.051  -8.068   1.639  0.00  0.00    +0.145 HD
ENDBRANCH   6  13
ENDBRANCH   3   5
BRANCH   1  19
ATOM     18  C   UNL     1       3.689  -0.676  -0.038  0.00  0.00    +0.032 C 
ATOM     19  C   UNL     1       3.715  -2.048   0.058  0.00  0.00    +0.114 C 
BRANCH  18  23
ATOM     20  C   UNL     1       0.030   1.325  -0.794  0.00  0.00    +0.000 A 
ATOM     21  C   UNL     1       0.983   1.916   0.018  0.00  0.00    +0.001 A 
ATOM     22  C   UNL     1       2.175   1.273   0.269  0.00  0.00    +0.008 A 
ATOM     23  C   UNL     1       2.422   0.017  -0.300  0.00  0.00    -0.024 A 
ATOM     24  C   UNL     1       1.452  -0.574  -1.120  0.00  0.00    +0.008 A 
ATOM     25  C   UNL     1       0.266   0.084  -1.361  0.00  0.00    +0.001 A 
ENDBRANCH  18  23
BRANCH  19  26
ATOM     26  C   UNL     1       2.490  -2.789   0.067  0.00  0.00    +0.104 C 
ATOM     27  N   UNL     1       1.518  -3.377   0.074  0.00  0.00    -0.191 NA
ENDBRANCH  19  26
ENDBRANCH   1  19
TORSDOF 5
