REMARK  Name = ZINC50864500
REMARK  7 active torsions:
REMARK  status: ('A' for Active; 'I' for Inactive)
REMARK    1  A    between atoms: C_1  and  C_2
REMARK    2  A    between atoms: C_4  and  N_18
REMARK    3  A    between atoms: C_6  and  C_8
REMARK    4  A    between atoms: C_10  and  O_16
REMARK    5  A    between atoms: C_11  and  O_15
REMARK    6  A    between atoms: O_16  and  C_17
REMARK    7  A    between atoms: N_18  and  C_19
REMARK                            x       y       z     vdW  Elec       q    Type
REMARK                         _______ _______ _______ _____ _____    ______ ____
ROOT
ATOM      1  C   UNL     1      -0.018   1.503   0.010  0.00  0.00    +0.063 C 
ATOM      2  C   UNL     1       0.002  -0.004   0.002  0.00  0.00    +0.018 A 
ATOM      3  C   UNL     1       0.006  -0.696  -1.194  0.00  0.00    +0.064 A 
ATOM      4  C   UNL     1       0.026  -2.092  -1.157  0.00  0.00    +0.122 A 
ATOM      5  N   UNL     1       0.040  -2.706   0.021  0.00  0.00    -0.215 NA
ATOM      6  C   UNL     1       0.035  -2.005   1.147  0.00  0.00    +0.141 A 
ATOM      7  N   UNL     1       0.022  -0.679   1.141  0.00  0.00    -0.343 N 
ATOM      8  H   UNL     1       0.024  -0.197   1.982  0.00  0.00    +0.167 HD
ENDROOT
BRANCH   6   9
ATOM      9  C   UNL     1       0.051  -2.722   2.444  0.00  0.00    +0.022 A 
ATOM     10  C   UNL     1       0.076  -4.116   2.471  0.00  0.00    +0.061 A 
ATOM     11  C   UNL     1       0.091  -4.782   3.683  0.00  0.00    +0.163 A 
ATOM     12  C   UNL     1       0.082  -4.059   4.874  0.00  0.00    +0.173 A 
ATOM     13  C   UNL     1       0.057  -2.672   4.846  0.00  0.00    +0.064 A 
ATOM     14  C   UNL     1       0.047  -2.004   3.639  0.00  0.00    +0.030 A 
ATOM     15 BR   UNL     1       0.044  -1.696   6.466  0.00  0.00    -0.046 Br
BRANCH  12  16
ATOM     16  O   UNL     1       0.096  -4.714   6.065  0.00  0.00    -0.503 OA
ATOM     17  H   UNL     1       0.983  -4.888   6.408  0.00  0.00    +0.292 HD
ENDBRANCH  12  16
BRANCH  11  18
ATOM     18  O   UNL     1       0.115  -6.141   3.713  0.00  0.00    -0.491 OA
ATOM     19  C   UNL     1       0.123  -6.817   2.454  0.00  0.00    +0.277 C 
ENDBRANCH  11  18
ENDBRANCH   6   9
BRANCH   4  20
ATOM     20  N   UNL     1       0.030  -2.827  -2.332  0.00  0.00    -0.332 N 
ATOM     21  C   UNL     1       0.013  -2.139  -3.626  0.00  0.00    +0.127 C 
ATOM     22  H   UNL     1       0.043  -3.796  -2.298  0.00  0.00    +0.147 HD
ENDBRANCH   4  20
TORSDOF 4
