REMARK  Name = ZINC09244638
REMARK  8 active torsions:
REMARK  status: ('A' for Active; 'I' for Inactive)
REMARK    1  A    between atoms: C_1  and  C_2
REMARK    2  A    between atoms: C_5  and  C_7
REMARK    3  A    between atoms: C_8  and  C_18
REMARK    4  A    between atoms: N_10  and  C_12
REMARK    5  A    between atoms: N_20  and  C_21
REMARK    6  A    between atoms: C_21  and  C_22
REMARK    7  A    between atoms: C_22  and  C_24
REMARK    8  A    between atoms: C_22  and  N_58
REMARK                            x       y       z     vdW  Elec       q    Type
REMARK                         _______ _______ _______ _____ _____    ______ ____
ROOT
ATOM      1  C   UNL     1       1.704   3.294   0.062  0.00  0.00    +0.140 A 
ATOM      2  C   UNL     1       2.896   3.799   0.755  0.00  0.00    +0.085 A 
ATOM      3  C   UNL     1       2.872   5.171   0.620  0.00  0.00    +0.128 A 
ATOM      4  N   UNL     1       1.776   5.499  -0.086  0.00  0.00    -0.238 N 
ATOM      5  N   UNL     1       1.072   4.340  -0.426  0.00  0.00    -0.162 NA
ENDROOT
BRANCH   1  10
ATOM      6  C   UNL     1       1.960  -1.691  -0.453  0.00  0.00    +0.086 C 
ATOM      7  C   UNL     1       1.402  -0.300  -0.293  0.00  0.00    +0.103 A 
ATOM      8  C   UNL     1       0.094   0.018  -0.218  0.00  0.00    +0.045 A 
ATOM      9  C   UNL     1       0.017   1.417  -0.073  0.00  0.00    +0.052 A 
ATOM     10  C   UNL     1       1.296   1.881  -0.068  0.00  0.00    +0.156 A 
ATOM     11  O   UNL     1       2.125   0.828  -0.202  0.00  0.00    -0.458 OA
ENDBRANCH   1  10
BRANCH   4  12
ATOM     12  C   UNL     1       1.400   6.802  -0.433  0.00  0.00    +0.065 A 
ATOM     13  C   UNL     1       2.181   7.881  -0.039  0.00  0.00    +0.028 A 
ATOM     14  C   UNL     1       1.810   9.164  -0.388  0.00  0.00    +0.002 A 
ATOM     15  C   UNL     1       0.656   9.378  -1.120  0.00  0.00    +0.000 A 
ATOM     16  C   UNL     1      -0.127   8.306  -1.510  0.00  0.00    +0.002 A 
ATOM     17  C   UNL     1       0.241   7.020  -1.169  0.00  0.00    +0.028 A 
ENDBRANCH   4  12
BRANCH   2  18
ATOM     18  C   UNL     1       3.914   2.999   1.454  0.00  0.00    +0.248 C 
ATOM     19  O   UNL     1       3.813   1.788   1.497  0.00  0.00    -0.270 OA
ATOM     20  N   UNL     1       4.960   3.609   2.048  0.00  0.00    -0.312 N 
ATOM     21  H   UNL     1       5.041   4.575   2.014  0.00  0.00    +0.149 HD
BRANCH  20  22
ATOM     22  C   UNL     1       5.973   2.812   2.744  0.00  0.00    +0.097 C 
BRANCH  22  23
ATOM     23  C   UNL     1       7.102   3.729   3.221  0.00  0.00    +0.016 C 
BRANCH  23  28
ATOM     24  C   UNL     1       8.720   1.956   2.809  0.00  0.00    -0.078 C 
ATOM     25  C   UNL     1      10.113   1.597   3.385  0.00  0.00    -0.020 C 
ATOM     26  C   UNL     1      10.600   2.940   3.976  0.00  0.00    -0.020 C 
ATOM     27  C   UNL     1       9.320   3.764   4.211  0.00  0.00    -0.078 C 
ATOM     28  N   UNL     1       8.204   2.908   3.807  0.00  0.00    +0.387 N 
ATOM     29  H   UNL     1       7.847   2.396   4.622  0.00  0.00    -0.081 HD
ENDBRANCH  23  28
BRANCH  23  30
ATOM     30  C   UNL     1       6.570   4.680   4.262  0.00  0.00    +0.093 A 
ATOM     31  C   UNL     1       6.218   5.961   4.050  0.00  0.00    +0.043 A 
ATOM     32  C   UNL     1       5.778   6.476   5.291  0.00  0.00    +0.041 A 
ATOM     33  C   UNL     1       5.887   5.478   6.187  0.00  0.00    +0.195 A 
ATOM     34  O   UNL     1       6.362   4.392   5.557  0.00  0.00    -0.469 OA
ENDBRANCH  23  30
ENDBRANCH  22  23
ENDBRANCH  20  22
ENDBRANCH   2  18
TORSDOF 7
