REMARK  Name = ZINC23861199
REMARK  9 active torsions:
REMARK  status: ('A' for Active; 'I' for Inactive)
REMARK    1  A    between atoms: C_1  and  C_2
REMARK    2  A    between atoms: C_2  and  C_4
REMARK    3  A    between atoms: C_2  and  N_10
REMARK    4  A    between atoms: N_13  and  S_16
REMARK    5  A    between atoms: S_16  and  C_19
REMARK    6  A    between atoms: C_22  and  C_25
REMARK    7  A    between atoms: C_25  and  C_26
REMARK    8  A    between atoms: C_25  and  C_27
REMARK    9  A    between atoms: C_25  and  C_28
REMARK                            x       y       z     vdW  Elec       q    Type
REMARK                         _______ _______ _______ _____ _____    ______ ____
ROOT
ATOM      1  N   UNL     1      -2.636   3.869   0.075  0.00  0.00    +0.389 N 
ATOM      2  C   UNL     1      -3.385   3.201  -0.997  0.00  0.00    -0.060 C 
ATOM      3  C   UNL     1      -4.884   3.457  -0.804  0.00  0.00    +0.091 C 
ATOM      4  N   UNL     1      -5.101   4.908  -0.705  0.00  0.00    -0.180 NA
ATOM      5  C   UNL     1      -4.287   5.669   0.254  0.00  0.00    +0.091 C 
ATOM      6  C   UNL     1      -2.812   5.327   0.020  0.00  0.00    -0.060 C 
ATOM      7  H   UNL     1      -3.043   3.520   1.036  0.00  0.00    -0.081 HD
ENDROOT
BRANCH   4   8
ATOM      8  S   UNL     1      -6.234   5.665  -1.647  0.00  0.00    +0.061 S 
ATOM      9  O   UNL     1      -7.186   4.675  -2.011  0.00  0.00    -0.153 OA
ATOM     10  O   UNL     1      -6.597   6.857  -0.966  0.00  0.00    -0.153 OA
BRANCH   8  11
ATOM     11  C   UNL     1      -5.428   6.159  -3.134  0.00  0.00    +0.105 A 
ATOM     12  C   UNL     1      -4.834   7.404  -3.217  0.00  0.00    +0.029 A 
ATOM     13  C   UNL     1      -4.198   7.791  -4.382  0.00  0.00    +0.006 A 
ATOM     14  C   UNL     1      -4.165   6.935  -5.467  0.00  0.00    -0.042 A 
ATOM     15  C   UNL     1      -4.763   5.692  -5.386  0.00  0.00    +0.006 A 
ATOM     16  C   UNL     1      -5.395   5.304  -4.220  0.00  0.00    +0.029 A 
BRANCH  14  17
ATOM     17  C   UNL     1      -3.475   7.358  -6.739  0.00  0.00    -0.013 C 
ATOM     18  C   UNL     1      -4.484   7.357  -7.890  0.00  0.00    +0.015 C 
ATOM     19  C   UNL     1      -2.902   8.766  -6.565  0.00  0.00    +0.015 C 
ATOM     20  C   UNL     1      -2.341   6.381  -7.054  0.00  0.00    +0.015 C 
ENDBRANCH  14  17
ENDBRANCH   8  11
ENDBRANCH   4   8
BRANCH   1  22
ATOM     21  C   UNL     1      -0.530   4.276  -1.107  0.00  0.00    -0.004 C 
ATOM     22  C   UNL     1      -1.213   3.508   0.027  0.00  0.00    +0.017 C 
BRANCH  22  23
ATOM     23  C   UNL     1      -0.560   3.864   1.338  0.00  0.00    +0.207 C 
ATOM     24  O   UNL     1      -1.127   4.598   2.118  0.00  0.00    -0.277 OA
ATOM     25  N   UNL     1       0.655   3.365   1.643  0.00  0.00    -0.242 N 
ATOM     26  C   UNL     1       1.239   3.682   2.815  0.00  0.00    +0.303 C 
ATOM     27  O   UNL     1       0.673   4.423   3.595  0.00  0.00    -0.253 OA
ATOM     28  N   UNL     1       2.451   3.179   3.122  0.00  0.00    -0.313 N 
ATOM     29  H   UNL     1       1.169   2.698   0.934  0.00  0.00    +0.159 HD
ATOM     30  H   UNL     1       2.928   3.438   4.079  0.00  0.00    +0.146 HD
ATOM     31  H   UNL     1       2.963   2.509   2.416  0.00  0.00    +0.146 HD
ENDBRANCH  22  23
ENDBRANCH   1  22
TORSDOF 5
