REMARK  Name = ZINC59285774
REMARK  5 active torsions:
REMARK  status: ('A' for Active; 'I' for Inactive)
REMARK    1  A    between atoms: C_1  and  O_2
REMARK    2  A    between atoms: O_2  and  C_3
REMARK    3  A    between atoms: C_6  and  C_22
REMARK    4  A    between atoms: C_8  and  N_9
REMARK    5  A    between atoms: C_10  and  C_12
REMARK                            x       y       z     vdW  Elec       q    Type
REMARK                         _______ _______ _______ _____ _____    ______ ____
ROOT
ATOM      1  N   UNL     1       0.092  -2.775  -0.105  0.00  0.00    -0.282 N 
ATOM      2  C   UNL     1       0.054  -4.117  -0.221  0.00  0.00    +0.223 C 
ATOM      3  O   UNL     1       0.592  -4.660  -1.163  0.00  0.00    -0.275 OA
ATOM      4  H   UNL     1      -0.267  -2.346   0.688  0.00  0.00    +0.155 HD
ENDROOT
BRANCH   2   5
ATOM      5  C   UNL     1      -0.655  -4.944   0.821  0.00  0.00    +0.048 C 
ATOM      6  C   UNL     1      -2.129  -4.537   0.878  0.00  0.00    +0.019 C 
ATOM      7  C   UNL     1      -2.849  -5.376   1.936  0.00  0.00    -0.009 C 
ATOM      8  C   UNL     1      -2.743  -6.858   1.569  0.00  0.00    +0.007 C 
ATOM      9  C   UNL     1      -1.269  -7.265   1.512  0.00  0.00    -0.009 C 
ATOM     10  C   UNL     1      -0.549  -6.426   0.455  0.00  0.00    +0.019 C 
ATOM     11  C   UNL     1      -0.622  -7.030   2.878  0.00  0.00    +0.007 C 
ATOM     12  C   UNL     1      -0.727  -5.548   3.244  0.00  0.00    -0.009 C 
ATOM     13  C   UNL     1      -2.201  -5.141   3.302  0.00  0.00    +0.007 C 
ATOM     14  C   UNL     1      -0.007  -4.709   2.187  0.00  0.00    +0.019 C 
ENDBRANCH   2   5
BRANCH   1  20
ATOM     15  C   UNL     1       1.160  -0.731  -0.846  0.00  0.00    +0.141 A 
ATOM     16  C   UNL     1       1.718   0.037  -1.859  0.00  0.00    +0.048 A 
ATOM     17  C   UNL     1       1.765  -0.445  -3.148  0.00  0.00    +0.017 A 
ATOM     18  C   UNL     1       1.251  -1.711  -3.441  0.00  0.00    +0.038 A 
ATOM     19  C   UNL     1       0.689  -2.486  -2.423  0.00  0.00    +0.040 A 
ATOM     20  C   UNL     1       0.649  -1.998  -1.130  0.00  0.00    +0.076 A 
BRANCH  18  21
ATOM     21  C   UNL     1       1.301  -2.228  -4.822  0.00  0.00    +0.242 C 
ATOM     22  O   UNL     1       0.853  -3.330  -5.076  0.00  0.00    -0.270 OA
ATOM     23  N   UNL     1       1.843  -1.480  -5.803  0.00  0.00    -0.325 N 
ATOM     24  H   UNL     1       2.200  -0.601  -5.601  0.00  0.00    +0.145 HD
ATOM     25  H   UNL     1       1.875  -1.819  -6.711  0.00  0.00    +0.145 HD
ENDBRANCH  18  21
BRANCH  15  27
ATOM     26  C   UNL     1       1.655   1.054   0.642  0.00  0.00    +0.277 C 
ATOM     27  O   UNL     1       1.115  -0.251   0.423  0.00  0.00    -0.493 OA
ENDBRANCH  15  27
ENDBRANCH   1  20
TORSDOF 4
