REMARK  Name = ZINC50956471
REMARK  3 active torsions:
REMARK  status: ('A' for Active; 'I' for Inactive)
REMARK    1  A    between atoms: C_4  and  C_7
REMARK    2  A    between atoms: C_9  and  N_17
REMARK    3  A    between atoms: C_21  and  C_24
REMARK                            x       y       z     vdW  Elec       q    Type
REMARK                         _______ _______ _______ _____ _____    ______ ____
ROOT
ATOM      1  C   UNL     1       3.708  -0.669  -0.021  0.00  0.00    -0.006 A 
ATOM      2  C   UNL     1       4.700  -0.346  -0.933  0.00  0.00    +0.050 A 
ATOM      3  C   UNL     1       5.898  -1.068  -0.932  0.00  0.00    +0.100 A 
ATOM      4  N   UNL     1       6.125  -2.054  -0.091  0.00  0.00    -0.343 N 
ATOM      5  C   UNL     1       5.225  -2.434   0.822  0.00  0.00    +0.048 A 
ATOM      6  C   UNL     1       3.981  -1.764   0.910  0.00  0.00    +0.006 A 
ATOM      7  C   UNL     1       3.043  -2.160   1.870  0.00  0.00    +0.010 A 
ATOM      8  C   UNL     1       3.339  -3.187   2.718  0.00  0.00    +0.001 A 
ATOM      9  C   UNL     1       4.564  -3.845   2.639  0.00  0.00    +0.002 A 
ATOM     10  C   UNL     1       5.493  -3.491   1.709  0.00  0.00    +0.026 A 
ATOM     11  H   UNL     1       6.973  -2.522  -0.135  0.00  0.00    +0.167 HD
ENDROOT
BRANCH   1  15
ATOM     12  C   UNL     1       0.024   1.448   0.078  0.00  0.00    +0.000 A 
ATOM     13  C   UNL     1       1.219   2.145   0.075  0.00  0.00    +0.001 A 
ATOM     14  C   UNL     1       2.418   1.463   0.043  0.00  0.00    +0.008 A 
ATOM     15  C   UNL     1       2.424   0.069   0.014  0.00  0.00    -0.017 A 
ATOM     16  C   UNL     1       1.215  -0.628   0.018  0.00  0.00    +0.008 A 
ATOM     17  C   UNL     1       0.023   0.065   0.049  0.00  0.00    +0.001 A 
ENDBRANCH   1  15
BRANCH   3  18
ATOM     18  N   UNL     1       6.882  -0.733  -1.852  0.00  0.00    -0.311 N 
ATOM     19  C   UNL     1       8.207  -1.372  -1.810  0.00  0.00    +0.134 C 
ATOM     20  C   UNL     1       9.274  -0.273  -1.839  0.00  0.00    +0.180 C 
ATOM     21  O   UNL     1       9.024   0.598  -2.945  0.00  0.00    -0.364 OA
ATOM     22  C   UNL     1       7.775   1.290  -2.874  0.00  0.00    +0.221 C 
ATOM     23  C   UNL     1       6.629   0.267  -2.901  0.00  0.00    +0.147 C 
BRANCH  22  24
ATOM     24  C   UNL     1       7.648   2.220  -4.053  0.00  0.00    +0.241 C 
ATOM     25  O   UNL     1       8.494   2.218  -4.921  0.00  0.00    -0.273 OA
ATOM     26  N   UNL     1       6.592   3.053  -4.143  0.00  0.00    -0.327 N 
ATOM     27  H   UNL     1       5.915   3.055  -3.449  0.00  0.00    +0.145 HD
ATOM     28  H   UNL     1       6.510   3.651  -4.902  0.00  0.00    +0.145 HD
ENDBRANCH  22  24
ENDBRANCH   3  18
TORSDOF 3
