REMARK  Name = ZINC62252337
REMARK  3 active torsions:
REMARK  status: ('A' for Active; 'I' for Inactive)
REMARK    1  A    between atoms: C_10  and  C_12
REMARK    2  A    between atoms: C_12  and  C_18
REMARK    3  A    between atoms: C_18  and  N_19
REMARK                            x       y       z     vdW  Elec       q    Type
REMARK                         _______ _______ _______ _____ _____    ______ ____
ROOT
ATOM      1  C   UNL     1       7.268  -1.026  -5.174  0.00  0.00    +0.102 A 
ATOM      2  C   UNL     1       7.713  -0.775  -3.926  0.00  0.00    +0.105 A 
ATOM      3  N   UNL     1       6.657  -0.970  -3.085  0.00  0.00    -0.333 N 
ATOM      4  C   UNL     1       5.597  -1.327  -3.849  0.00  0.00    +0.105 A 
ATOM      5  N   UNL     1       5.970  -1.362  -5.093  0.00  0.00    -0.348 N 
ATOM      6  C   UNL     1       4.222  -1.619  -3.291  0.00  0.00    +0.180 C 
ATOM      7  N   UNL     1       4.358  -1.699  -1.825  0.00  0.00    -0.292 N 
ATOM      8  C   UNL     1       5.189  -0.689  -1.152  0.00  0.00    +0.130 C 
ATOM      9  C   UNL     1       6.639  -0.832  -1.628  0.00  0.00    +0.142 C 
ATOM     10  C   UNL     1       3.740  -2.669  -1.123  0.00  0.00    +0.220 C 
ATOM     11  O   UNL     1       3.924  -2.764   0.072  0.00  0.00    -0.275 OA
ATOM     12  H   UNL     1       5.402  -1.595  -5.845  0.00  0.00    +0.166 HD
ENDROOT
BRANCH  10  13
ATOM     13  C   UNL     1       2.819  -3.635  -1.823  0.00  0.00    +0.036 C 
ATOM     14  C   UNL     1       2.081  -4.484  -0.783  0.00  0.00    +0.042 C 
ATOM     15  C   UNL     1       3.099  -5.316   0.002  0.00  0.00    +0.161 C 
ATOM     16  O   UNL     1       3.848  -6.128  -0.904  0.00  0.00    -0.380 OA
ATOM     17  C   UNL     1       4.597  -5.387  -1.870  0.00  0.00    +0.161 C 
ATOM     18  C   UNL     1       3.639  -4.558  -2.730  0.00  0.00    +0.042 C 
BRANCH  13  19
ATOM     19  C   UNL     1       1.805  -2.858  -2.665  0.00  0.00    -0.070 C 
BRANCH  19  20
ATOM     20  N   UNL     1       1.111  -1.880  -1.816  0.00  0.00    +0.379 N 
ATOM     21  H   UNL     1       0.502  -1.313  -2.386  0.00  0.00    -0.090 HD
ATOM     22  H   UNL     1       0.566  -2.366  -1.120  0.00  0.00    -0.090 HD
ATOM     23  H   UNL     1       1.790  -1.290  -1.359  0.00  0.00    -0.090 HD
ENDBRANCH  19  20
ENDBRANCH  13  19
ENDBRANCH  10  13
TORSDOF 3
