REMARK  Name = ZINC39690613
REMARK  5 active torsions:
REMARK  status: ('A' for Active; 'I' for Inactive)
REMARK    1  A    between atoms: C_1  and  C_2
REMARK    2  A    between atoms: C_6  and  C_9
REMARK    3  A    between atoms: C_13  and  C_22
REMARK    4  A    between atoms: N_24  and  C_25
REMARK    5  A    between atoms: C_25  and  C_26
REMARK                            x       y       z     vdW  Elec       q    Type
REMARK                         _______ _______ _______ _____ _____    ______ ____
ROOT
ATOM      1  C   UNL     1       0.082  -2.890   2.580  0.00  0.00    +0.251 C 
ATOM      2  O   UNL     1       1.128  -3.235   3.094  0.00  0.00    -0.270 OA
ATOM      3  N   UNL     1      -1.092  -3.260   3.129  0.00  0.00    -0.296 N 
ATOM      4  C   UNL     1      -2.458  -2.945   2.648  0.00  0.00    +0.121 C 
ATOM      5  C   UNL     1      -3.264  -4.243   2.884  0.00  0.00    +0.100 C 
ATOM      6  C   UNL     1      -2.505  -4.978   4.002  0.00  0.00    -0.004 C 
ATOM      7  C   UNL     1      -1.309  -4.079   4.346  0.00  0.00    +0.115 C 
ATOM      8  C   UNL     1      -2.013  -6.333   3.504  0.00  0.00    -0.010 C 
ATOM      9  C   UNL     1      -1.312  -7.069   4.650  0.00  0.00    -0.082 C 
ATOM     10  N   UNL     1      -2.249  -7.246   5.766  0.00  0.00    +0.379 N 
ATOM     11  C   UNL     1      -2.647  -5.937   6.299  0.00  0.00    -0.082 C 
ATOM     12  C   UNL     1      -3.403  -5.154   5.223  0.00  0.00    -0.010 C 
ATOM     13  H   UNL     1      -3.068  -7.738   5.440  0.00  0.00    -0.086 HD
ATOM     14  H   UNL     1      -1.805  -7.784   6.494  0.00  0.00    -0.086 HD
ENDROOT
BRANCH   1  20
ATOM     15  C   UNL     1       0.123   1.598   0.391  0.00  0.00    +0.047 C 
ATOM     16  C   UNL     1       0.117   0.094   0.295  0.00  0.00    -0.014 A 
ATOM     17  C   UNL     1       0.125  -0.518  -0.944  0.00  0.00    +0.007 A 
ATOM     18  C   UNL     1       0.119  -1.899  -1.043  0.00  0.00    +0.021 A 
ATOM     19  C   UNL     1       0.105  -2.676   0.098  0.00  0.00    +0.056 A 
ATOM     20  C   UNL     1       0.097  -2.066   1.356  0.00  0.00    +0.091 A 
ATOM     21  C   UNL     1       0.109  -0.670   1.448  0.00  0.00    +0.140 A 
ATOM     22  F   UNL     1       0.106  -0.071   2.658  0.00  0.00    -0.204 F 
ATOM     23 CL   UNL     1       0.097  -4.407  -0.029  0.00  0.00    -0.083 Cl
ENDBRANCH   1  20
BRANCH   5  24
ATOM     24  C   UNL     1      -4.667  -3.917   3.325  0.00  0.00    +0.218 C 
ATOM     25  O   UNL     1      -4.881  -2.917   3.977  0.00  0.00    -0.275 OA
ATOM     26  N   UNL     1      -5.685  -4.737   2.994  0.00  0.00    -0.311 N 
ATOM     27  H   UNL     1      -5.514  -5.536   2.473  0.00  0.00    +0.149 HD
BRANCH  26  28
ATOM     28  C   UNL     1      -7.049  -4.420   3.423  0.00  0.00    +0.140 C 
BRANCH  28  29
ATOM     29  C   UNL     1      -7.992  -5.486   2.928  0.00  0.00    -0.016 A 
ATOM     30  C   UNL     1      -8.750  -5.266   1.793  0.00  0.00    +0.006 A 
ATOM     31  C   UNL     1      -9.614  -6.244   1.338  0.00  0.00    +0.000 A 
ATOM     32  C   UNL     1      -9.721  -7.443   2.018  0.00  0.00    +0.001 A 
ATOM     33  C   UNL     1      -8.964  -7.664   3.153  0.00  0.00    +0.015 A 
ATOM     34  C   UNL     1      -8.095  -6.687   3.606  0.00  0.00    +0.023 A 
ATOM     35 BR   UNL     1      -7.053  -6.992   5.154  0.00  0.00    -0.050 Br
ENDBRANCH  28  29
ENDBRANCH  26  28
ENDBRANCH   5  24
TORSDOF 4
