REMARK  Name = ZINC03906353
REMARK  6 active torsions:
REMARK  status: ('A' for Active; 'I' for Inactive)
REMARK    1  A    between atoms: C_1  and  S_2
REMARK    2  A    between atoms: S_2  and  C_3
REMARK    3  A    between atoms: C_6  and  C_9
REMARK    4  A    between atoms: C_10  and  C_11
REMARK    5  A    between atoms: C_13  and  C_18
REMARK    6  A    between atoms: C_23  and  O_24
REMARK                            x       y       z     vdW  Elec       q    Type
REMARK                         _______ _______ _______ _____ _____    ______ ____
ROOT
ATOM      1  C   UNL     1      -7.579  -3.210   0.065  0.00  0.00    +0.158 A 
ATOM      2  N   UNL     1      -7.930  -4.497   0.073  0.00  0.00    -0.208 NA
ATOM      3  C   UNL     1      -9.216  -4.833   0.084  0.00  0.00    +0.169 A 
ATOM      4  N   UNL     1     -10.152  -3.887   0.087  0.00  0.00    -0.195 NA
ATOM      5  C   UNL     1      -9.803  -2.604   0.080  0.00  0.00    +0.216 A 
ATOM      6  N   UNL     1      -8.519  -2.264   0.075  0.00  0.00    -0.195 NA
ATOM      7  N   UNL     1     -10.776  -1.625   0.083  0.00  0.00    -0.327 N 
ATOM      8  H   UNL     1     -11.714  -1.873   0.091  0.00  0.00    +0.145 HD
ATOM      9  H   UNL     1     -10.522  -0.689   0.078  0.00  0.00    +0.145 HD
ENDROOT
BRANCH   3  10
ATOM     10  C   UNL     1      -9.607  -6.261   0.092  0.00  0.00    +0.061 A 
ATOM     11  C   UNL     1      -8.630  -7.256   0.094  0.00  0.00    +0.015 A 
ATOM     12  C   UNL     1      -9.000  -8.584   0.102  0.00  0.00    +0.001 A 
ATOM     13  C   UNL     1     -10.339  -8.936   0.107  0.00  0.00    +0.004 A 
ATOM     14  C   UNL     1     -11.316  -7.960   0.105  0.00  0.00    +0.046 A 
ATOM     15  C   UNL     1     -10.960  -6.620   0.104  0.00  0.00    +0.128 A 
BRANCH  15  16
ATOM     16  O   UNL     1     -11.919  -5.660   0.108  0.00  0.00    -0.506 OA
ATOM     17  H   UNL     1     -12.204  -5.384  -0.774  0.00  0.00    +0.292 HD
ENDBRANCH  15  16
ENDBRANCH   3  10
BRANCH   1  19
ATOM     18  C   UNL     1      -5.804  -1.536   0.051  0.00  0.00    +0.011 C 
ATOM     19  C   UNL     1      -6.157  -2.835   0.053  0.00  0.00    +0.049 C 
BRANCH  18  23
ATOM     20  C   UNL     1      -1.702  -0.454   0.016  0.00  0.00    +0.008 A 
ATOM     21  C   UNL     1      -2.681   0.536   0.025  0.00  0.00    +0.015 A 
ATOM     22  C   UNL     1      -4.013   0.189   0.036  0.00  0.00    +0.009 A 
ATOM     23  C   UNL     1      -4.382  -1.161   0.038  0.00  0.00    -0.025 A 
ATOM     24  C   UNL     1      -3.395  -2.153   0.029  0.00  0.00    +0.009 A 
ATOM     25  C   UNL     1      -2.065  -1.798   0.012  0.00  0.00    +0.015 A 
BRANCH  20  27
ATOM     26  C   UNL     1      -0.022   1.810   0.012  0.00  0.00    +0.090 C 
ATOM     27  S   UNL     1       0.002  -0.004   0.002  0.00  0.00    -0.129 S 
ENDBRANCH  20  27
ENDBRANCH  18  23
ENDBRANCH   1  19
TORSDOF 5
