REMARK  Name = ZINC65467435
REMARK  10 active torsions:
REMARK  status: ('A' for Active; 'I' for Inactive)
REMARK    1  A    between atoms: C_1  and  C_2
REMARK    2  A    between atoms: C_5  and  C_8
REMARK    3  A    between atoms: C_8  and  C_9
REMARK    4  A    between atoms: C_8  and  N_23
REMARK    5  A    between atoms: C_9  and  N_10
REMARK    6  A    between atoms: N_13  and  N_14
REMARK    7  A    between atoms: C_17  and  C_22
REMARK    8  A    between atoms: C_19  and  C_21
REMARK    9  A    between atoms: N_23  and  C_24
REMARK   10  A    between atoms: N_23  and  C_25
REMARK                            x       y       z     vdW  Elec       q    Type
REMARK                         _______ _______ _______ _____ _____    ______ ____
ROOT
ATOM      1  N   UNL     1      -1.116  -6.359   0.374  0.00  0.00    -0.299 N 
ATOM      2  C   UNL     1      -2.198  -7.131   0.595  0.00  0.00    +0.316 C 
ATOM      3  O   UNL     1      -3.280  -6.617   0.800  0.00  0.00    -0.251 OA
ATOM      4  N   UNL     1      -2.080  -8.474   0.587  0.00  0.00    -0.218 N 
ATOM      5  H   UNL     1      -0.252  -6.769   0.210  0.00  0.00    +0.150 HD
ATOM      6  H   UNL     1      -2.858  -9.030   0.746  0.00  0.00    +0.174 HD
ENDROOT
BRANCH   4   7
ATOM      7  N   UNL     1      -0.832  -9.066   0.350  0.00  0.00    -0.231 N 
ATOM      8  C   UNL     1      -0.711 -10.445   0.343  0.00  0.00    +0.232 A 
ATOM      9  N   UNL     1      -1.786 -11.190   0.556  0.00  0.00    -0.219 NA
ATOM     10  C   UNL     1      -1.704 -12.510   0.555  0.00  0.00    +0.044 A 
ATOM     11  C   UNL     1      -0.477 -13.112   0.328  0.00  0.00    +0.046 A 
ATOM     12  C   UNL     1       0.627 -12.303   0.108  0.00  0.00    +0.044 A 
ATOM     13  N   UNL     1       0.476 -10.989   0.117  0.00  0.00    -0.219 NA
ATOM     14  C   UNL     1       1.982 -12.913  -0.143  0.00  0.00    +0.066 C 
ATOM     15  C   UNL     1      -2.932 -13.350   0.799  0.00  0.00    +0.066 C 
ATOM     16  H   UNL     1      -0.054  -8.510   0.191  0.00  0.00    +0.173 HD
ENDBRANCH   4   7
BRANCH   1  17
ATOM     17  C   UNL     1      -1.244  -4.899   0.382  0.00  0.00    +0.095 C 
BRANCH  17  18
ATOM     18  C   UNL     1       0.090  -4.268  -0.022  0.00  0.00    -0.021 C 
BRANCH  18  23
ATOM     19  C   UNL     1       1.298  -5.663  -5.498  0.00  0.00    +0.044 C 
ATOM     20  C   UNL     1       0.983  -5.299  -4.070  0.00  0.00    -0.050 A 
ATOM     21  C   UNL     1       1.585  -5.987  -3.032  0.00  0.00    +0.003 A 
ATOM     22  C   UNL     1       1.296  -5.653  -1.722  0.00  0.00    +0.002 A 
ATOM     23  C   UNL     1       0.406  -4.631  -1.450  0.00  0.00    -0.059 A 
ATOM     24  C   UNL     1      -0.195  -3.943  -2.487  0.00  0.00    +0.002 A 
ATOM     25  C   UNL     1       0.097  -4.274  -3.797  0.00  0.00    +0.003 A 
ENDBRANCH  18  23
BRANCH  18  26
ATOM     26  N   UNL     1      -0.002  -2.807   0.103  0.00  0.00    +0.382 N 
ATOM     27  C   UNL     1      -0.292  -2.452   1.498  0.00  0.00    -0.096 C 
ATOM     28  C   UNL     1       1.273  -2.200  -0.302  0.00  0.00    -0.096 C 
ATOM     29  H   UNL     1      -0.742  -2.465  -0.492  0.00  0.00    -0.082 HD
ENDBRANCH  18  26
ENDBRANCH  17  18
ENDBRANCH   1  17
TORSDOF 5
