REMARK  Name = ZINC66392843
REMARK  12 active torsions:
REMARK  status: ('A' for Active; 'I' for Inactive)
REMARK    1  A    between atoms: C_1  and  C_2
REMARK    2  A    between atoms: C_2  and  C_4
REMARK    3  A    between atoms: C_2  and  N_14
REMARK    4  A    between atoms: N_9  and  C_10
REMARK    5  A    between atoms: C_10  and  C_11
REMARK    6  A    between atoms: C_11  and  O_12
REMARK    7  A    between atoms: O_12  and  C_13
REMARK    8  A    between atoms: N_14  and  C_15
REMARK    9  A    between atoms: C_15  and  C_16
REMARK   10  A    between atoms: C_16  and  C_22
REMARK   11  A    between atoms: C_25  and  O_28
REMARK   12  A    between atoms: O_28  and  C_29
REMARK                            x       y       z     vdW  Elec       q    Type
REMARK                         _______ _______ _______ _____ _____    ______ ____
ROOT
ATOM      1  N   UNL     1       0.741  -0.598   1.185  0.00  0.00    +0.387 N 
ATOM      2  H   UNL     1       0.804  -1.605   1.180  0.00  0.00    -0.085 HD
ATOM      3  H   UNL     1       1.668  -0.202   1.215  0.00  0.00    -0.085 HD
ENDROOT
BRANCH   1   5
ATOM      4  C   UNL     1       0.067   1.384  -0.086  0.00  0.00    -0.004 C 
ATOM      5  C   UNL     1       0.054  -0.145  -0.032  0.00  0.00    +0.013 C 
BRANCH   5   6
ATOM      6  C   UNL     1       0.762  -0.696  -1.243  0.00  0.00    +0.206 C 
ATOM      7  O   UNL     1       1.742  -1.397  -1.105  0.00  0.00    -0.277 OA
ATOM      8  N   UNL     1       0.306  -0.410  -2.479  0.00  0.00    -0.242 N 
ATOM      9  C   UNL     1       0.939  -0.903  -3.561  0.00  0.00    +0.306 C 
ATOM     10  O   UNL     1       1.921  -1.606  -3.424  0.00  0.00    -0.252 OA
ATOM     11  N   UNL     1       0.483  -0.617  -4.797  0.00  0.00    -0.297 N 
ATOM     12  H   UNL     1      -0.478   0.150  -2.589  0.00  0.00    +0.159 HD
ATOM     13  H   UNL     1      -0.300  -0.057  -4.907  0.00  0.00    +0.150 HD
BRANCH  11  14
ATOM     14  C   UNL     1       1.172  -1.153  -5.974  0.00  0.00    +0.133 C 
BRANCH  14  15
ATOM     15  C   UNL     1       0.457  -0.682  -7.242  0.00  0.00    +0.178 C 
BRANCH  15  16
ATOM     16  O   UNL     1       0.570   0.739  -7.352  0.00  0.00    -0.381 OA
ATOM     17  C   UNL     1      -0.068   1.284  -8.508  0.00  0.00    +0.194 C 
ENDBRANCH  15  16
ENDBRANCH  14  15
ENDBRANCH  11  14
ENDBRANCH   5   6
ENDBRANCH   1   5
BRANCH   1  18
ATOM     18  C   UNL     1      -0.017  -0.161   2.365  0.00  0.00    -0.070 C 
BRANCH  18  19
ATOM     19  C   UNL     1       0.633  -0.732   3.628  0.00  0.00    -0.015 C 
ATOM     20  C   UNL     1      -0.242  -0.411   4.844  0.00  0.00    +0.038 C 
ATOM     21  C   UNL     1      -1.599  -1.099   4.682  0.00  0.00    +0.160 C 
ATOM     22  O   UNL     1      -1.403  -2.507   4.532  0.00  0.00    -0.380 OA
ATOM     23  C   UNL     1      -0.632  -2.869   3.384  0.00  0.00    +0.160 C 
ATOM     24  C   UNL     1       0.764  -2.252   3.494  0.00  0.00    +0.038 C 
BRANCH  19  25
ATOM     25  C   UNL     1       1.998  -0.122   3.812  0.00  0.00    -0.043 A 
ATOM     26  C   UNL     1       2.407   0.915   2.993  0.00  0.00    +0.008 A 
ATOM     27  C   UNL     1       3.659   1.475   3.160  0.00  0.00    +0.046 A 
ATOM     28  C   UNL     1       4.506   0.998   4.149  0.00  0.00    +0.120 A 
ATOM     29  C   UNL     1       4.093  -0.042   4.970  0.00  0.00    +0.046 A 
ATOM     30  C   UNL     1       2.838  -0.596   4.803  0.00  0.00    +0.008 A 
BRANCH  28  31
ATOM     31  O   UNL     1       5.738   1.547   4.315  0.00  0.00    -0.495 OA
ATOM     32  C   UNL     1       6.556   1.005   5.354  0.00  0.00    +0.277 C 
ENDBRANCH  28  31
ENDBRANCH  19  25
ENDBRANCH  18  19
ENDBRANCH   1  18
TORSDOF 9
