REMARK  Name = ZINC67042687
REMARK  5 active torsions:
REMARK  status: ('A' for Active; 'I' for Inactive)
REMARK    1  A    between atoms: C_1  and  C_2
REMARK    2  A    between atoms: C_6  and  C_7
REMARK    3  A    between atoms: N_9  and  N_10
REMARK    4  A    between atoms: N_13  and  C_14
REMARK    5  A    between atoms: C_19  and  C_22
REMARK                            x       y       z     vdW  Elec       q    Type
REMARK                         _______ _______ _______ _____ _____    ______ ____
ROOT
ATOM      1  N   UNL     1       0.058  -0.732   4.900  0.00  0.00    -0.218 N 
ATOM      2  C   UNL     1       0.080  -1.625   5.909  0.00  0.00    +0.316 C 
ATOM      3  O   UNL     1       0.086  -1.239   7.062  0.00  0.00    -0.251 OA
ATOM      4  N   UNL     1       0.096  -2.945   5.640  0.00  0.00    -0.295 N 
ATOM      5  H   UNL     1       0.047   0.219   5.094  0.00  0.00    +0.174 HD
ATOM      6  H   UNL     1       0.091  -3.253   4.720  0.00  0.00    +0.151 HD
ENDROOT
BRANCH   4   7
ATOM      7  C   UNL     1       0.119  -3.916   6.737  0.00  0.00    +0.075 C 
ATOM      8  C   UNL     1       1.564  -4.141   7.189  0.00  0.00    +0.022 C 
ATOM      9  C   UNL     1       2.387  -4.676   6.016  0.00  0.00    +0.002 C 
ATOM     10  C   UNL     1       1.791  -6.001   5.537  0.00  0.00    +0.012 C 
ATOM     11  C   UNL     1       0.347  -5.777   5.085  0.00  0.00    +0.095 C 
ATOM     12  C   UNL     1      -0.477  -5.241   6.258  0.00  0.00    +0.034 C 
BRANCH  11  13
ATOM     13  C   UNL     1      -0.250  -7.102   4.606  0.00  0.00    +0.393 C 
ATOM     14  F   UNL     1      -0.227  -8.029   5.654  0.00  0.00    -0.170 F 
ATOM     15  F   UNL     1      -1.571  -6.897   4.193  0.00  0.00    -0.170 F 
ATOM     16  F   UNL     1       0.503  -7.592   3.534  0.00  0.00    -0.170 F 
ENDBRANCH  11  13
ENDBRANCH   4   7
BRANCH   1  19
ATOM     17  C   UNL     1       0.030  -0.283   2.562  0.00  0.00    +0.267 C 
ATOM     18  O   UNL     1       0.016   0.910   2.805  0.00  0.00    -0.268 OA
ATOM     19  N   UNL     1       0.052  -1.176   3.571  0.00  0.00    -0.229 N 
ATOM     20  H   UNL     1       0.063  -2.126   3.378  0.00  0.00    +0.173 HD
BRANCH  17  26
ATOM     21  C   UNL     1      -0.018   1.503   0.010  0.00  0.00    +0.045 C 
ATOM     22  C   UNL     1       0.002  -0.004   0.002  0.00  0.00    -0.031 A 
ATOM     23  C   UNL     1       0.007  -0.729  -1.166  0.00  0.00    +0.011 A 
ATOM     24  C   UNL     1       0.026  -2.083  -1.101  0.00  0.00    +0.046 A 
ATOM     25  S   UNL     1       0.038  -2.416   0.545  0.00  0.00    -0.092 S 
ATOM     26  C   UNL     1       0.023  -0.748   1.172  0.00  0.00    +0.078 A 
ENDBRANCH  17  26
ENDBRANCH   1  19
TORSDOF 4
