REMARK  Name = ZINC62952557
REMARK  7 active torsions:
REMARK  status: ('A' for Active; 'I' for Inactive)
REMARK    1  A    between atoms: C_1  and  C_2
REMARK    2  A    between atoms: C_2  and  C_3
REMARK    3  A    between atoms: C_3  and  C_17
REMARK    4  A    between atoms: N_6  and  C_9
REMARK    5  A    between atoms: C_9  and  C_15
REMARK    6  A    between atoms: C_15  and  N_16
REMARK    7  A    between atoms: C_17  and  C_18
REMARK                            x       y       z     vdW  Elec       q    Type
REMARK                         _______ _______ _______ _____ _____    ______ ____
ROOT
ATOM      1  C   UNL     1      -1.317  -0.566   0.528  0.00  0.00    -0.033 C 
ATOM      2  C   UNL     1      -2.205  -0.025  -0.596  0.00  0.00    -0.012 C 
ATOM      3  C   UNL     1      -3.635  -0.530  -0.397  0.00  0.00    -0.078 C 
ATOM      4  N   UNL     1      -3.648  -1.998  -0.425  0.00  0.00    +0.382 N 
ATOM      5  C   UNL     1      -2.857  -2.524   0.693  0.00  0.00    -0.078 C 
ATOM      6  C   UNL     1      -1.396  -2.095   0.536  0.00  0.00    -0.012 C 
ATOM      7  H   UNL     1      -3.253  -2.320  -1.296  0.00  0.00    -0.081 HD
ENDROOT
BRANCH   4   8
ATOM      8  C   UNL     1      -5.032  -2.476  -0.312  0.00  0.00    -0.082 C 
ATOM      9  C   UNL     1      -5.650  -1.948   0.984  0.00  0.00    -0.014 C 
ATOM     10  C   UNL     1      -7.092  -2.447   1.102  0.00  0.00    -0.001 C 
ATOM     11  C   UNL     1      -7.905  -1.943  -0.092  0.00  0.00    -0.000 C 
ATOM     12  C   UNL     1      -7.287  -2.471  -1.389  0.00  0.00    -0.001 C 
ATOM     13  C   UNL     1      -5.845  -1.972  -1.506  0.00  0.00    -0.014 C 
BRANCH   8  14
ATOM     14  C   UNL     1      -5.043  -4.006  -0.297  0.00  0.00    -0.099 C 
BRANCH  14  15
ATOM     15  N   UNL     1      -4.337  -4.513  -1.481  0.00  0.00    +0.377 N 
ATOM     16  H   UNL     1      -4.422  -5.517  -1.519  0.00  0.00    -0.090 HD
ATOM     17  H   UNL     1      -4.742  -4.109  -2.312  0.00  0.00    -0.090 HD
ATOM     18  H   UNL     1      -3.362  -4.260  -1.425  0.00  0.00    -0.090 HD
ENDBRANCH  14  15
ENDBRANCH   8  14
ENDBRANCH   4   8
BRANCH   1  20
ATOM     19  C   UNL     1       0.216   1.397   0.330  0.00  0.00    +0.004 C 
ATOM     20  C   UNL     1       0.130  -0.130   0.292  0.00  0.00    +0.003 C 
ENDBRANCH   1  20
BRANCH   1  21
ATOM     21  C   UNL     1      -1.802  -0.021   1.873  0.00  0.00    +0.003 C 
ATOM     22  C   UNL     1      -0.843  -0.464   2.979  0.00  0.00    +0.004 C 
ENDBRANCH   1  21
TORSDOF 5
