REMARK  Name = ZINC44742306
REMARK  11 active torsions:
REMARK  status: ('A' for Active; 'I' for Inactive)
REMARK    1  A    between atoms: C_1  and  C_2
REMARK    2  A    between atoms: C_2  and  C_3
REMARK    3  A    between atoms: C_3  and  C_5
REMARK    4  A    between atoms: C_3  and  N_6
REMARK    5  A    between atoms: C_7  and  C_9
REMARK    6  A    between atoms: C_9  and  N_10
REMARK    7  A    between atoms: N_13  and  C_16
REMARK    8  A    between atoms: C_16  and  C_17
REMARK    9  A    between atoms: N_22  and  C_23
REMARK   10  A    between atoms: C_23  and  C_24
REMARK   11  A    between atoms: C_23  and  C_25
REMARK                            x       y       z     vdW  Elec       q    Type
REMARK                         _______ _______ _______ _____ _____    ______ ____
ROOT
ATOM      1  N   UNL     1      -5.591   0.405  -2.322  0.00  0.00    +0.387 N 
ATOM      2  C   UNL     1      -6.083  -0.945  -2.014  0.00  0.00    -0.063 C 
ATOM      3  C   UNL     1      -7.592  -0.892  -1.764  0.00  0.00    +0.066 C 
ATOM      4  N   UNL     1      -8.266  -0.367  -2.959  0.00  0.00    -0.298 NA
ATOM      5  C   UNL     1      -7.766   0.973  -3.295  0.00  0.00    +0.066 C 
ATOM      6  C   UNL     1      -6.255   0.906  -3.532  0.00  0.00    -0.063 C 
ATOM      7  H   UNL     1      -5.793   1.020  -1.548  0.00  0.00    -0.081 HD
ENDROOT
BRANCH   1   8
ATOM      8  C   UNL     1      -4.140   0.357  -2.544  0.00  0.00    +0.019 C 
BRANCH   8  10
ATOM      9  N   UNL     1      -2.105  -0.148  -1.230  0.00  0.00    -0.314 N 
ATOM     10  C   UNL     1      -3.448  -0.040  -1.265  0.00  0.00    +0.197 C 
ATOM     11  O   UNL     1      -4.100  -0.261  -0.267  0.00  0.00    -0.278 OA
ATOM     12  H   UNL     1      -1.584   0.029  -2.029  0.00  0.00    +0.149 HD
BRANCH   9  13
ATOM     13  C   UNL     1      -1.433  -0.534   0.013  0.00  0.00    +0.070 C 
ATOM     14  C   UNL     1      -1.413  -2.059   0.130  0.00  0.00    +0.028 C 
BRANCH  13  16
ATOM     15  C   UNL     1      -0.019   1.526   0.010  0.00  0.00    +0.005 C 
ATOM     16  C   UNL     1       0.002  -0.004   0.002  0.00  0.00    +0.018 C 
ENDBRANCH  13  16
ENDBRANCH   9  13
ENDBRANCH   8  10
ENDBRANCH   1   8
BRANCH   4  17
ATOM     17  C   UNL     1      -9.724  -0.355  -2.779  0.00  0.00    +0.180 C 
BRANCH  17  18
ATOM     18  C   UNL     1     -10.390  -0.048  -4.096  0.00  0.00    +0.234 C 
ATOM     19  O   UNL     1      -9.717   0.142  -5.086  0.00  0.00    -0.274 OA
ATOM     20  N   UNL     1     -11.735   0.016  -4.172  0.00  0.00    -0.239 N 
ATOM     21  C   UNL     1     -12.330   0.290  -5.349  0.00  0.00    +0.306 C 
ATOM     22  O   UNL     1     -11.656   0.481  -6.342  0.00  0.00    -0.252 OA
ATOM     23  N   UNL     1     -13.674   0.354  -5.425  0.00  0.00    -0.297 N 
ATOM     24  H   UNL     1     -12.273  -0.136  -3.380  0.00  0.00    +0.159 HD
ATOM     25  H   UNL     1     -14.213   0.203  -4.633  0.00  0.00    +0.151 HD
BRANCH  23  26
ATOM     26  C   UNL     1     -14.322   0.653  -6.705  0.00  0.00    +0.068 C 
ATOM     27  C   UNL     1     -14.484  -0.639  -7.508  0.00  0.00    +0.027 C 
ATOM     28  C   UNL     1     -15.698   1.270  -6.448  0.00  0.00    +0.027 C 
ENDBRANCH  23  26
ENDBRANCH  17  18
ENDBRANCH   4  17
TORSDOF 7
