REMARK  Name = ZINC15084559
REMARK  4 active torsions:
REMARK  status: ('A' for Active; 'I' for Inactive)
REMARK    1  A    between atoms: C_1  and  N_2
REMARK    2  A    between atoms: C_14  and  C_22
REMARK    3  A    between atoms: C_16  and  C_20
REMARK    4  A    between atoms: C_17  and  N_19
REMARK                            x       y       z     vdW  Elec       q    Type
REMARK                         _______ _______ _______ _____ _____    ______ ____
ROOT
ATOM      1  C   UNL     1      -4.311   8.834   6.920  0.00  0.00    +0.127 C 
ATOM      2  N   UNL     1      -4.768   8.761   5.530  0.00  0.00    -0.326 N 
ATOM      3  C   UNL     1      -3.928   8.269   4.554  0.00  0.00    +0.161 A 
ATOM      4  N   UNL     1      -2.694   7.822   4.680  0.00  0.00    -0.207 NA
ATOM      5  C   UNL     1      -1.989   7.370   3.645  0.00  0.00    +0.154 A 
ATOM      6  C   UNL     1      -2.655   7.404   2.414  0.00  0.00    +0.100 A 
ATOM      7  S   UNL     1      -4.234   8.083   2.855  0.00  0.00    -0.047 S 
ATOM      8  C   UNL     1      -2.065   6.969   1.232  0.00  0.00    +0.157 A 
ATOM      9  C   UNL     1      -0.767   6.486   1.281  0.00  0.00    +0.073 A 
ATOM     10  C   UNL     1      -0.103   6.453   2.509  0.00  0.00    +0.258 A 
ATOM     11  O   UNL     1       1.041   6.029   2.555  0.00  0.00    -0.267 OA
ATOM     12  N   UNL     1      -0.689   6.875   3.639  0.00  0.00    -0.306 N 
ATOM     13  H   UNL     1      -0.193   6.835   4.472  0.00  0.00    +0.170 HD
ATOM     14  C   UNL     1      -0.079   6.003   0.034  0.00  0.00    +0.103 C 
ATOM     15  C   UNL     1      -0.807   6.498  -1.185  0.00  0.00    +0.098 C 
ATOM     16  C   UNL     1      -2.074   6.968  -1.103  0.00  0.00    +0.199 C 
ATOM     17  O   UNL     1      -2.741   7.017   0.063  0.00  0.00    -0.440 OA
ATOM     18  H   UNL     1      -5.661   9.059   5.297  0.00  0.00    +0.148 HD
ENDROOT
BRANCH  14  19
ATOM     19  C   UNL     1      -0.059   4.497   0.026  0.00  0.00    -0.034 A 
ATOM     20  C   UNL     1       1.148   3.822   0.012  0.00  0.00    +0.006 A 
ATOM     21  C   UNL     1       1.167   2.440   0.004  0.00  0.00    +0.020 A 
ATOM     22  C   UNL     1      -0.021   1.732   0.012  0.00  0.00    +0.041 A 
ATOM     23  C   UNL     1      -1.229   2.407   0.021  0.00  0.00    +0.020 A 
ATOM     24  C   UNL     1      -1.247   3.789   0.034  0.00  0.00    +0.006 A 
ATOM     25 CL   UNL     1       0.002  -0.004   0.002  0.00  0.00    -0.084 Cl
ENDBRANCH  14  19
BRANCH  16  26
ATOM     26  N   UNL     1      -2.696   7.409  -2.244  0.00  0.00    -0.328 N 
ATOM     27  H   UNL     1      -2.227   7.381  -3.094  0.00  0.00    +0.145 HD
ATOM     28  H   UNL     1      -3.603   7.749  -2.202  0.00  0.00    +0.145 HD
ENDBRANCH  16  26
BRANCH  15  29
ATOM     29  C   UNL     1      -0.148   6.471  -2.456  0.00  0.00    +0.101 C 
ATOM     30  N   UNL     1       0.375   6.449  -3.465  0.00  0.00    -0.191 NA
ENDBRANCH  15  29
TORSDOF 3
