REMARK  Name = ZINC62245789
REMARK  7 active torsions:
REMARK  status: ('A' for Active; 'I' for Inactive)
REMARK    1  A    between atoms: C_1  and  C_2
REMARK    2  A    between atoms: C_2  and  C_3
REMARK    3  A    between atoms: C_3  and  C_5
REMARK    4  A    between atoms: C_3  and  N_22
REMARK    5  A    between atoms: C_5  and  C_7
REMARK    6  A    between atoms: C_5  and  N_13
REMARK    7  A    between atoms: N_10  and  C_12
REMARK                            x       y       z     vdW  Elec       q    Type
REMARK                         _______ _______ _______ _____ _____    ______ ____
ROOT
ATOM      1  C   UNL     1      -1.431  -2.055  -0.160  0.00  0.00    +0.076 C 
ENDROOT
BRANCH   1   2
ATOM      2  N   UNL     1      -2.802  -2.565  -0.029  0.00  0.00    -0.288 NA
ATOM      3  C   UNL     1      -2.814  -4.033   0.039  0.00  0.00    +0.107 C 
ATOM      4  C   UNL     1      -4.182  -4.515   0.540  0.00  0.00    +0.138 C 
ATOM      5  N   UNL     1      -5.221  -3.849  -0.250  0.00  0.00    -0.334 N 
ATOM      6  C   UNL     1      -6.535  -4.177  -0.374  0.00  0.00    +0.105 A 
ATOM      7  C   UNL     1      -7.082  -3.269  -1.210  0.00  0.00    +0.101 A 
ATOM      8  N   UNL     1      -6.118  -2.410  -1.582  0.00  0.00    -0.349 N 
ATOM      9  C   UNL     1      -5.001  -2.748  -1.011  0.00  0.00    +0.101 A 
ATOM     10  C   UNL     1      -3.654  -2.076  -1.128  0.00  0.00    +0.157 C 
ATOM     11  H   UNL     1      -6.237  -1.657  -2.181  0.00  0.00    +0.166 HD
ENDBRANCH   1   2
BRANCH   1  12
ATOM     12  C   UNL     1      -0.620  -2.485   1.035  0.00  0.00    +0.006 A 
ATOM     13  C   UNL     1      -1.064  -2.524   2.361  0.00  0.00    +0.139 A 
ATOM     14  N   UNL     1      -0.079  -2.949   3.110  0.00  0.00    -0.180 NA
ATOM     15  N   UNL     1       1.025  -3.194   2.284  0.00  0.00    -0.274 N 
ATOM     16  C   UNL     1       0.666  -2.907   1.015  0.00  0.00    +0.113 A 
ATOM     17  C   UNL     1       2.336  -3.682   2.719  0.00  0.00    +0.172 C 
ENDBRANCH   1  12
BRANCH   1  18
ATOM     18  C   UNL     1      -1.459  -0.527  -0.234  0.00  0.00    -0.053 C 
BRANCH  18  19
ATOM     19  N   UNL     1      -0.084  -0.014  -0.289  0.00  0.00    +0.381 N 
ATOM     20  H   UNL     1       0.385  -0.214   0.582  0.00  0.00    -0.090 HD
ATOM     21  H   UNL     1       0.411  -0.459  -1.047  0.00  0.00    -0.090 HD
ATOM     22  H   UNL     1      -0.103   0.984  -0.439  0.00  0.00    -0.090 HD
ENDBRANCH  18  19
BRANCH  18  24
ATOM     23  C   UNL     1      -2.303   1.548   0.872  0.00  0.00    +0.002 C 
ATOM     24  C   UNL     1      -2.163   0.030   1.005  0.00  0.00    -0.018 C 
ENDBRANCH  18  24
ENDBRANCH   1  18
TORSDOF 5
