REMARK  Name = ZINC39444103
REMARK  5 active torsions:
REMARK  status: ('A' for Active; 'I' for Inactive)
REMARK    1  A    between atoms: C_1  and  O_2
REMARK    2  A    between atoms: O_2  and  C_3
REMARK    3  A    between atoms: C_7  and  C_10
REMARK    4  A    between atoms: C_8  and  O_9
REMARK    5  A    between atoms: N_11  and  N_12
REMARK                            x       y       z     vdW  Elec       q    Type
REMARK                         _______ _______ _______ _____ _____    ______ ____
ROOT
ATOM      1  N   UNL     1       0.864  -6.204  -1.458  0.00  0.00    -0.206 N 
ATOM      2  C   UNL     1       0.304  -6.978  -0.462  0.00  0.00    +0.227 C 
ATOM      3  N   UNL     1      -0.276  -6.367   0.543  0.00  0.00    -0.220 NA
ATOM      4  C   UNL     1      -0.935  -7.192   1.552  0.00  0.00    +0.253 C 
ATOM      5  C   UNL     1      -0.199  -8.525   1.562  0.00  0.00    +0.115 C 
ATOM      6  C   UNL     1       0.070  -8.784   2.872  0.00  0.00    +0.025 A 
ATOM      7  C   UNL     1       0.631  -9.910   3.523  0.00  0.00    +0.012 A 
ATOM      8  C   UNL     1       0.782  -9.841   4.873  0.00  0.00    +0.001 A 
ATOM      9  C   UNL     1       0.420  -8.736   5.649  0.00  0.00    +0.002 A 
ATOM     10  C   UNL     1      -0.133  -7.606   5.133  0.00  0.00    +0.026 A 
ATOM     11  C   UNL     1      -0.342  -7.592   3.676  0.00  0.00    +0.046 A 
ATOM     12  N   UNL     1      -0.858  -6.678   2.912  0.00  0.00    -0.358 N 
ATOM     13  N   UNL     1       0.170  -9.121   0.424  0.00  0.00    -0.171 NA
ATOM     14  N   UNL     1       0.379  -8.326  -0.582  0.00  0.00    -0.247 N 
ATOM     15  H   UNL     1       1.296  -6.628  -2.216  0.00  0.00    +0.177 HD
ATOM     16  H   UNL     1       0.599  -8.708  -1.446  0.00  0.00    +0.192 HD
ATOM     17  H   UNL     1      -1.144  -5.797   3.200  0.00  0.00    +0.162 HD
ENDROOT
BRANCH   1  19
ATOM     18  C   UNL     1       1.337  -4.079  -2.311  0.00  0.00    +0.142 C 
ATOM     19  N   UNL     1       0.809  -4.807  -1.374  0.00  0.00    -0.187 NA
BRANCH  18  24
ATOM     20  C   UNL     1       0.606  -0.608  -1.056  0.00  0.00    +0.163 A 
ATOM     21  C   UNL     1       1.173   0.161  -2.062  0.00  0.00    +0.064 A 
ATOM     22  C   UNL     1       1.789  -0.446  -3.143  0.00  0.00    +0.022 A 
ATOM     23  C   UNL     1       1.845  -1.822  -3.229  0.00  0.00    +0.028 A 
ATOM     24  C   UNL     1       1.279  -2.609  -2.223  0.00  0.00    +0.041 A 
ATOM     25  C   UNL     1       0.661  -1.994  -1.127  0.00  0.00    +0.167 A 
ATOM     26 BR   UNL     1       2.557   0.615  -4.507  0.00  0.00    -0.050 Br
BRANCH  20  28
ATOM     27  C   UNL     1      -0.017   1.425   0.010  0.00  0.00    +0.277 C 
ATOM     28  O   UNL     1       0.002  -0.004   0.002  0.00  0.00    -0.491 OA
ENDBRANCH  20  28
BRANCH  25  29
ATOM     29  O   UNL     1       0.111  -2.750  -0.140  0.00  0.00    -0.503 OA
ATOM     30  H   UNL     1      -0.817  -2.977  -0.289  0.00  0.00    +0.292 HD
ENDBRANCH  25  29
ENDBRANCH  18  24
ENDBRANCH   1  19
TORSDOF 4
