REMARK  Name = ZINC39572585
REMARK  5 active torsions:
REMARK  status: ('A' for Active; 'I' for Inactive)
REMARK    1  A    between atoms: N_4  and  C_6
REMARK    2  A    between atoms: C_6  and  C_7
REMARK    3  A    between atoms: C_7  and  S_8
REMARK    4  A    between atoms: S_8  and  C_9
REMARK    5  A    between atoms: C_10  and  C_21
REMARK                            x       y       z     vdW  Elec       q    Type
REMARK                         _______ _______ _______ _____ _____    ______ ____
ROOT
ATOM      1  C   UNL     1       0.364  -5.493   0.167  0.00  0.00    +0.061 C 
ATOM      2  C   UNL     1       0.242  -6.853   0.498  0.00  0.00    +0.092 C 
ATOM      3  C   UNL     1      -0.622  -7.649  -0.221  0.00  0.00    +0.077 C 
ATOM      4  N   UNL     1      -1.193  -8.799   0.120  0.00  0.00    -0.165 NA
ATOM      5  C   UNL     1      -2.285  -9.186  -0.555  0.00  0.00    +0.330 C 
ATOM      6  O   UNL     1      -2.651 -10.344  -0.470  0.00  0.00    -0.250 OA
ATOM      7  N   UNL     1      -2.989  -8.334  -1.323  0.00  0.00    -0.237 N 
ATOM      8  C   UNL     1      -2.438  -7.177  -1.771  0.00  0.00    +0.240 C 
ATOM      9  O   UNL     1      -3.107  -6.313  -2.297  0.00  0.00    -0.274 OA
ATOM     10  C   UNL     1      -0.956  -7.025  -1.579  0.00  0.00    +0.185 C 
ATOM     11  S   UNL     1      -0.470  -5.290  -1.280  0.00  0.00    -0.098 S 
ATOM     12  H   UNL     1      -3.904  -8.550  -1.560  0.00  0.00    +0.159 HD
ENDROOT
BRANCH   2  13
ATOM     13  C   UNL     1       1.010  -7.406   1.573  0.00  0.00    +0.102 C 
ATOM     14  N   UNL     1       1.618  -7.845   2.426  0.00  0.00    -0.191 NA
ENDBRANCH   2  13
BRANCH   1  15
ATOM     15  S   UNL     1       1.164  -4.323   1.030  0.00  0.00    -0.119 S 
BRANCH  15  16
ATOM     16  C   UNL     1       0.921  -2.814   0.054  0.00  0.00    +0.056 C 
BRANCH  16  17
ATOM     17  C   UNL     1       1.618  -1.641   0.747  0.00  0.00    -0.068 C 
BRANCH  17  21
ATOM     18  C   UNL     1      -0.019   1.536   0.011  0.00  0.00    -0.020 C 
ATOM     19  C   UNL     1       1.468   1.960  -0.001  0.00  0.00    -0.020 C 
ATOM     20  C   UNL     1       2.191   0.705   0.550  0.00  0.00    -0.079 C 
ATOM     21  N   UNL     1       1.421  -0.418  -0.044  0.00  0.00    +0.380 N 
ATOM     22  C   UNL     1       0.002  -0.004   0.002  0.00  0.00    -0.079 C 
ATOM     23  H   UNL     1       1.708  -0.571  -0.999  0.00  0.00    -0.082 HD
ENDBRANCH  17  21
ENDBRANCH  16  17
ENDBRANCH  15  16
ENDBRANCH   1  15
TORSDOF 5
