REMARK  Name = ZINC04554037
REMARK  6 active torsions:
REMARK  status: ('A' for Active; 'I' for Inactive)
REMARK    1  A    between atoms: C_1  and  C_2
REMARK    2  A    between atoms: C_2  and  C_3
REMARK    3  A    between atoms: C_2  and  N_45
REMARK    4  A    between atoms: C_11  and  O_23
REMARK    5  A    between atoms: C_13  and  C_16
REMARK    6  A    between atoms: C_17  and  C_18
REMARK                            x       y       z     vdW  Elec       q    Type
REMARK                         _______ _______ _______ _____ _____    ______ ____
ROOT
ATOM      1  C   UNL     1      -4.915  -3.653  -0.781  0.00  0.00    -0.073 C 
ATOM      2  C   UNL     1      -4.598  -2.215  -1.202  0.00  0.00    +0.018 C 
ATOM      3  C   UNL     1      -4.019  -1.482   0.003  0.00  0.00    -0.027 A 
ATOM      4  C   UNL     1      -4.195  -1.985   1.248  0.00  0.00    -0.021 A 
ATOM      5  S   UNL     1      -3.374  -0.839   2.322  0.00  0.00    -0.080 S 
ATOM      6  C   UNL     1      -2.814   0.272   1.147  0.00  0.00    +0.080 A 
ATOM      7  C   UNL     1      -3.269  -0.243  -0.075  0.00  0.00    +0.067 A 
ATOM      8  C   UNL     1      -2.944   0.530  -1.301  0.00  0.00    +0.220 C 
ATOM      9  N   UNL     1      -2.063   1.488  -1.198  0.00  0.00    -0.223 NA
ATOM     10  C   UNL     1      -1.328   1.812   0.018  0.00  0.00    +0.217 C 
ATOM     11  N   UNL     1      -2.083   1.432   1.227  0.00  0.00    -0.313 N 
ATOM     12  C   UNL     1      -4.930  -3.238   1.606  0.00  0.00    -0.035 C 
ATOM     13  H   UNL     1      -2.063   1.970   2.034  0.00  0.00    +0.149 HD
ATOM     14  N   UNL     1      -5.752  -3.633   0.436  0.00  0.00    +0.384 N 
ATOM     15  H   UNL     1      -6.507  -2.948   0.312  0.00  0.00    -0.081 HD
ENDROOT
BRANCH  14  17
ATOM     16  C   UNL     1      -5.249  -6.013   0.872  0.00  0.00    -0.014 C 
ATOM     17  C   UNL     1      -6.346  -4.968   0.664  0.00  0.00    -0.074 C 
ATOM     18  C   UNL     1      -7.239  -4.910   1.905  0.00  0.00    -0.014 C 
ENDBRANCH  14  17
BRANCH  10  19
ATOM     19  C   UNL     1      -0.013   1.076   0.008  0.00  0.00    +0.022 C 
ATOM     20  C   UNL     1       1.130   1.756   0.001  0.00  0.00    +0.045 C 
BRANCH  20  21
ATOM     21  C   UNL     1       2.413   1.038  -0.015  0.00  0.00    +0.127 A 
ATOM     22  C   UNL     1       3.650   1.610  -0.024  0.00  0.00    +0.049 A 
ATOM     23  C   UNL     1       4.584   0.556  -0.039  0.00  0.00    +0.042 A 
ATOM     24  C   UNL     1       3.882  -0.594  -0.038  0.00  0.00    +0.195 A 
ATOM     25  O   UNL     1       2.571  -0.300  -0.018  0.00  0.00    -0.464 OA
ENDBRANCH  20  21
ENDBRANCH  10  19
BRANCH   8  26
ATOM     26  O   UNL     1      -3.540   0.252  -2.483  0.00  0.00    -0.492 OA
ATOM     27  H   UNL     1      -3.252   0.818  -3.212  0.00  0.00    +0.294 HD
ENDBRANCH   8  26
TORSDOF 4
