REMARK  Name = ZINC36801483
REMARK  7 active torsions:
REMARK  status: ('A' for Active; 'I' for Inactive)
REMARK    1  A    between atoms: C_1  and  C_2
REMARK    2  A    between atoms: C_2  and  C_3
REMARK    3  A    between atoms: C_3  and  C_26
REMARK    4  A    between atoms: N_6  and  C_10
REMARK    5  A    between atoms: C_10  and  C_11
REMARK    6  A    between atoms: C_23  and  C_24
REMARK    7  A    between atoms: C_23  and  C_25
REMARK                            x       y       z     vdW  Elec       q    Type
REMARK                         _______ _______ _______ _____ _____    ______ ____
ROOT
ATOM      1  C   UNL     1       2.034  -0.691  -0.021  0.00  0.00    +0.138 C 
ATOM      2  C   UNL     1       3.232   0.064  -0.561  0.00  0.00    +0.251 C 
ATOM      3  O   UNL     1       4.330   0.156  -0.054  0.00  0.00    -0.272 OA
ATOM      4  N   UNL     1       2.825   0.611  -1.723  0.00  0.00    -0.215 N 
ATOM      5  C   UNL     1       1.548   0.310  -1.989  0.00  0.00    +0.310 C 
ATOM      6  O   UNL     1       0.958   0.689  -2.981  0.00  0.00    -0.252 OA
ATOM      7  N   UNL     1       0.993  -0.460  -1.036  0.00  0.00    -0.281 N 
ATOM      8  H   UNL     1       0.084  -0.798  -1.021  0.00  0.00    +0.152 HD
ENDROOT
BRANCH   1   9
ATOM      9  C   UNL     1       2.341  -2.162   0.099  0.00  0.00    -0.015 A 
ATOM     10  C   UNL     1       2.814  -2.674   1.293  0.00  0.00    +0.007 A 
ATOM     11  C   UNL     1       3.095  -4.023   1.404  0.00  0.00    +0.020 A 
ATOM     12  C   UNL     1       2.903  -4.860   0.320  0.00  0.00    +0.041 A 
ATOM     13  C   UNL     1       2.430  -4.347  -0.875  0.00  0.00    +0.020 A 
ATOM     14  C   UNL     1       2.144  -2.999  -0.983  0.00  0.00    +0.007 A 
ATOM     15 CL   UNL     1       3.256  -6.554   0.458  0.00  0.00    -0.084 Cl
ENDBRANCH   1   9
BRANCH   1  17
ATOM     16  C   UNL     1       1.230   1.354   1.168  0.00  0.00    +0.007 C 
ATOM     17  C   UNL     1       1.603  -0.121   1.332  0.00  0.00    +0.037 C 
ENDBRANCH   1  17
BRANCH   4  18
ATOM     18  C   UNL     1       3.673   1.435  -2.587  0.00  0.00    +0.214 C 
BRANCH  18  19
ATOM     19  C   UNL     1       4.385   0.553  -3.580  0.00  0.00    +0.239 C 
ATOM     20  O   UNL     1       3.999  -0.581  -3.771  0.00  0.00    -0.273 OA
ATOM     21  N   UNL     1       5.452   1.024  -4.257  0.00  0.00    -0.254 N 
ATOM     22  C   UNL     1       5.974   2.299  -3.988  0.00  0.00    +0.059 A 
ATOM     23  C   UNL     1       5.164   3.320  -3.525  0.00  0.00    +0.025 A 
ATOM     24  C   UNL     1       5.708   4.567  -3.274  0.00  0.00    +0.002 A 
ATOM     25  C   UNL     1       7.056   4.793  -3.484  0.00  0.00    +0.002 A 
ATOM     26  C   UNL     1       7.872   3.776  -3.946  0.00  0.00    +0.025 A 
ATOM     27  C   UNL     1       7.336   2.523  -4.198  0.00  0.00    +0.055 A 
ATOM     28  N   UNL     1       8.146   1.478  -4.654  0.00  0.00    -0.282 N 
ATOM     29  C   UNL     1       7.600   0.355  -5.160  0.00  0.00    +0.241 C 
ATOM     30  O   UNL     1       8.320  -0.556  -5.509  0.00  0.00    -0.273 OA
ATOM     31  C   UNL     1       6.109   0.216  -5.295  0.00  0.00    +0.113 C 
ATOM     32  C   UNL     1       5.715  -1.252  -5.127  0.00  0.00    +0.042 C 
ATOM     33  C   UNL     1       5.676   0.709  -6.677  0.00  0.00    +0.042 C 
ATOM     34  H   UNL     1       9.111   1.562  -4.605  0.00  0.00    +0.155 HD
ENDBRANCH  18  19
ENDBRANCH   4  18
TORSDOF 4
