REMARK  Name = ZINC39357295
REMARK  7 active torsions:
REMARK  status: ('A' for Active; 'I' for Inactive)
REMARK    1  A    between atoms: C_1  and  C_2
REMARK    2  A    between atoms: C_8  and  C_29
REMARK    3  A    between atoms: N_16  and  C_17
REMARK    4  A    between atoms: C_17  and  C_18
REMARK    5  A    between atoms: C_18  and  C_19
REMARK    6  A    between atoms: C_32  and  S_35
REMARK    7  A    between atoms: S_35  and  C_36
REMARK                            x       y       z     vdW  Elec       q    Type
REMARK                         _______ _______ _______ _____ _____    ______ ____
ROOT
ATOM      1  C   UNL     1       0.022   1.484  -0.233  0.00  0.00    +0.024 C 
ATOM      2  C   UNL     1       0.035  -0.045  -0.173  0.00  0.00    +0.062 C 
ATOM      3  C   UNL     1      -1.404  -0.573  -0.150  0.00  0.00    +0.114 C 
ATOM      4  C   UNL     1      -1.355  -2.066   0.047  0.00  0.00    +0.221 C 
ATOM      5  O   UNL     1      -2.283  -2.745  -0.337  0.00  0.00    -0.275 OA
ATOM      6  N   UNL     1      -0.308  -2.659   0.636  0.00  0.00    -0.245 N 
ATOM      7  C   UNL     1      -0.314  -4.124   0.803  0.00  0.00    +0.206 C 
ATOM      8  N   UNL     1       0.193  -4.468   2.129  0.00  0.00    -0.339 N 
ATOM      9  C   UNL     1       0.831  -3.639   2.887  0.00  0.00    +0.158 C 
ATOM     10  N   UNL     1       1.066  -2.333   2.531  0.00  0.00    -0.288 N 
ATOM     11  C   UNL     1       0.863  -1.933   1.128  0.00  0.00    +0.239 C 
ATOM     12  N   UNL     1       0.712  -0.486   1.051  0.00  0.00    -0.280 NA
ATOM     13  N   UNL     1       1.296  -4.082   4.103  0.00  0.00    -0.318 N 
ATOM     14  H   UNL     1       1.361  -1.686   3.191  0.00  0.00    +0.152 HD
ATOM     15  H   UNL     1       1.142  -5.000   4.375  0.00  0.00    +0.149 HD
ATOM     16  H   UNL     1       1.601  -0.022   1.159  0.00  0.00    +0.125 HD
ATOM     17  H   UNL     1       0.041  -5.368   2.459  0.00  0.00    +0.164 HD
ENDROOT
BRANCH   7  18
ATOM     18  C   UNL     1      -1.721  -4.640   0.655  0.00  0.00    -0.007 A 
ATOM     19  C   UNL     1      -2.676  -4.323   1.604  0.00  0.00    +0.008 A 
ATOM     20  C   UNL     1      -3.967  -4.795   1.472  0.00  0.00    +0.015 A 
ATOM     21  C   UNL     1      -4.306  -5.590   0.383  0.00  0.00    +0.008 A 
ATOM     22  C   UNL     1      -3.344  -5.906  -0.569  0.00  0.00    +0.015 A 
ATOM     23  C   UNL     1      -2.057  -5.426  -0.432  0.00  0.00    +0.008 A 
BRANCH  21  24
ATOM     24  S   UNL     1      -5.952  -6.195   0.210  0.00  0.00    -0.129 S 
ATOM     25  C   UNL     1      -5.906  -7.159  -1.326  0.00  0.00    +0.090 C 
ENDBRANCH  21  24
ENDBRANCH   7  18
BRANCH  13  26
ATOM     26  C   UNL     1       2.024  -3.169   4.987  0.00  0.00    +0.109 C 
BRANCH  26  27
ATOM     27  C   UNL     1       2.426  -3.908   6.265  0.00  0.00    +0.056 C 
BRANCH  27  28
ATOM     28  C   UNL     1       3.175  -2.967   7.174  0.00  0.00    -0.021 A 
ATOM     29  C   UNL     1       4.508  -2.826   7.254  0.00  0.00    +0.087 A 
ATOM     30  N   UNL     1       4.821  -1.879   8.191  0.00  0.00    -0.360 N 
ATOM     31  H   UNL     1       5.721  -1.604   8.425  0.00  0.00    +0.165 HD
ATOM     32  C   UNL     1       3.668  -1.375   8.750  0.00  0.00    +0.047 A 
ATOM     33  C   UNL     1       2.587  -2.030   8.133  0.00  0.00    +0.003 A 
ATOM     34  C   UNL     1       1.278  -1.713   8.502  0.00  0.00    +0.010 A 
ATOM     35  C   UNL     1       1.054  -0.764   9.460  0.00  0.00    +0.001 A 
ATOM     36  C   UNL     1       2.118  -0.112  10.068  0.00  0.00    +0.002 A 
ATOM     37  C   UNL     1       3.417  -0.416   9.726  0.00  0.00    +0.026 A 
ENDBRANCH  27  28
ENDBRANCH  26  27
ENDBRANCH  13  26
TORSDOF 5
