REMARK  Name = ZINC67456279
REMARK  6 active torsions:
REMARK  status: ('A' for Active; 'I' for Inactive)
REMARK    1  A    between atoms: C_7  and  C_11
REMARK    2  A    between atoms: C_11  and  N_12
REMARK    3  A    between atoms: N_15  and  C_16
REMARK    4  A    between atoms: C_16  and  C_17
REMARK    5  A    between atoms: N_22  and  C_23
REMARK    6  A    between atoms: C_23  and  C_24
REMARK                            x       y       z     vdW  Elec       q    Type
REMARK                         _______ _______ _______ _____ _____    ______ ____
ROOT
ATOM      1  N   UNL     1      -0.684  -4.575   6.415  0.00  0.00    -0.292 N 
ATOM      2  C   UNL     1       0.569  -4.077   6.397  0.00  0.00    +0.300 C 
ATOM      3  O   UNL     1       1.302  -4.309   5.455  0.00  0.00    -0.253 OA
ATOM      4  N   UNL     1       1.009  -3.323   7.423  0.00  0.00    -0.301 N 
ATOM      5  H   UNL     1      -1.268  -4.390   7.167  0.00  0.00    +0.151 HD
ATOM      6  H   UNL     1       0.425  -3.138   8.175  0.00  0.00    +0.150 HD
ENDROOT
BRANCH   1   7
ATOM      7  C   UNL     1      -1.162  -5.395   5.299  0.00  0.00    +0.182 C 
BRANCH   7  14
ATOM      8  C   UNL     1      -3.670  -9.453   8.092  0.00  0.00    +0.002 C 
ATOM      9  C   UNL     1      -4.720  -8.350   8.186  0.00  0.00    +0.008 C 
ATOM     10  C   UNL     1      -5.220  -7.996   6.782  0.00  0.00    +0.076 C 
ATOM     11  C   UNL     1      -4.331  -6.929   6.197  0.00  0.00    +0.133 A 
ATOM     12  N   UNL     1      -4.704  -5.837   5.594  0.00  0.00    -0.134 NA
ATOM     13  N   UNL     1      -3.665  -5.178   5.214  0.00  0.00    -0.133 NA
ATOM     14  C   UNL     1      -2.583  -5.822   5.563  0.00  0.00    +0.151 A 
ATOM     15  N   UNL     1      -2.977  -6.944   6.205  0.00  0.00    -0.314 N 
ATOM     16  C   UNL     1      -2.121  -7.967   6.807  0.00  0.00    +0.125 C 
ATOM     17  C   UNL     1      -2.857  -9.310   6.806  0.00  0.00    +0.022 C 
ENDBRANCH   7  14
ENDBRANCH   1   7
BRANCH   4  18
ATOM     18  C   UNL     1       2.371  -2.782   7.404  0.00  0.00    +0.090 C 
BRANCH  18  19
ATOM     19  C   UNL     1       2.574  -1.870   8.615  0.00  0.00    -0.051 C 
ATOM     20  C   UNL     1       2.478  -2.695   9.916  0.00  0.00    -0.016 C 
ATOM     21  C   UNL     1       3.574  -2.061  10.813  0.00  0.00    -0.020 C 
ATOM     22  C   UNL     1       4.668  -1.713   9.773  0.00  0.00    -0.078 C 
ATOM     23  N   UNL     1       3.921  -1.272   8.571  0.00  0.00    +0.383 N 
ATOM     24  H   UNL     1       3.846  -0.265   8.566  0.00  0.00    -0.081 HD
BRANCH  23  25
ATOM     25  C   UNL     1       4.622  -1.719   7.360  0.00  0.00    -0.075 C 
BRANCH  25  26
ATOM     26  C   UNL     1       5.981  -1.022   7.271  0.00  0.00    -0.028 C 
ATOM     27  C   UNL     1       5.772   0.482   7.085  0.00  0.00    +0.002 C 
ATOM     28  C   UNL     1       7.131   1.179   6.995  0.00  0.00    +0.000 C 
ATOM     29  C   UNL     1       7.912   0.621   5.803  0.00  0.00    +0.000 C 
ATOM     30  C   UNL     1       8.121  -0.883   5.989  0.00  0.00    +0.000 C 
ATOM     31  C   UNL     1       6.762  -1.580   6.079  0.00  0.00    +0.002 C 
ENDBRANCH  25  26
ENDBRANCH  23  25
ENDBRANCH  18  19
ENDBRANCH   4  18
TORSDOF 6
