REMARK  Name = ZINC00211969
REMARK  5 active torsions:
REMARK  status: ('A' for Active; 'I' for Inactive)
REMARK    1  A    between atoms: C_1  and  O_2
REMARK    2  A    between atoms: O_2  and  C_3
REMARK    3  A    between atoms: C_6  and  C_11
REMARK    4  A    between atoms: C_8  and  O_9
REMARK    5  A    between atoms: O_9  and  C_10
REMARK                            x       y       z     vdW  Elec       q    Type
REMARK                         _______ _______ _______ _____ _____    ______ ____
ROOT
ATOM      1  C   UNL     1       3.731  -3.435  -0.054  0.00  0.00    +0.007 C 
ATOM      2  C   UNL     1       2.956  -2.138  -0.037  0.00  0.00    +0.010 A 
ATOM      3  C   UNL     1       1.609  -2.088  -0.023  0.00  0.00    -0.022 A 
ATOM      4  C   UNL     1       1.223  -0.683  -0.013  0.00  0.00    +0.003 A 
ATOM      5  C   UNL     1       0.002  -0.004   0.002  0.00  0.00    +0.010 A 
ATOM      6  C   UNL     1      -0.016   1.361   0.009  0.00  0.00    +0.001 A 
ATOM      7  C   UNL     1       1.170   2.083   0.002  0.00  0.00    +0.002 A 
ATOM      8  C   UNL     1       2.385   1.435  -0.013  0.00  0.00    +0.026 A 
ATOM      9  C   UNL     1       2.429   0.045  -0.021  0.00  0.00    +0.047 A 
ATOM     10  N   UNL     1       3.460  -0.870  -0.036  0.00  0.00    -0.359 N 
ATOM     11  H   UNL     1       4.403  -0.645  -0.045  0.00  0.00    +0.166 HD
ATOM     12  C   UNL     1       0.725  -3.310  -0.016  0.00  0.00    +0.018 C 
ATOM     13  C   UNL     1       1.594  -4.517   0.364  0.00  0.00    -0.076 C 
ATOM     14  N   UNL     1       2.818  -4.527  -0.463  0.00  0.00    +0.387 N 
ATOM     15  H   UNL     1       3.297  -5.428  -0.347  0.00  0.00    -0.084 HD
ATOM     16  H   UNL     1       2.561  -4.400  -1.449  0.00  0.00    -0.084 HD
ENDROOT
BRANCH   1  20
ATOM     17  C   UNL     1       6.941  -3.159  -2.866  0.00  0.00    +0.161 A 
ATOM     18  C   UNL     1       5.652  -3.421  -3.305  0.00  0.00    +0.049 A 
ATOM     19  C   UNL     1       4.618  -3.515  -2.393  0.00  0.00    +0.006 A 
ATOM     20  C   UNL     1       4.863  -3.337  -1.044  0.00  0.00    -0.052 A 
ATOM     21  C   UNL     1       6.146  -3.076  -0.600  0.00  0.00    +0.051 A 
ATOM     22  C   UNL     1       7.189  -2.986  -1.508  0.00  0.00    +0.162 A 
BRANCH  17  24
ATOM     23  C   UNL     1       7.632  -3.260  -5.140  0.00  0.00    +0.277 C 
ATOM     24  O   UNL     1       7.961  -3.072  -3.762  0.00  0.00    -0.491 OA
ENDBRANCH  17  24
BRANCH  22  25
ATOM     25  O   UNL     1       8.451  -2.729  -1.073  0.00  0.00    -0.491 OA
ATOM     26  C   UNL     1       8.631  -2.562   0.335  0.00  0.00    +0.277 C 
ENDBRANCH  22  25
ENDBRANCH   1  20
TORSDOF 3
