REMARK  Name = ZINC43218821
REMARK  8 active torsions:
REMARK  status: ('A' for Active; 'I' for Inactive)
REMARK    1  A    between atoms: C_1  and  O_2
REMARK    2  A    between atoms: O_2  and  C_3
REMARK    3  A    between atoms: C_7  and  C_17
REMARK    4  A    between atoms: C_8  and  O_9
REMARK    5  A    between atoms: O_9  and  C_10
REMARK    6  A    between atoms: C_10  and  C_11
REMARK    7  A    between atoms: C_28  and  C_30
REMARK    8  A    between atoms: C_28  and  C_36
REMARK                            x       y       z     vdW  Elec       q    Type
REMARK                         _______ _______ _______ _____ _____    ______ ____
ROOT
ATOM      1  C   UNL     1      -2.549  -4.175   0.017  0.00  0.00    -0.022 C 
ATOM      2  C   UNL     1      -2.394  -4.720  -1.398  0.00  0.00    +0.079 C 
ATOM      3  C   UNL     1      -3.834  -4.338  -1.912  0.00  0.00    +0.092 C 
ATOM      4  C   UNL     1      -3.671  -4.389  -3.344  0.00  0.00    +0.242 C 
ATOM      5  O   UNL     1      -4.610  -4.690  -4.254  0.00  0.00    -0.273 OA
ATOM      6  N   UNL     1      -2.396  -4.076  -3.577  0.00  0.00    -0.145 NA
ATOM      7  C   UNL     1      -1.629  -3.971  -2.444  0.00  0.00    +0.242 C 
ATOM      8  O   UNL     1      -0.568  -3.396  -2.310  0.00  0.00    -0.273 OA
ATOM      9  C   UNL     1      -4.718  -4.837  -0.852  0.00  0.00    +0.074 C 
ATOM     10  N   UNL     1      -3.915  -4.648   0.418  0.00  0.00    +0.398 N 
ATOM     11  H   UNL     1      -3.844  -5.529   0.903  0.00  0.00    -0.083 HD
ATOM     12  H   UNL     1      -4.354  -3.961   1.014  0.00  0.00    -0.083 HD
ENDROOT
BRANCH   1  17
ATOM     13  C   UNL     1      -1.201  -0.638   0.010  0.00  0.00    +0.162 A 
ATOM     14  C   UNL     1      -2.374   0.099   0.019  0.00  0.00    +0.049 A 
ATOM     15  C   UNL     1      -3.596  -0.546   0.027  0.00  0.00    +0.004 A 
ATOM     16  C   UNL     1      -3.652  -1.928   0.026  0.00  0.00    +0.006 A 
ATOM     17  C   UNL     1      -2.485  -2.669   0.017  0.00  0.00    -0.015 A 
ATOM     18  C   UNL     1      -1.257  -2.028   0.003  0.00  0.00    +0.164 A 
BRANCH  13  20
ATOM     19  C   UNL     1      -0.017   1.425   0.010  0.00  0.00    +0.277 C 
ATOM     20  O   UNL     1       0.002  -0.004   0.002  0.00  0.00    -0.491 OA
ENDBRANCH  13  20
BRANCH  18  21
ATOM     21  O   UNL     1      -0.108  -2.756  -0.012  0.00  0.00    -0.484 OA
BRANCH  21  22
ATOM     22  C   UNL     1       0.452  -3.110   1.254  0.00  0.00    +0.264 C 
BRANCH  22  23
ATOM     23  C   UNL     1       1.712  -3.909   1.041  0.00  0.00    -0.010 A 
ATOM     24  C   UNL     1       1.648  -5.286   0.938  0.00  0.00    +0.007 A 
ATOM     25  C   UNL     1       2.804  -6.019   0.742  0.00  0.00    +0.000 A 
ATOM     26  C   UNL     1       4.023  -5.374   0.648  0.00  0.00    +0.000 A 
ATOM     27  C   UNL     1       4.087  -3.997   0.750  0.00  0.00    +0.000 A 
ATOM     28  C   UNL     1       2.930  -3.264   0.942  0.00  0.00    +0.007 A 
ENDBRANCH  22  23
ENDBRANCH  21  22
ENDBRANCH  18  21
ENDBRANCH   1  17
BRANCH   9  29
ATOM     29  C   UNL     1      -5.979  -4.014  -0.788  0.00  0.00    -0.047 A 
ATOM     30  C   UNL     1      -6.478  -3.424  -1.934  0.00  0.00    +0.003 A 
ATOM     31  C   UNL     1      -7.635  -2.669  -1.876  0.00  0.00    +0.000 A 
ATOM     32  C   UNL     1      -8.292  -2.504  -0.671  0.00  0.00    +0.000 A 
ATOM     33  C   UNL     1      -7.794  -3.095   0.475  0.00  0.00    +0.000 A 
ATOM     34  C   UNL     1      -6.640  -3.853   0.416  0.00  0.00    +0.003 A 
ENDBRANCH   9  29
BRANCH   9  35
ATOM     35  C   UNL     1      -5.048  -6.289  -1.081  0.00  0.00    +0.350 C 
ATOM     36  O   UNL     1      -4.747  -7.122  -0.243  0.00  0.00    -0.248 OA
ATOM     37  O   UNL     1      -5.614  -6.631  -2.105  0.00  0.00    -0.248 OA
ENDBRANCH   9  35
TORSDOF 7
