REMARK  Name = ZINC39747184
REMARK  4 active torsions:
REMARK  status: ('A' for Active; 'I' for Inactive)
REMARK    1  A    between atoms: C_7  and  C_10
REMARK    2  A    between atoms: N_11  and  N_12
REMARK    3  A    between atoms: C_13  and  C_20
REMARK    4  A    between atoms: C_17  and  S_19
REMARK                            x       y       z     vdW  Elec       q    Type
REMARK                         _______ _______ _______ _____ _____    ______ ____
ROOT
ATOM      1  N   UNL     1       0.327  -5.353  -0.031  0.00  0.00    -0.201 N 
ATOM      2  C   UNL     1       0.682  -6.782  -0.037  0.00  0.00    +0.280 C 
ATOM      3  N   UNL     1      -0.593  -7.535  -0.032  0.00  0.00    -0.225 NA
ATOM      4  N   UNL     1      -1.569  -6.597   0.544  0.00  0.00    -0.225 NA
ATOM      5  C   UNL     1      -1.149  -5.288  -0.016  0.00  0.00    +0.231 C 
ATOM      6  H   UNL     1      -0.858  -7.803  -0.968  0.00  0.00    +0.143 HD
ATOM      7  H   UNL     1      -1.512  -6.589   1.552  0.00  0.00    +0.143 HD
ENDROOT
BRANCH   2   8
ATOM      8  C   UNL     1       1.485  -7.118  -1.296  0.00  0.00    +0.424 C 
ATOM      9  F   UNL     1       2.656  -6.353  -1.320  0.00  0.00    -0.167 F 
ATOM     10  F   UNL     1       1.816  -8.477  -1.289  0.00  0.00    -0.167 F 
ATOM     11  F   UNL     1       0.717  -6.830  -2.429  0.00  0.00    -0.167 F 
ENDBRANCH   2   8
BRANCH   1  13
ATOM     12  C   UNL     1       0.679  -3.127  -0.022  0.00  0.00    +0.136 C 
ATOM     13  N   UNL     1       1.143  -4.354  -0.034  0.00  0.00    -0.188 NA
BRANCH  12  20
ATOM     14  C   UNL     1      -0.016   1.354   0.009  0.00  0.00    +0.001 A 
ATOM     15  C   UNL     1       1.163   2.101   0.002  0.00  0.00    +0.002 A 
ATOM     16  C   UNL     1       2.384   1.511  -0.013  0.00  0.00    +0.026 A 
ATOM     17  C   UNL     1       2.483   0.095  -0.022  0.00  0.00    +0.043 A 
ATOM     18  N   UNL     1       3.530  -0.705  -0.037  0.00  0.00    -0.380 N 
ATOM     19  C   UNL     1       3.075  -2.099  -0.040  0.00  0.00    +0.150 C 
ATOM     20  C   UNL     1       1.563  -2.045  -0.025  0.00  0.00    +0.000 C 
ATOM     21  C   UNL     1       1.236  -0.687  -0.013  0.00  0.00    +0.004 A 
ATOM     22  C   UNL     1       0.002  -0.004   0.002  0.00  0.00    +0.010 A 
ATOM     23  H   UNL     1       4.457  -0.418  -0.044  0.00  0.00    +0.160 HD
ENDBRANCH  12  20
ENDBRANCH   1  13
BRANCH   5  24
ATOM     24  S   UNL     1      -1.793  -5.088  -1.700  0.00  0.00    -0.138 S 
ATOM     25  H   UNL     1      -3.127  -5.046  -1.535  0.00  0.00    +0.105 HD
ENDBRANCH   5  24
TORSDOF 4
