REMARK  Name = ZINC47629261
REMARK  11 active torsions:
REMARK  status: ('A' for Active; 'I' for Inactive)
REMARK    1  A    between atoms: C_1  and  C_2
REMARK    2  A    between atoms: C_2  and  O_3
REMARK    3  A    between atoms: O_3  and  C_4
REMARK    4  A    between atoms: C_4  and  C_6
REMARK    5  A    between atoms: C_10  and  N_11
REMARK    6  A    between atoms: C_12  and  C_14
REMARK    7  A    between atoms: C_14  and  N_15
REMARK    8  A    between atoms: N_15  and  C_16
REMARK    9  A    between atoms: N_15  and  C_17
REMARK   10  A    between atoms: C_17  and  C_18
REMARK   11  A    between atoms: C_22  and  C_26
REMARK                            x       y       z     vdW  Elec       q    Type
REMARK                         _______ _______ _______ _____ _____    ______ ____
ROOT
ATOM      1  C   UNL     1      -2.842  -2.416   0.016  0.00  0.00    +0.091 A 
ATOM      2  C   UNL     1      -3.548  -2.714  -1.219  0.00  0.00    -0.021 A 
ATOM      3  C   UNL     1      -4.777  -3.243  -1.039  0.00  0.00    -0.004 A 
ATOM      4  S   UNL     1      -4.974  -3.336   0.716  0.00  0.00    -0.077 S 
ATOM      5  C   UNL     1      -3.495  -2.708   1.205  0.00  0.00    +0.086 A 
ATOM      6  C   UNL     1      -5.743  -3.656  -2.106  0.00  0.00    +0.046 C 
ATOM      7  C   UNL     1      -4.984  -3.738  -3.439  0.00  0.00    -0.009 C 
ATOM      8  C   UNL     1      -4.148  -2.467  -3.612  0.00  0.00    +0.008 C 
ATOM      9  C   UNL     1      -2.989  -2.466  -2.612  0.00  0.00    +0.037 C 
ATOM     10  C   UNL     1      -5.983  -3.859  -4.591  0.00  0.00    +0.008 C 
ENDROOT
BRANCH   5  11
ATOM     11  N   UNL     1      -3.034  -2.523   2.498  0.00  0.00    -0.281 N 
ATOM     12  C   UNL     1      -3.809  -2.866   3.546  0.00  0.00    +0.201 C 
ATOM     13  O   UNL     1      -4.910  -3.338   3.357  0.00  0.00    -0.278 OA
ATOM     14  H   UNL     1      -2.153  -2.146   2.650  0.00  0.00    +0.155 HD
BRANCH  12  15
ATOM     15  C   UNL     1      -3.307  -2.665   4.953  0.00  0.00    +0.019 C 
BRANCH  15  16
ATOM     16  N   UNL     1      -4.330  -3.114   5.907  0.00  0.00    +0.389 N 
ATOM     17  C   UNL     1      -4.526  -4.563   5.768  0.00  0.00    -0.095 C 
ATOM     18  H   UNL     1      -5.199  -2.637   5.717  0.00  0.00    -0.081 HD
BRANCH  16  19
ATOM     19  C   UNL     1      -3.891  -2.808   7.275  0.00  0.00    +0.019 C 
BRANCH  19  20
ATOM     20  C   UNL     1      -4.991  -3.155   8.245  0.00  0.00    +0.194 C 
ATOM     21  O   UNL     1      -6.037  -3.613   7.836  0.00  0.00    -0.278 OA
ATOM     22  N   UNL     1      -4.812  -2.958   9.566  0.00  0.00    -0.331 N 
ATOM     23  H   UNL     1      -3.976  -2.591   9.892  0.00  0.00    +0.145 HD
ATOM     24  H   UNL     1      -5.521  -3.182  10.190  0.00  0.00    +0.145 HD
ENDBRANCH  19  20
ENDBRANCH  16  19
ENDBRANCH  15  16
ENDBRANCH  12  15
ENDBRANCH   5  11
BRANCH   1  25
ATOM     25  C   UNL     1      -1.497  -1.838   0.006  0.00  0.00    +0.342 C 
ATOM     26  O   UNL     1      -0.523  -2.566  -0.007  0.00  0.00    -0.245 OA
BRANCH  25  27
ATOM     27  O   UNL     1      -1.339  -0.499   0.012  0.00  0.00    -0.461 OA
BRANCH  27  29
ATOM     28  C   UNL     1      -0.019   1.526   0.010  0.00  0.00    +0.048 C 
ATOM     29  C   UNL     1       0.002  -0.004   0.002  0.00  0.00    +0.229 C 
ENDBRANCH  27  29
ENDBRANCH  25  27
ENDBRANCH   1  25
TORSDOF 8
