REMARK  Name = ZINC08299591
REMARK  3 active torsions:
REMARK  status: ('A' for Active; 'I' for Inactive)
REMARK    1  A    between atoms: C_8  and  C_10
REMARK    2  A    between atoms: N_17  and  C_20
REMARK    3  A    between atoms: C_20  and  C_21
REMARK                            x       y       z     vdW  Elec       q    Type
REMARK                         _______ _______ _______ _____ _____    ______ ____
ROOT
ATOM      1  C   UNL     1      -0.018   1.464   0.010  0.00  0.00    +0.127 C 
ATOM      2  C   UNL     1       1.429   1.985  -0.001  0.00  0.00    +0.129 C 
ATOM      3  N   UNL     1       2.162   1.218  -1.012  0.00  0.00    -0.271 N 
ATOM      4  C   UNL     1       2.172  -0.261  -1.066  0.00  0.00    +0.181 C 
ATOM      5  C   UNL     1       0.709  -0.721  -1.071  0.00  0.00    +0.139 C 
ATOM      6  N   UNL     1       0.002  -0.004   0.002  0.00  0.00    -0.299 N 
ATOM      7  C   UNL     1      -0.625  -0.693   0.976  0.00  0.00    +0.202 C 
ATOM      8  O   UNL     1      -0.608  -1.906   0.968  0.00  0.00    -0.277 OA
ATOM      9  C   UNL     1       2.831  -0.573  -2.391  0.00  0.00    +0.246 C 
ATOM     10  O   UNL     1       2.965  -1.663  -2.903  0.00  0.00    -0.273 OA
ATOM     11  N   UNL     1       3.227   0.649  -2.875  0.00  0.00    -0.215 N 
ATOM     12  C   UNL     1       2.877   1.650  -2.054  0.00  0.00    +0.312 C 
ATOM     13  O   UNL     1       3.176   2.814  -2.236  0.00  0.00    -0.252 OA
ENDROOT
BRANCH   7  14
ATOM     14  C   UNL     1      -1.348   0.043   2.074  0.00  0.00    +0.027 C 
ATOM     15  C   UNL     1      -0.321   0.527   3.130  0.00  0.00    +0.060 C 
ATOM     16  S   UNL     1      -1.327   0.449   4.671  0.00  0.00    -0.181 S 
ATOM     17  C   UNL     1      -2.876  -0.242   3.946  0.00  0.00    -0.011 C 
ATOM     18  N   UNL     1      -2.337  -0.862   2.695  0.00  0.00    +0.393 N 
ATOM     19  H   UNL     1      -1.886  -1.755   2.923  0.00  0.00    -0.084 HD
ATOM     20  H   UNL     1      -3.109  -1.027   2.037  0.00  0.00    -0.084 HD
ENDBRANCH   7  14
BRANCH  11  21
ATOM     21  C   UNL     1       3.958   0.832  -4.131  0.00  0.00    +0.213 C 
BRANCH  21  22
ATOM     22  C   UNL     1       5.439   0.755  -3.867  0.00  0.00    +0.228 C 
ATOM     23  O   UNL     1       5.845   0.566  -2.740  0.00  0.00    -0.274 OA
ATOM     24  N   UNL     1       6.313   0.897  -4.883  0.00  0.00    -0.328 N 
ATOM     25  H   UNL     1       5.989   1.048  -5.784  0.00  0.00    +0.145 HD
ATOM     26  H   UNL     1       7.267   0.847  -4.712  0.00  0.00    +0.145 HD
ENDBRANCH  21  22
ENDBRANCH  11  21
TORSDOF 3
