REMARK  Name = ZINC37662187
REMARK  4 active torsions:
REMARK  status: ('A' for Active; 'I' for Inactive)
REMARK    1  A    between atoms: N_12  and  S_13
REMARK    2  A    between atoms: S_13  and  C_16
REMARK    3  A    between atoms: C_16  and  C_17
REMARK    4  A    between atoms: C_17  and  C_18
REMARK                            x       y       z     vdW  Elec       q    Type
REMARK                         _______ _______ _______ _____ _____    ______ ____
ROOT
ATOM      1  S   UNL     1       3.658   0.533   0.888  0.00  0.00    +0.032 S 
ATOM      2  O   UNL     1       4.755  -0.064   1.566  0.00  0.00    -0.158 OA
ATOM      3  O   UNL     1       3.871   1.564  -0.067  0.00  0.00    -0.158 OA
ENDROOT
BRANCH   1  13
ATOM      4  C   UNL     1       5.921  -1.049  -1.877  0.00  0.00    +0.000 C 
ATOM      5  C   UNL     1       5.871  -0.730  -0.381  0.00  0.00    +0.002 C 
ATOM      6  C   UNL     1       5.117  -1.845   0.346  0.00  0.00    +0.021 C 
ATOM      7  C   UNL     1       3.698  -1.955  -0.201  0.00  0.00    +0.083 C 
ATOM      8  C   UNL     1       3.728  -2.227  -1.707  0.00  0.00    +0.008 C 
ATOM      9  C   UNL     1       4.495  -1.130  -2.424  0.00  0.00    +0.005 C 
ATOM     10  C   UNL     1       2.287  -2.252  -2.231  0.00  0.00    +0.006 C 
ATOM     11  C   UNL     1       1.643  -0.882  -2.005  0.00  0.00    +0.017 C 
ATOM     12  C   UNL     1       1.605  -0.576  -0.504  0.00  0.00    +0.109 C 
ATOM     13  N   UNL     1       2.968  -0.703   0.029  0.00  0.00    -0.178 NA
ENDBRANCH   1  13
BRANCH   1  14
ATOM     14  C   UNL     1       2.388   1.039   2.080  0.00  0.00    +0.183 C 
BRANCH  14  15
ATOM     15  C   UNL     1       2.968   2.089   3.030  0.00  0.00    +0.008 C 
BRANCH  15  16
ATOM     16  C   UNL     1       1.896   2.515   4.035  0.00  0.00    -0.070 C 
ATOM     17  C   UNL     1       2.436   3.654   4.902  0.00  0.00    -0.016 C 
ATOM     18  C   UNL     1       1.360   4.078   5.907  0.00  0.00    -0.003 C 
ATOM     19  C   UNL     1       0.945   2.861   6.739  0.00  0.00    -0.019 C 
ATOM     20  C   UNL     1       0.461   1.751   5.803  0.00  0.00    -0.082 C 
ATOM     21  N   UNL     1       1.543   1.373   4.886  0.00  0.00    +0.381 N 
ATOM     22  H   UNL     1       1.238   0.605   4.307  0.00  0.00    -0.086 HD
ATOM     23  H   UNL     1       2.351   1.089   5.420  0.00  0.00    -0.086 HD
ENDBRANCH  15  16
ENDBRANCH  14  15
ENDBRANCH   1  14
TORSDOF 4
