REMARK  Name = ZINC47109628
REMARK  7 active torsions:
REMARK  status: ('A' for Active; 'I' for Inactive)
REMARK    1  A    between atoms: C_1  and  N_2
REMARK    2  A    between atoms: N_2  and  C_3
REMARK    3  A    between atoms: C_3  and  C_4
REMARK    4  A    between atoms: C_7  and  C_9
REMARK    5  A    between atoms: C_9  and  C_10
REMARK    6  A    between atoms: C_10  and  C_11
REMARK    7  A    between atoms: C_20  and  C_21
REMARK                            x       y       z     vdW  Elec       q    Type
REMARK                         _______ _______ _______ _____ _____    ______ ____
ROOT
ATOM      1  C   UNL     1       0.077  -0.269  -5.024  0.00  0.00    -0.014 A 
ATOM      2  C   UNL     1      -1.033   0.321  -5.770  0.00  0.00    +0.003 A 
ATOM      3  C   UNL     1      -2.425   0.238  -5.661  0.00  0.00    +0.010 A 
ATOM      4  C   UNL     1      -3.216   0.929  -6.535  0.00  0.00    +0.001 A 
ATOM      5  C   UNL     1      -2.649   1.713  -7.531  0.00  0.00    +0.002 A 
ATOM      6  C   UNL     1      -1.280   1.809  -7.657  0.00  0.00    +0.026 A 
ATOM      7  C   UNL     1      -0.454   1.115  -6.778  0.00  0.00    +0.047 A 
ATOM      8  N   UNL     1       0.913   1.012  -6.650  0.00  0.00    -0.354 N 
ATOM      9  H   UNL     1       1.562   1.457  -7.217  0.00  0.00    +0.166 HD
ATOM     10  C   UNL     1       1.221   0.185  -5.595  0.00  0.00    +0.051 A 
ENDROOT
BRANCH  10  11
ATOM     11  C   UNL     1       2.589  -0.159  -5.151  0.00  0.00    -0.001 A 
ATOM     12  C   UNL     1       2.928  -0.081  -3.799  0.00  0.00    +0.013 A 
ATOM     13  C   UNL     1       4.205  -0.402  -3.391  0.00  0.00    +0.039 A 
ATOM     14  C   UNL     1       5.152  -0.802  -4.320  0.00  0.00    +0.123 A 
ATOM     15  C   UNL     1       4.822  -0.881  -5.664  0.00  0.00    +0.039 A 
ATOM     16  C   UNL     1       3.545  -0.568  -6.082  0.00  0.00    +0.013 A 
ATOM     17  F   UNL     1       6.402  -1.116  -3.915  0.00  0.00    -0.205 F 
ENDBRANCH  10  11
BRANCH   1  18
ATOM     18  C   UNL     1      -0.029  -1.199  -3.844  0.00  0.00    +0.047 C 
BRANCH  18  19
ATOM     19  C   UNL     1       0.016  -2.649  -4.331  0.00  0.00    +0.101 C 
BRANCH  19  22
ATOM     20  C   UNL     1       0.068  -5.459  -4.692  0.00  0.00    +0.132 C 
ATOM     21  N   UNL     1      -0.022  -4.913  -3.336  0.00  0.00    -0.296 N 
ATOM     22  C   UNL     1      -0.048  -3.579  -3.147  0.00  0.00    +0.216 C 
ATOM     23  O   UNL     1      -0.122  -3.127  -2.024  0.00  0.00    -0.276 OA
BRANCH  21  24
ATOM     24  C   UNL     1      -0.084  -5.817  -2.184  0.00  0.00    +0.202 C 
BRANCH  24  25
ATOM     25  C   UNL     1       1.313  -6.112  -1.702  0.00  0.00    +0.228 C 
ATOM     26  O   UNL     1       2.266  -5.617  -2.264  0.00  0.00    -0.274 OA
ATOM     27  N   UNL     1       1.502  -6.928  -0.645  0.00  0.00    -0.328 N 
ATOM     28  H   UNL     1       0.740  -7.324  -0.196  0.00  0.00    +0.145 HD
ATOM     29  H   UNL     1       2.401  -7.118  -0.335  0.00  0.00    +0.145 HD
ENDBRANCH  24  25
ENDBRANCH  21  24
ENDBRANCH  19  22
ENDBRANCH  18  19
ENDBRANCH   1  18
TORSDOF 6
