REMARK  Name = ZINC04268024
REMARK  12 active torsions:
REMARK  status: ('A' for Active; 'I' for Inactive)
REMARK    1  A    between atoms: C_1  and  C_2
REMARK    2  A    between atoms: C_2  and  C_3
REMARK    3  A    between atoms: C_2  and  C_4
REMARK    4  A    between atoms: C_2  and  C_5
REMARK    5  A    between atoms: C_7  and  C_16
REMARK    6  A    between atoms: C_9  and  C_12
REMARK    7  A    between atoms: C_10  and  O_11
REMARK    8  A    between atoms: C_12  and  C_13
REMARK    9  A    between atoms: C_12  and  C_14
REMARK   10  A    between atoms: C_12  and  C_15
REMARK   11  A    between atoms: C_17  and  N_48
REMARK   12  A    between atoms: N_18  and  C_19
REMARK                            x       y       z     vdW  Elec       q    Type
REMARK                         _______ _______ _______ _____ _____    ______ ____
ROOT
ATOM      1  C   UNL     1       0.017   1.868   3.990  0.00  0.00    +0.000 A 
ATOM      2  C   UNL     1       0.833   0.943   3.377  0.00  0.00    +0.019 A 
ATOM      3  C   UNL     1       1.803   0.269   4.121  0.00  0.00    +0.013 A 
ATOM      4  C   UNL     1       1.935   0.528   5.486  0.00  0.00    +0.019 A 
ATOM      5  C   UNL     1       1.112   1.451   6.093  0.00  0.00    +0.000 A 
ATOM      6  C   UNL     1       0.151   2.124   5.348  0.00  0.00    +0.124 A 
ENDROOT
BRANCH   3   7
ATOM      7  C   UNL     1       2.684  -0.722   3.465  0.00  0.00    +0.099 C 
ATOM      8  C   UNL     1       4.760  -2.039   3.603  0.00  0.00    +0.140 C 
ATOM      9  N   UNL     1       2.552  -0.976   2.117  0.00  0.00    -0.333 N 
ATOM     10  C   UNL     1       3.530  -1.825   1.433  0.00  0.00    +0.127 C 
ATOM     11  H   UNL     1       1.812  -0.593   1.622  0.00  0.00    +0.147 HD
ATOM     12  N   UNL     1       3.579  -1.355   4.233  0.00  0.00    -0.376 N 
ATOM     13  H   UNL     1       3.458  -1.375   5.253  0.00  0.00    +0.160 HD
ENDBRANCH   3   7
BRANCH   1  15
ATOM     14  C   UNL     1      -0.966   2.138   1.729  0.00  0.00    +0.015 C 
ATOM     15  C   UNL     1      -1.027   2.600   3.186  0.00  0.00    -0.009 C 
ATOM     16  C   UNL     1      -0.762   4.105   3.255  0.00  0.00    +0.015 C 
ATOM     17  C   UNL     1      -2.414   2.300   3.758  0.00  0.00    +0.015 C 
ENDBRANCH   1  15
BRANCH   5  18
ATOM     18  C   UNL     1       1.254   1.731   7.567  0.00  0.00    -0.009 C 
ATOM     19  C   UNL     1       2.375   0.865   8.145  0.00  0.00    +0.015 C 
ATOM     20  C   UNL     1       1.591   3.209   7.775  0.00  0.00    +0.015 C 
ATOM     21  C   UNL     1      -0.061   1.404   8.277  0.00  0.00    +0.015 C 
ENDBRANCH   5  18
BRANCH   6  22
ATOM     22  O   UNL     1      -0.658   3.033   5.950  0.00  0.00    -0.506 OA
ATOM     23  H   UNL     1      -1.477   2.659   6.302  0.00  0.00    +0.292 HD
ENDBRANCH   6  22
TORSDOF 4
