REMARK  Name = ZINC22313519
REMARK  8 active torsions:
REMARK  status: ('A' for Active; 'I' for Inactive)
REMARK    1  A    between atoms: C_1  and  C_2
REMARK    2  A    between atoms: C_4  and  C_30
REMARK    3  A    between atoms: C_8  and  N_29
REMARK    4  A    between atoms: C_9  and  C_11
REMARK    5  A    between atoms: C_11  and  O_13
REMARK    6  A    between atoms: O_13  and  C_14
REMARK    7  A    between atoms: C_14  and  C_15
REMARK    8  A    between atoms: N_17  and  C_18
REMARK                            x       y       z     vdW  Elec       q    Type
REMARK                         _______ _______ _______ _____ _____    ______ ____
ROOT
ATOM      1  C   UNL     1       7.261  -2.396  -1.760  0.00  0.00    +0.348 C 
ATOM      2  O   UNL     1       7.420  -2.132  -2.937  0.00  0.00    -0.244 OA
ENDROOT
BRANCH   1  11
ATOM      3  C   UNL     1      10.770  -6.544  -2.806  0.00  0.00    +0.044 C 
ATOM      4  C   UNL     1      10.277  -6.469  -1.384  0.00  0.00    -0.037 A 
ATOM      5  C   UNL     1      10.697  -7.387  -0.450  0.00  0.00    +0.025 A 
ATOM      6  C   UNL     1      10.242  -7.316   0.858  0.00  0.00    +0.014 A 
ATOM      7  N   UNL     1       9.401  -6.367   1.222  0.00  0.00    -0.353 N 
ATOM      8  C   UNL     1       8.970  -5.466   0.366  0.00  0.00    +0.088 A 
ATOM      9  C   UNL     1       9.374  -5.451  -0.989  0.00  0.00    +0.030 A 
ATOM     10  C   UNL     1       8.800  -4.384  -1.794  0.00  0.00    +0.055 A 
ATOM     11  C   UNL     1       7.934  -3.500  -1.185  0.00  0.00    +0.119 A 
ATOM     12  S   UNL     1       7.872  -4.077   0.500  0.00  0.00    -0.062 S 
ATOM     13  C   UNL     1      10.711  -8.329   1.870  0.00  0.00    +0.063 C 
ATOM     14  H   UNL     1       9.044  -6.318   2.261  0.00  0.00    +0.166 HD
BRANCH  10  15
ATOM     15  N   UNL     1       9.116  -4.259  -3.138  0.00  0.00    -0.356 N 
ATOM     16  H   UNL     1       8.673  -3.446  -3.733  0.00  0.00    +0.142 HD
ATOM     17  H   UNL     1       9.808  -4.972  -3.610  0.00  0.00    +0.142 HD
ENDBRANCH  10  15
ENDBRANCH   1  11
BRANCH   1  18
ATOM     18  O   UNL     1       6.444  -1.635  -1.002  0.00  0.00    -0.451 OA
BRANCH  18  19
ATOM     19  C   UNL     1       5.797  -0.536  -1.647  0.00  0.00    +0.328 C 
BRANCH  19  20
ATOM     20  C   UNL     1       4.932   0.192  -0.651  0.00  0.00    +0.251 C 
ATOM     21  O   UNL     1       4.875  -0.191   0.498  0.00  0.00    -0.272 OA
ATOM     22  N   UNL     1       4.221   1.270  -1.038  0.00  0.00    -0.305 N 
ATOM     23  H   UNL     1       4.273   1.619  -2.080  0.00  0.00    +0.149 HD
BRANCH  22  24
ATOM     24  C   UNL     1       3.380   1.979  -0.070  0.00  0.00    +0.110 C 
ATOM     25  C   UNL     1       3.200   3.431  -0.519  0.00  0.00    +0.068 C 
ATOM     26  C   UNL     1       2.092   4.065   0.333  0.00  0.00    +0.231 C 
ATOM     27  O   UNL     1       0.864   3.393   0.047  0.00  0.00    -0.492 OA
ATOM     28  C   UNL     1       0.863   2.035   0.076  0.00  0.00    +0.125 A 
ATOM     29  C   UNL     1       2.035   1.303   0.015  0.00  0.00    +0.014 A 
ATOM     30  C   UNL     1       1.985  -0.081   0.037  0.00  0.00    +0.009 A 
ATOM     31  C   UNL     1       0.770  -0.733   0.119  0.00  0.00    +0.001 A 
ATOM     32  C   UNL     1      -0.403  -0.004   0.183  0.00  0.00    +0.004 A 
ATOM     33  C   UNL     1      -0.359   1.375   0.162  0.00  0.00    +0.046 A 
ENDBRANCH  22  24
ENDBRANCH  19  20
ENDBRANCH  18  19
ENDBRANCH   1  18
TORSDOF 6
