REMARK  Name = ZINC51018521
REMARK  3 active torsions:
REMARK  status: ('A' for Active; 'I' for Inactive)
REMARK    1  A    between atoms: C_3  and  O_8
REMARK    2  A    between atoms: O_8  and  C_9
REMARK    3  A    between atoms: C_9  and  C_10
REMARK                            x       y       z     vdW  Elec       q    Type
REMARK                         _______ _______ _______ _____ _____    ______ ____
ROOT
ATOM      1  C   UNL     1       5.940   2.277  -0.043  0.00  0.00    +0.256 C 
ATOM      2  O   UNL     1       5.765   3.477  -0.036  0.00  0.00    -0.272 OA
ATOM      3  N   UNL     1       7.192   1.779  -0.058  0.00  0.00    -0.262 N 
ATOM      4  C   UNL     1       8.283   2.640  -0.064  0.00  0.00    +0.165 A 
ATOM      5  N   UNL     1       8.285   3.956  -0.052  0.00  0.00    -0.229 NA
ATOM      6  C   UNL     1       9.414   4.653  -0.060  0.00  0.00    +0.050 A 
ATOM      7  C   UNL     1      10.551   3.907  -0.084  0.00  0.00    -0.003 A 
ATOM      8  S   UNL     1       9.923   2.253  -0.082  0.00  0.00    -0.059 S 
ATOM      9  C   UNL     1      11.952   4.411  -0.104  0.00  0.00    -0.037 C 
ATOM     10  N   UNL     1      11.923   5.842  -0.466  0.00  0.00    +0.382 N 
ATOM     11  C   UNL     1      10.945   6.542   0.377  0.00  0.00    -0.076 C 
ATOM     12  C   UNL     1       9.518   6.173  -0.041  0.00  0.00    +0.037 C 
ATOM     13  H   UNL     1       7.332   0.819  -0.064  0.00  0.00    +0.157 HD
ATOM     14  H   UNL     1      12.838   6.243  -0.323  0.00  0.00    -0.085 HD
ATOM     15  H   UNL     1      11.661   5.938  -1.435  0.00  0.00    -0.085 HD
ENDROOT
BRANCH   1  16
ATOM     16  C   UNL     1       4.757   1.343  -0.037  0.00  0.00    +0.324 C 
BRANCH  16  17
ATOM     17  O   UNL     1       3.548   2.105  -0.021  0.00  0.00    -0.483 OA
BRANCH  17  20
ATOM     18  C   UNL     1      -0.017   1.378   0.010  0.00  0.00    +0.005 A 
ATOM     19  C   UNL     1       1.170   2.087   0.002  0.00  0.00    +0.046 A 
ATOM     20  C   UNL     1       2.381   1.410  -0.013  0.00  0.00    +0.123 A 
ATOM     21  C   UNL     1       2.398   0.023  -0.021  0.00  0.00    +0.065 A 
ATOM     22  C   UNL     1       1.209  -0.682  -0.013  0.00  0.00    +0.044 A 
ATOM     23  C   UNL     1       0.002  -0.004   0.002  0.00  0.00    +0.020 A 
ATOM     24 CL   UNL     1       1.229  -2.418  -0.023  0.00  0.00    -0.083 Cl
ENDBRANCH  17  20
ENDBRANCH  16  17
ENDBRANCH   1  16
TORSDOF 3
