REMARK  Name = ZINC51694956
REMARK  4 active torsions:
REMARK  status: ('A' for Active; 'I' for Inactive)
REMARK    1  A    between atoms: C_8  and  S_9
REMARK    2  A    between atoms: S_9  and  N_12
REMARK    3  A    between atoms: N_12  and  C_13
REMARK    4  A    between atoms: C_16  and  N_19
REMARK                            x       y       z     vdW  Elec       q    Type
REMARK                         _______ _______ _______ _____ _____    ______ ____
ROOT
ATOM      1  N   UNL     1      -2.155  -0.797  -1.511  0.00  0.00    -0.187 NA
ATOM      2  H   UNL     1      -2.995  -0.332  -1.649  0.00  0.00    +0.148 HD
ENDROOT
BRANCH   1   3
ATOM      3  C   UNL     1      -1.457  -1.403  -2.647  0.00  0.00    +0.076 C 
ATOM      4  C   UNL     1      -0.590  -0.346  -3.334  0.00  0.00    +0.019 C 
ATOM      5  C   UNL     1      -1.477   0.797  -3.832  0.00  0.00    -0.015 C 
ATOM      6  C   UNL     1      -2.501   0.251  -4.828  0.00  0.00    -0.075 C 
ATOM      7  C   UNL     1      -3.369  -0.805  -4.141  0.00  0.00    -0.015 C 
ATOM      8  C   UNL     1      -2.482  -1.949  -3.643  0.00  0.00    +0.019 C 
BRANCH   6   9
ATOM      9  N   UNL     1      -3.353   1.349  -5.305  0.00  0.00    +0.380 N 
ATOM     10  H   UNL     1      -2.781   2.045  -5.759  0.00  0.00    -0.090 HD
ATOM     11  H   UNL     1      -4.029   0.989  -5.963  0.00  0.00    -0.090 HD
ATOM     12  H   UNL     1      -3.834   1.766  -4.523  0.00  0.00    -0.090 HD
ENDBRANCH   6   9
ENDBRANCH   1   3
BRANCH   1  13
ATOM     13  S   UNL     1      -1.511  -0.906   0.011  0.00  0.00    +0.060 S 
ATOM     14  O   UNL     1      -1.169  -2.271   0.210  0.00  0.00    -0.153 OA
ATOM     15  O   UNL     1      -2.395  -0.208   0.877  0.00  0.00    -0.153 OA
BRANCH  13  23
ATOM     16  C   UNL     1      -0.017   1.398   0.010  0.00  0.00    +0.035 A 
ATOM     17  C   UNL     1       1.164   2.081   0.002  0.00  0.00    +0.072 A 
ATOM     18  C   UNL     1       2.373   1.364  -0.013  0.00  0.00    +0.249 A 
ATOM     19  O   UNL     1       3.437   1.963  -0.020  0.00  0.00    -0.268 OA
ATOM     20  N   UNL     1       2.358   0.018  -0.020  0.00  0.00    -0.327 N 
ATOM     21  H   UNL     1       3.196  -0.471  -0.031  0.00  0.00    +0.168 HD
ATOM     22  C   UNL     1       1.184  -0.664  -0.013  0.00  0.00    +0.114 A 
ATOM     23  C   UNL     1       0.002  -0.004   0.002  0.00  0.00    +0.121 A 
ENDBRANCH  13  23
ENDBRANCH   1  13
TORSDOF 4
