REMARK  Name = ZINC62709148
REMARK  7 active torsions:
REMARK  status: ('A' for Active; 'I' for Inactive)
REMARK    1  A    between atoms: C_1  and  C_2
REMARK    2  A    between atoms: C_2  and  C_3
REMARK    3  A    between atoms: C_2  and  C_4
REMARK    4  A    between atoms: C_2  and  C_5
REMARK    5  A    between atoms: C_8  and  O_11
REMARK    6  A    between atoms: O_11  and  C_12
REMARK    7  A    between atoms: C_13  and  C_18
REMARK                            x       y       z     vdW  Elec       q    Type
REMARK                         _______ _______ _______ _____ _____    ______ ____
ROOT
ATOM      1  C   UNL     1       2.191  -1.383  -5.832  0.00  0.00    +0.231 A 
ATOM      2  C   UNL     1       2.746  -1.896  -7.013  0.00  0.00    +0.074 A 
ATOM      3  C   UNL     1       2.268  -1.429  -8.242  0.00  0.00    +0.018 A 
ATOM      4  C   UNL     1       1.264  -0.477  -8.237  0.00  0.00    +0.021 A 
ATOM      5  C   UNL     1       0.766  -0.019  -7.030  0.00  0.00    +0.114 A 
ATOM      6  N   UNL     1       1.229  -0.477  -5.883  0.00  0.00    -0.220 NA
ENDROOT
BRANCH   2   7
ATOM      7  C   UNL     1       3.817  -2.912  -6.961  0.00  0.00    +0.105 C 
ATOM      8  N   UNL     1       4.297  -3.387  -5.822  0.00  0.00    -0.371 N 
ATOM      9  C   UNL     1       5.347  -4.376  -6.114  0.00  0.00    +0.132 C 
ATOM     10  C   UNL     1       5.400  -4.399  -7.655  0.00  0.00    +0.124 C 
ATOM     11  N   UNL     1       4.371  -3.425  -8.048  0.00  0.00    -0.329 N 
ATOM     12  H   UNL     1       4.136  -3.193  -8.960  0.00  0.00    +0.147 HD
ATOM     13  H   UNL     1       4.004  -3.124  -4.936  0.00  0.00    +0.161 HD
ENDBRANCH   2   7
BRANCH   1  14
ATOM     14  O   UNL     1       2.639  -1.822  -4.631  0.00  0.00    -0.437 OA
BRANCH  14  18
ATOM     15  C   UNL     1       0.711  -0.485  -1.238  0.00  0.00    -0.042 A 
ATOM     16  C   UNL     1       0.130  -1.465  -2.021  0.00  0.00    +0.008 A 
ATOM     17  C   UNL     1       0.773  -1.915  -3.158  0.00  0.00    +0.046 A 
ATOM     18  C   UNL     1       2.004  -1.381  -3.514  0.00  0.00    +0.130 A 
ATOM     19  C   UNL     1       2.585  -0.398  -2.726  0.00  0.00    +0.046 A 
ATOM     20  C   UNL     1       1.935   0.052  -1.593  0.00  0.00    +0.008 A 
BRANCH  15  22
ATOM     21  C   UNL     1      -0.269   1.502  -0.124  0.00  0.00    +0.015 C 
ATOM     22  C   UNL     1       0.008   0.003   0.003  0.00  0.00    -0.013 C 
ATOM     23  C   UNL     1       0.893  -0.251   1.224  0.00  0.00    +0.015 C 
ATOM     24  C   UNL     1      -1.315  -0.748   0.167  0.00  0.00    +0.015 C 
ENDBRANCH  15  22
ENDBRANCH  14  18
ENDBRANCH   1  14
TORSDOF 4
