REMARK  Name = ZINC44177486
REMARK  10 active torsions:
REMARK  status: ('A' for Active; 'I' for Inactive)
REMARK    1  A    between atoms: C_1  and  C_2
REMARK    2  A    between atoms: C_3  and  C_23
REMARK    3  A    between atoms: C_7  and  N_8
REMARK    4  A    between atoms: N_11  and  C_12
REMARK    5  A    between atoms: C_12  and  C_13
REMARK    6  A    between atoms: C_13  and  C_15
REMARK    7  A    between atoms: C_13  and  N_20
REMARK    8  A    between atoms: N_20  and  C_21
REMARK    9  A    between atoms: N_20  and  C_22
REMARK   10  A    between atoms: N_25  and  C_26
REMARK                            x       y       z     vdW  Elec       q    Type
REMARK                         _______ _______ _______ _____ _____    ______ ____
ROOT
ATOM      1  N   UNL     1      -0.171   0.253   2.490  0.00  0.00    -0.269 N 
ATOM      2  C   UNL     1       0.195  -0.386   3.619  0.00  0.00    +0.304 C 
ATOM      3  O   UNL     1       0.327  -1.594   3.619  0.00  0.00    -0.253 OA
ATOM      4  N   UNL     1       0.413   0.316   4.749  0.00  0.00    -0.300 N 
ATOM      5  H   UNL     1      -0.342   1.207   2.506  0.00  0.00    +0.156 HD
ATOM      6  H   UNL     1       0.308   1.280   4.749  0.00  0.00    +0.150 HD
ENDROOT
BRANCH   1  13
ATOM      7  C   UNL     1      -1.847   1.330   0.462  0.00  0.00    +0.046 C 
ATOM      8  C   UNL     1      -1.111   0.028   0.279  0.00  0.00    -0.017 A 
ATOM      9  C   UNL     1      -1.234  -0.685  -0.913  0.00  0.00    +0.041 A 
ATOM     10  C   UNL     1      -0.549  -1.890  -1.075  0.00  0.00    +0.013 A 
ATOM     11  C   UNL     1       0.248  -2.373  -0.056  0.00  0.00    +0.003 A 
ATOM     12  C   UNL     1       0.371  -1.666   1.125  0.00  0.00    +0.023 A 
ATOM     13  C   UNL     1      -0.303  -0.462   1.294  0.00  0.00    +0.038 A 
BRANCH   9  14
ATOM     14  C   UNL     1      -2.089  -0.166  -2.002  0.00  0.00    +0.244 C 
ATOM     15  O   UNL     1      -2.608   0.928  -1.899  0.00  0.00    -0.270 OA
ATOM     16  N   UNL     1      -2.294  -0.907  -3.110  0.00  0.00    -0.314 N 
ATOM     17  C   UNL     1      -3.141  -0.393  -4.189  0.00  0.00    +0.128 C 
ATOM     18  H   UNL     1      -1.880  -1.781  -3.192  0.00  0.00    +0.149 HD
ENDBRANCH   9  14
ENDBRANCH   1  13
BRANCH   4  19
ATOM     19  C   UNL     1       0.810  -0.378   5.977  0.00  0.00    +0.095 C 
BRANCH  19  20
ATOM     20  C   UNL     1       0.870   0.624   7.132  0.00  0.00    -0.014 C 
BRANCH  20  21
ATOM     21  C   UNL     1      -0.503   1.198   7.371  0.00  0.00    -0.022 A 
ATOM     22  C   UNL     1      -1.014   2.386   6.965  0.00  0.00    +0.009 A 
ATOM     23  C   UNL     1      -2.316   2.706   7.304  0.00  0.00    +0.008 A 
ATOM     24  C   UNL     1      -3.042   1.823   8.031  0.00  0.00    +0.045 A 
ATOM     25  S   UNL     1      -1.881   0.485   8.254  0.00  0.00    -0.103 S 
ENDBRANCH  20  21
BRANCH  20  26
ATOM     26  N   UNL     1       1.333  -0.058   8.348  0.00  0.00    +0.382 N 
ATOM     27  C   UNL     1       2.716  -0.516   8.155  0.00  0.00    -0.096 C 
ATOM     28  C   UNL     1       1.280   0.874   9.482  0.00  0.00    -0.096 C 
ATOM     29  H   UNL     1       0.739  -0.852   8.536  0.00  0.00    -0.082 HD
ENDBRANCH  20  26
ENDBRANCH  19  20
ENDBRANCH   4  19
TORSDOF 6
