REMARK  Name = ZINC63743174
REMARK  3 active torsions:
REMARK  status: ('A' for Active; 'I' for Inactive)
REMARK    1  A    between atoms: C_8  and  C_13
REMARK    2  A    between atoms: C_13  and  S_14
REMARK    3  A    between atoms: S_14  and  C_15
REMARK                            x       y       z     vdW  Elec       q    Type
REMARK                         _______ _______ _______ _____ _____    ______ ____
ROOT
ATOM      1  C   UNL     1      -0.016   1.347   0.009  0.00  0.00    +0.002 A 
ATOM      2  C   UNL     1       1.169   2.101   0.002  0.00  0.00    +0.002 A 
ATOM      3  C   UNL     1       2.398   1.533  -0.013  0.00  0.00    +0.025 A 
ATOM      4  C   UNL     1       2.536   0.127  -0.022  0.00  0.00    +0.057 A 
ATOM      5  N   UNL     1       3.739  -0.422  -0.036  0.00  0.00    -0.282 N 
ATOM      6  C   UNL     1       3.903  -1.747  -0.045  0.00  0.00    +0.240 C 
ATOM      7  O   UNL     1       5.019  -2.228  -0.058  0.00  0.00    -0.273 OA
ATOM      8  C   UNL     1       2.683  -2.640  -0.038  0.00  0.00    +0.176 C 
ATOM      9  N   UNL     1       1.360  -1.997  -0.022  0.00  0.00    -0.372 N 
ATOM     10  C   UNL     1       1.301  -0.697  -0.014  0.00  0.00    +0.057 A 
ATOM     11  C   UNL     1       0.002  -0.004   0.002  0.00  0.00    +0.027 A 
ATOM     12  H   UNL     1       0.550  -2.531  -0.017  0.00  0.00    +0.160 HD
ATOM     13  H   UNL     1       4.521   0.152  -0.041  0.00  0.00    +0.155 HD
ENDROOT
BRANCH   8  14
ATOM     14  C   UNL     1       2.752  -3.533  -1.278  0.00  0.00    +0.110 C 
BRANCH  14  15
ATOM     15  S   UNL     1       1.306  -4.627  -1.317  0.00  0.00    -0.094 S 
BRANCH  15  16
ATOM     16  C   UNL     1       1.530  -5.579  -2.783  0.00  0.00    +0.160 A 
ATOM     17  N   UNL     1       2.510  -5.537  -3.665  0.00  0.00    -0.133 NA
ATOM     18  N   UNL     1       2.488  -6.380  -4.752  0.00  0.00    -0.125 NA
ATOM     19  C   UNL     1       1.488  -7.225  -4.907  0.00  0.00    +0.180 A 
ATOM     20  S   UNL     1       0.494  -6.863  -3.468  0.00  0.00    -0.025 S 
ATOM     21  N   UNL     1       1.268  -8.153  -5.918  0.00  0.00    -0.336 N 
ATOM     22  H   UNL     1       1.907  -8.241  -6.643  0.00  0.00    +0.144 HD
ATOM     23  H   UNL     1       0.477  -8.713  -5.899  0.00  0.00    +0.144 HD
ENDBRANCH  15  16
ENDBRANCH  14  15
ENDBRANCH   8  14
TORSDOF 3
