REMARK  Name = ZINC49469777
REMARK  3 active torsions:
REMARK  status: ('A' for Active; 'I' for Inactive)
REMARK    1  A    between atoms: C_1  and  C_2
REMARK    2  A    between atoms: C_3  and  N_8
REMARK    3  A    between atoms: N_13  and  C_18
REMARK                            x       y       z     vdW  Elec       q    Type
REMARK                         _______ _______ _______ _____ _____    ______ ____
ROOT
ATOM      1  N   UNL     1      -0.005  -0.374  -2.475  0.00  0.00    -0.296 N 
ATOM      2  C   UNL     1       0.003  -1.291  -3.508  0.00  0.00    +0.137 A 
ATOM      3  C   UNL     1      -0.004  -0.865  -4.851  0.00  0.00    +0.079 A 
ATOM      4  C   UNL     1      -0.019   0.391  -5.494  0.00  0.00    +0.148 A 
ATOM      5  N   UNL     1      -0.019   0.196  -6.782  0.00  0.00    -0.177 NA
ATOM      6  N   UNL     1      -0.005  -1.179  -7.050  0.00  0.00    -0.249 N 
ATOM      7  C   UNL     1       0.005  -1.846  -5.862  0.00  0.00    +0.163 A 
ATOM      8  N   UNL     1       0.019  -3.131  -5.510  0.00  0.00    -0.216 NA
ATOM      9  C   UNL     1       0.025  -3.480  -4.242  0.00  0.00    +0.225 A 
ATOM     10  N   UNL     1       0.023  -2.596  -3.260  0.00  0.00    -0.220 NA
ATOM     11  C   UNL     1      -0.001  -1.793  -8.380  0.00  0.00    +0.174 C 
ATOM     12  H   UNL     1      -0.020   0.576  -2.670  0.00  0.00    +0.154 HD
ENDROOT
BRANCH   1  15
ATOM     13  C   UNL     1      -0.018   1.503   0.010  0.00  0.00    +0.069 C 
ATOM     14  C   UNL     1       0.002  -0.004   0.002  0.00  0.00    +0.081 A 
ATOM     15  C   UNL     1       0.008  -0.819  -1.140  0.00  0.00    +0.073 A 
ATOM     16  C   UNL     1       0.028  -2.112  -0.728  0.00  0.00    +0.128 A 
ATOM     17  N   UNL     1       0.035  -2.109   0.631  0.00  0.00    -0.283 N 
ATOM     18  H   UNL     1       0.049  -2.892   1.204  0.00  0.00    +0.188 HD
ATOM     19  N   UNL     1       0.023  -0.775   1.059  0.00  0.00    -0.177 NA
ENDBRANCH   1  15
TORSDOF 1
