REMARK  Name = ZINC36746096
REMARK  5 active torsions:
REMARK  status: ('A' for Active; 'I' for Inactive)
REMARK    1  A    between atoms: C_9  and  C_12
REMARK    2  A    between atoms: N_14  and  C_15
REMARK    3  A    between atoms: C_15  and  C_16
REMARK    4  A    between atoms: C_16  and  S_17
REMARK    5  A    between atoms: S_17  and  N_20
REMARK                            x       y       z     vdW  Elec       q    Type
REMARK                         _______ _______ _______ _____ _____    ______ ____
ROOT
ATOM      1  C   UNL     1       4.986  -2.654  -0.199  0.00  0.00    +0.233 C 
ATOM      2  O   UNL     1       5.676  -2.049  -0.993  0.00  0.00    -0.274 OA
ATOM      3  N   UNL     1       5.399  -3.841   0.285  0.00  0.00    -0.312 N 
ATOM      4  H   UNL     1       4.848  -4.325   0.920  0.00  0.00    +0.149 HD
ENDROOT
BRANCH   1  13
ATOM      5  C   UNL     1      -0.017   1.377   0.010  0.00  0.00    +0.000 A 
ATOM      6  C   UNL     1       1.170   2.088   0.002  0.00  0.00    +0.002 A 
ATOM      7  C   UNL     1       2.375   1.416  -0.015  0.00  0.00    +0.023 A 
ATOM      8  C   UNL     1       2.396   0.025  -0.024  0.00  0.00    +0.031 A 
ATOM      9  C   UNL     1       1.207  -0.687  -0.013  0.00  0.00    -0.026 A 
ATOM     10  C   UNL     1       0.002  -0.004   0.002  0.00  0.00    +0.005 A 
ATOM     11  C   UNL     1       1.192  -2.192  -0.011  0.00  0.00    +0.039 C 
ATOM     12  C   UNL     1       2.521  -2.742  -0.528  0.00  0.00    +0.036 C 
ATOM     13  C   UNL     1       3.667  -2.076   0.246  0.00  0.00    +0.157 C 
ATOM     14  N   UNL     1       3.629  -0.637  -0.046  0.00  0.00    -0.333 N 
ATOM     15  H   UNL     1       4.444  -0.153  -0.251  0.00  0.00    +0.147 HD
ENDBRANCH   1  13
BRANCH   3  16
ATOM     16  C   UNL     1       6.682  -4.402  -0.147  0.00  0.00    +0.128 C 
BRANCH  16  17
ATOM     17  C   UNL     1       6.910  -5.747   0.547  0.00  0.00    +0.203 C 
BRANCH  17  18
ATOM     18  S   UNL     1       8.498  -6.442   0.011  0.00  0.00    +0.028 S 
ATOM     19  O   UNL     1       8.436  -6.804  -1.361  0.00  0.00    -0.158 OA
ATOM     20  O   UNL     1       9.570  -5.649   0.503  0.00  0.00    -0.158 OA
BRANCH  18  21
ATOM     21  N   UNL     1       8.629  -7.879   0.822  0.00  0.00    -0.208 NA
ATOM     22  H   UNL     1       7.924  -8.162   1.426  0.00  0.00    +0.144 HD
ATOM     23  H   UNL     1       9.410  -8.440   0.694  0.00  0.00    +0.144 HD
ENDBRANCH  18  21
ENDBRANCH  17  18
ENDBRANCH  16  17
ENDBRANCH   3  16
TORSDOF 5
