REMARK  Name = ZINC01874796
REMARK  7 active torsions:
REMARK  status: ('A' for Active; 'I' for Inactive)
REMARK    1  A    between atoms: C_1  and  N_40
REMARK    2  A    between atoms: C_2  and  N_40
REMARK    3  A    between atoms: C_3  and  N_40
REMARK    4  A    between atoms: C_4  and  C_5
REMARK    5  A    between atoms: C_6  and  N_23
REMARK    6  A    between atoms: C_7  and  C_13
REMARK    7  A    between atoms: C_18  and  C_19
REMARK                            x       y       z     vdW  Elec       q    Type
REMARK                         _______ _______ _______ _____ _____    ______ ____
ROOT
ATOM      1  C   UNL     1       1.386   1.722   0.023  0.00  0.00    +0.064 C 
ATOM      2  C   UNL     1       2.592   1.151   0.162  0.00  0.00    +0.149 C 
ATOM      3  C   UNL     1       3.815   2.007  -0.093  0.00  0.00    +0.161 C 
ATOM      4  N   UNL     1       3.588   3.413  -0.464  0.00  0.00    -0.287 N 
ATOM      5  C   UNL     1       2.320   3.859  -0.563  0.00  0.00    +0.305 C 
ATOM      6  O   UNL     1       2.126   5.019  -0.869  0.00  0.00    -0.252 OA
ATOM      7  N   UNL     1       1.267   3.063  -0.333  0.00  0.00    -0.268 N 
ATOM      8  H   UNL     1       4.336   4.007  -0.635  0.00  0.00    +0.151 HD
ATOM      9  H   UNL     1       0.377   3.440  -0.419  0.00  0.00    +0.156 HD
ENDROOT
BRANCH   3  10
ATOM     10  C   UNL     1       4.616   1.361  -1.193  0.00  0.00    -0.009 A 
ATOM     11  C   UNL     1       4.238   1.527  -2.513  0.00  0.00    +0.006 A 
ATOM     12  C   UNL     1       4.973   0.934  -3.522  0.00  0.00    +0.000 A 
ATOM     13  C   UNL     1       6.087   0.176  -3.212  0.00  0.00    +0.001 A 
ATOM     14  C   UNL     1       6.466   0.011  -1.893  0.00  0.00    +0.013 A 
ATOM     15  C   UNL     1       5.733   0.608  -0.884  0.00  0.00    +0.060 A 
BRANCH  15  16
ATOM     16  C   UNL     1       6.149   0.432   0.554  0.00  0.00    +0.418 C 
ATOM     17  F   UNL     1       7.252  -0.426   0.619  0.00  0.00    -0.166 F 
ATOM     18  F   UNL     1       6.493   1.676   1.095  0.00  0.00    -0.166 F 
ATOM     19  F   UNL     1       5.088  -0.116   1.283  0.00  0.00    -0.166 F 
ENDBRANCH  15  16
ENDBRANCH   3  10
BRANCH   2  20
ATOM     20  N   UNL     1       2.723  -0.279   0.548  0.00  0.00    +0.056 N 
ATOM     21  O   UNL     1       2.879  -1.130  -0.309  0.00  0.00    -0.126 OA
ATOM     22  O   UNL     1       2.675  -0.600   1.722  0.00  0.00    -0.126 OA
ENDBRANCH   2  20
BRANCH   1  24
ATOM     23  C   UNL     1      -1.031   1.507   0.218  0.00  0.00    +0.054 C 
ATOM     24  C   UNL     1       0.174   0.923   0.258  0.00  0.00    +0.039 C 
BRANCH  23  27
ATOM     25  C   UNL     1      -2.060  -0.680   0.703  0.00  0.00    +0.106 C 
ATOM     26  C   UNL     1      -3.488   1.394   0.390  0.00  0.00    +0.106 C 
ATOM     27  N   UNL     1      -2.187   0.691   0.080  0.00  0.00    -0.404 NA
ATOM     28  H   UNL     1      -2.234   0.507  -0.929  0.00  0.00    +0.125 HD
ENDBRANCH  23  27
ENDBRANCH   1  24
TORSDOF 5
