REMARK  Name = ZINC20452127
REMARK  6 active torsions:
REMARK  status: ('A' for Active; 'I' for Inactive)
REMARK    1  A    between atoms: C_1  and  C_2
REMARK    2  A    between atoms: C_6  and  C_9
REMARK    3  A    between atoms: C_12  and  O_16
REMARK    4  A    between atoms: N_17  and  C_19
REMARK    5  A    between atoms: C_19  and  C_21
REMARK    6  A    between atoms: C_19  and  C_22
REMARK                            x       y       z     vdW  Elec       q    Type
REMARK                         _______ _______ _______ _____ _____    ______ ____
ROOT
ATOM      1  C   UNL     1      -0.018   1.503   0.010  0.00  0.00    +0.070 C 
ATOM      2  C   UNL     1       0.002  -0.004   0.002  0.00  0.00    +0.085 A 
ATOM      3  C   UNL     1       0.008  -0.814  -1.141  0.00  0.00    +0.106 A 
ATOM      4  C   UNL     1       0.028  -2.138  -0.715  0.00  0.00    +0.155 A 
ATOM      5  N   UNL     1       0.033  -2.917  -1.808  0.00  0.00    -0.325 N 
ATOM      6  C   UNL     1       0.018  -2.170  -2.888  0.00  0.00    +0.118 A 
ATOM      7  N   UNL     1       0.002  -0.852  -2.525  0.00  0.00    -0.337 N 
ATOM      8  H   UNL     1      -0.011  -0.088  -3.124  0.00  0.00    +0.167 HD
ATOM      9  N   UNL     1       0.034  -2.112   0.655  0.00  0.00    -0.243 N 
ATOM     10  N   UNL     1       0.023  -0.771   1.060  0.00  0.00    -0.172 NA
ATOM     11  H   UNL     1       0.047  -3.887  -1.801  0.00  0.00    +0.169 HD
ENDROOT
BRANCH   6  12
ATOM     12  C   UNL     1       0.019  -2.675  -4.277  0.00  0.00    +0.017 A 
ATOM     13  C   UNL     1       0.032  -4.050  -4.521  0.00  0.00    +0.015 A 
ATOM     14  C   UNL     1       0.033  -4.517  -5.818  0.00  0.00    +0.047 A 
ATOM     15  C   UNL     1       0.022  -3.623  -6.881  0.00  0.00    +0.135 A 
ATOM     16  C   UNL     1       0.009  -2.254  -6.642  0.00  0.00    +0.083 A 
ATOM     17  C   UNL     1       0.002  -1.779  -5.347  0.00  0.00    +0.035 A 
ATOM     18 CL   UNL     1      -0.004  -1.142  -7.974  0.00  0.00    -0.080 Cl
BRANCH  15  19
ATOM     19  O   UNL     1       0.024  -4.088  -8.157  0.00  0.00    -0.505 OA
ATOM     20  H   UNL     1      -0.859  -4.231  -8.525  0.00  0.00    +0.292 HD
ENDBRANCH  15  19
ENDBRANCH   6  12
BRANCH   9  21
ATOM     21  C   UNL     1       0.053  -3.279   1.539  0.00  0.00    +0.109 C 
ATOM     22  C   UNL     1       1.306  -3.233   2.417  0.00  0.00    +0.033 C 
BRANCH  21  23
ATOM     23  C   UNL     1      -1.192  -3.267   2.428  0.00  0.00    +0.013 C 
ATOM     24  C   UNL     1      -2.037  -4.542   2.477  0.00  0.00    +0.006 C 
ATOM     25  C   UNL     1      -2.555  -3.309   1.734  0.00  0.00    +0.006 C 
ENDBRANCH  21  23
ENDBRANCH   9  21
TORSDOF 4
