REMARK  Name = ZINC28120557
REMARK  4 active torsions:
REMARK  status: ('A' for Active; 'I' for Inactive)
REMARK    1  A    between atoms: C_3  and  S_8
REMARK    2  A    between atoms: C_6  and  N_7
REMARK    3  A    between atoms: S_8  and  N_11
REMARK    4  A    between atoms: C_13  and  C_23
REMARK                            x       y       z     vdW  Elec       q    Type
REMARK                         _______ _______ _______ _____ _____    ______ ____
ROOT
ATOM      1  N   UNL     1       3.173   1.284  -5.560  0.00  0.00    -0.218 N 
ATOM      2  C   UNL     1       2.754   1.796  -4.366  0.00  0.00    +0.121 A 
ATOM      3  C   UNL     1       1.941   0.903  -3.745  0.00  0.00    +0.005 A 
ATOM      4  C   UNL     1       1.851  -0.272  -4.630  0.00  0.00    +0.013 A 
ATOM      5  C   UNL     1       2.638   0.027  -5.754  0.00  0.00    +0.076 A 
ATOM      6  C   UNL     1       2.747  -0.905  -6.781  0.00  0.00    +0.077 A 
ATOM      7  C   UNL     1       2.078  -2.111  -6.696  0.00  0.00    +0.168 A 
ATOM      8  C   UNL     1       1.290  -2.404  -5.579  0.00  0.00    +0.167 A 
ATOM      9  C   UNL     1       1.174  -1.489  -4.552  0.00  0.00    +0.060 A 
ATOM     10  O   UNL     1       0.746  -3.646  -5.745  0.00  0.00    -0.453 OA
ATOM     11  C   UNL     1       1.532  -4.276  -6.773  0.00  0.00    +0.466 C 
ATOM     12  O   UNL     1       2.024  -3.172  -7.555  0.00  0.00    -0.453 OA
ENDROOT
BRANCH   3  13
ATOM     13  C   UNL     1       1.282   1.073  -2.436  0.00  0.00    -0.046 C 
ATOM     14  C   UNL     1      -0.009   1.329  -2.408  0.00  0.00    -0.042 C 
ATOM     15  C   UNL     1      -0.776   1.527  -1.132  0.00  0.00    -0.055 C 
ATOM     16  N   UNL     1      -0.012   1.005   0.008  0.00  0.00    +0.382 N 
ATOM     17  C   UNL     1       1.355   1.551  -0.003  0.00  0.00    -0.078 C 
ATOM     18  C   UNL     1       2.112   0.948  -1.189  0.00  0.00    +0.016 C 
ATOM     19  H   UNL     1      -0.507   1.295   0.946  0.00  0.00    -0.085 HD
ATOM     20  H   UNL     1       0.039  -0.092  -0.057  0.00  0.00    -0.085 HD
ENDBRANCH   3  13
BRANCH   1  21
ATOM     21  S   UNL     1       4.179   2.060  -6.623  0.00  0.00    +0.084 S 
ATOM     22  O   UNL     1       3.568   1.965  -7.903  0.00  0.00    -0.148 OA
ATOM     23  O   UNL     1       4.513   3.307  -6.030  0.00  0.00    -0.148 OA
BRANCH  21  26
ATOM     24  C   UNL     1       6.967  -0.620  -7.708  0.00  0.00    +0.024 A 
ATOM     25  C   UNL     1       5.799   0.114  -7.641  0.00  0.00    +0.031 A 
ATOM     26  C   UNL     1       5.670   1.126  -6.707  0.00  0.00    +0.111 A 
ATOM     27  C   UNL     1       6.711   1.409  -5.841  0.00  0.00    +0.031 A 
ATOM     28  C   UNL     1       7.879   0.675  -5.900  0.00  0.00    +0.024 A 
ATOM     29  C   UNL     1       8.012  -0.342  -6.837  0.00  0.00    +0.025 A 
BRANCH  29  30
ATOM     30  N   UNL     1       9.195  -1.082  -6.903  0.00  0.00    -0.358 N 
ATOM     31  H   UNL     1      10.022  -0.860  -6.213  0.00  0.00    +0.142 HD
ATOM     32  H   UNL     1       9.299  -1.887  -7.646  0.00  0.00    +0.142 HD
ENDBRANCH  29  30
ENDBRANCH  21  26
ENDBRANCH   1  21
TORSDOF 4
