REMARK  Name = ZINC09074717
REMARK  5 active torsions:
REMARK  status: ('A' for Active; 'I' for Inactive)
REMARK    1  A    between atoms: C_1  and  C_2
REMARK    2  A    between atoms: C_2  and  C_4
REMARK    3  A    between atoms: C_2  and  O_12
REMARK    4  A    between atoms: O_12  and  C_13
REMARK    5  A    between atoms: C_13  and  C_15
REMARK                            x       y       z     vdW  Elec       q    Type
REMARK                         _______ _______ _______ _____ _____    ______ ____
ROOT
ATOM      1  C   UNL     1       3.706  -0.635  -0.052  0.00  0.00    +0.340 C 
ATOM      2  O   UNL     1       3.737  -1.850  -0.062  0.00  0.00    -0.245 OA
ENDROOT
BRANCH   1   3
ATOM      3  C   UNL     1       2.412   0.069  -0.029  0.00  0.00    +0.061 A 
ATOM      4  C   UNL     1       2.378   1.467  -0.017  0.00  0.00    +0.016 A 
ATOM      5  C   UNL     1       1.167   2.122   0.002  0.00  0.00    +0.017 A 
ATOM      6  C   UNL     1      -0.017   1.395   0.010  0.00  0.00    +0.030 A 
ATOM      7  C   UNL     1       0.002  -0.004   0.002  0.00  0.00    +0.048 A 
ATOM      8  C   UNL     1       1.221  -0.662  -0.019  0.00  0.00    +0.039 A 
ATOM      9  N   UNL     1      -1.175  -0.748   0.021  0.00  0.00    -0.284 N 
ATOM     10  C   UNL     1      -2.379  -0.325  -0.355  0.00  0.00    +0.227 C 
ATOM     11  O   UNL     1      -3.307  -1.104  -0.288  0.00  0.00    -0.275 OA
ATOM     12  C   UNL     1      -2.655   1.066  -0.857  0.00  0.00    +0.170 C 
ATOM     13  S   UNL     1      -1.572   2.231   0.022  0.00  0.00    -0.114 S 
ATOM     14  H   UNL     1      -1.111  -1.663   0.337  0.00  0.00    +0.155 HD
ENDBRANCH   1   3
BRANCH   1  15
ATOM     15  O   UNL     1       4.856   0.068  -0.061  0.00  0.00    -0.449 OA
BRANCH  15  17
ATOM     16  C   UNL     1       6.547  -0.970   1.350  0.00  0.00    +0.062 C 
ATOM     17  C   UNL     1       6.093  -0.691  -0.084  0.00  0.00    +0.259 C 
BRANCH  17  18
ATOM     18  C   UNL     1       7.155   0.101  -0.802  0.00  0.00    +0.256 C 
ATOM     19  O   UNL     1       6.923   1.232  -1.171  0.00  0.00    -0.272 OA
ATOM     20  N   UNL     1       8.364  -0.449  -1.035  0.00  0.00    -0.294 N 
ATOM     21  C   UNL     1       8.671  -1.818  -0.592  0.00  0.00    +0.136 C 
ATOM     22  C   UNL     1       9.252  -2.590  -1.787  0.00  0.00    +0.179 C 
ATOM     23  O   UNL     1      10.338  -1.844  -2.344  0.00  0.00    -0.377 OA
ATOM     24  C   UNL     1       9.963  -0.569  -2.870  0.00  0.00    +0.179 C 
ATOM     25  C   UNL     1       9.417   0.304  -1.734  0.00  0.00    +0.136 C 
ENDBRANCH  17  18
ENDBRANCH  15  17
ENDBRANCH   1  15
TORSDOF 4
