REMARK  Name = ZINC63106896
REMARK  8 active torsions:
REMARK  status: ('A' for Active; 'I' for Inactive)
REMARK    1  A    between atoms: C_1  and  C_2
REMARK    2  A    between atoms: C_4  and  C_25
REMARK    3  A    between atoms: C_6  and  N_8
REMARK    4  A    between atoms: N_11  and  C_12
REMARK    5  A    between atoms: C_12  and  C_13
REMARK    6  A    between atoms: C_13  and  C_14
REMARK    7  A    between atoms: C_17  and  O_23
REMARK    8  A    between atoms: O_23  and  C_24
REMARK                            x       y       z     vdW  Elec       q    Type
REMARK                         _______ _______ _______ _____ _____    ______ ____
ROOT
ATOM      1  N   UNL     1       0.057  -2.674   2.325  0.00  0.00    -0.177 NA
ATOM      2  C   UNL     1       0.146  -2.004   3.455  0.00  0.00    +0.198 C 
ATOM      3  N   UNL     1       0.127  -0.635   3.442  0.00  0.00    -0.370 N 
ATOM      4  N   UNL     1       0.257  -2.676   4.643  0.00  0.00    -0.356 N 
ATOM      5  H   UNL     1      -0.029  -0.160   2.611  0.00  0.00    +0.159 HD
ATOM      6  H   UNL     1       0.271  -3.646   4.651  0.00  0.00    +0.162 HD
ATOM      7  H   UNL     1       0.270  -0.141   4.264  0.00  0.00    +0.159 HD
ENDROOT
BRANCH   1  13
ATOM      8  C   UNL     1       2.571  -0.674  -1.209  0.00  0.00    +0.066 C 
ATOM      9  C   UNL     1       1.252  -1.038  -0.578  0.00  0.00    +0.044 A 
ATOM     10  C   UNL     1       0.060  -0.700  -1.200  0.00  0.00    +0.046 A 
ATOM     11  C   UNL     1      -1.133  -1.053  -0.588  0.00  0.00    +0.044 A 
ATOM     12  N   UNL     1      -1.102  -1.698   0.565  0.00  0.00    -0.216 NA
ATOM     13  C   UNL     1       0.058  -2.009   1.138  0.00  0.00    +0.254 A 
ATOM     14  N   UNL     1       1.219  -1.689   0.572  0.00  0.00    -0.216 NA
ATOM     15  C   UNL     1      -2.451  -0.704  -1.230  0.00  0.00    +0.066 C 
ENDBRANCH   1  13
BRANCH   4  16
ATOM     16  C   UNL     1       0.356  -1.930   5.900  0.00  0.00    +0.120 C 
BRANCH  16  17
ATOM     17  C   UNL     1       0.470  -2.912   7.067  0.00  0.00    +0.054 C 
BRANCH  17  18
ATOM     18  C   UNL     1       0.572  -2.145   8.361  0.00  0.00    -0.040 C 
ATOM     19  C   UNL     1      -0.440  -1.831   9.201  0.00  0.00    +0.002 A 
ATOM     20  C   UNL     1      -1.882  -2.098   9.166  0.00  0.00    +0.055 A 
ATOM     21  C   UNL     1      -2.668  -1.648  10.174  0.00  0.00    +0.121 A 
ATOM     22  C   UNL     1      -2.151  -0.927  11.264  0.00  0.00    +0.047 A 
ATOM     23  C   UNL     1      -0.839  -0.633  11.385  0.00  0.00    +0.029 A 
ATOM     24  C   UNL     1       0.103  -1.072  10.351  0.00  0.00    +0.043 A 
ATOM     25  N   UNL     1       1.398  -0.923  10.226  0.00  0.00    -0.380 N 
ATOM     26  C   UNL     1       1.827  -1.577   8.984  0.00  0.00    +0.144 C 
ATOM     27  H   UNL     1       1.978  -0.461  10.851  0.00  0.00    +0.160 HD
BRANCH  21  28
ATOM     28  O   UNL     1      -4.003  -1.901  10.128  0.00  0.00    -0.495 OA
ATOM     29  C   UNL     1      -4.794  -1.408  11.211  0.00  0.00    +0.277 C 
ENDBRANCH  21  28
ENDBRANCH  17  18
ENDBRANCH  16  17
ENDBRANCH   4  16
TORSDOF 5
