REMARK  Name = ZINC37709996
REMARK  6 active torsions:
REMARK  status: ('A' for Active; 'I' for Inactive)
REMARK    1  A    between atoms: C_3  and  O_12
REMARK    2  A    between atoms: C_4  and  C_10
REMARK    3  A    between atoms: C_6  and  N_7
REMARK    4  A    between atoms: C_10  and  N_11
REMARK    5  A    between atoms: O_12  and  C_13
REMARK    6  A    between atoms: C_20  and  O_22
REMARK                            x       y       z     vdW  Elec       q    Type
REMARK                         _______ _______ _______ _____ _____    ______ ____
ROOT
ATOM      1  C   UNL     1       0.053   1.435   0.737  0.00  0.00    +0.036 A 
ATOM      2  C   UNL     1       1.224   2.124   0.483  0.00  0.00    +0.048 A 
ATOM      3  C   UNL     1       2.396   1.428   0.230  0.00  0.00    +0.123 A 
ATOM      4  C   UNL     1       2.391   0.040   0.233  0.00  0.00    -0.021 A 
ATOM      5  C   UNL     1       1.218  -0.644   0.488  0.00  0.00    +0.038 A 
ATOM      6  C   UNL     1       0.051   0.052   0.740  0.00  0.00    +0.127 A 
ENDROOT
BRANCH   6   7
ATOM      7  N   UNL     1      -1.204  -0.683   1.013  0.00  0.00    +0.056 N 
ATOM      8  O   UNL     1      -2.225  -0.075   1.233  0.00  0.00    -0.126 OA
ATOM      9  O   UNL     1      -1.208  -1.892   1.015  0.00  0.00    -0.126 OA
ENDBRANCH   6   7
BRANCH   4  10
ATOM     10  C   UNL     1       3.663  -0.719  -0.042  0.00  0.00    -0.047 C 
BRANCH  10  11
ATOM     11  N   UNL     1       4.484  -0.757   1.175  0.00  0.00    +0.381 N 
ATOM     12  H   UNL     1       3.971  -1.216   1.913  0.00  0.00    -0.090 HD
ATOM     13  H   UNL     1       5.336  -1.265   0.991  0.00  0.00    -0.090 HD
ATOM     14  H   UNL     1       4.709   0.185   1.458  0.00  0.00    -0.090 HD
ENDBRANCH  10  11
ENDBRANCH   4  10
BRANCH   3  15
ATOM     15  O   UNL     1       3.548   2.104  -0.021  0.00  0.00    -0.484 OA
BRANCH  15  16
ATOM     16  C   UNL     1       3.457   3.526  -0.124  0.00  0.00    +0.224 C 
ATOM     17  C   UNL     1       3.509   4.149   1.299  0.00  0.00    +0.213 C 
ATOM     18  S   UNL     1       4.012   5.872   0.863  0.00  0.00    -0.025 S 
ATOM     19  O   UNL     1       2.867   6.600   0.442  0.00  0.00    -0.174 OA
ATOM     20  O   UNL     1       4.837   6.394   1.895  0.00  0.00    -0.174 OA
ATOM     21  C   UNL     1       5.052   5.478  -0.605  0.00  0.00    +0.201 C 
ATOM     22  C   UNL     1       4.617   4.047  -0.972  0.00  0.00    +0.177 C 
BRANCH  22  23
ATOM     23  O   UNL     1       5.734   3.171  -0.807  0.00  0.00    -0.386 OA
ATOM     24  H   UNL     1       6.515   3.431  -1.313  0.00  0.00    +0.210 HD
ENDBRANCH  22  23
ENDBRANCH  15  16
ENDBRANCH   3  15
TORSDOF 6
