REMARK  Name = ZINC53044784
REMARK  1 active torsions:
REMARK  status: ('A' for Active; 'I' for Inactive)
REMARK    1  A    between atoms: C_6  and  N_7
REMARK                            x       y       z     vdW  Elec       q    Type
REMARK                         _______ _______ _______ _____ _____    ______ ____
ROOT
ATOM      1  C   UNL     1      -0.017   1.394   0.010  0.00  0.00    +0.028 A 
ATOM      2  C   UNL     1       1.164   2.107   0.002  0.00  0.00    +0.016 A 
ATOM      3  C   UNL     1       2.381   1.434  -0.013  0.00  0.00    +0.049 A 
ATOM      4  C   UNL     1       2.408   0.020  -0.021  0.00  0.00    +0.051 A 
ATOM      5  C   UNL     1       1.226  -0.692  -0.013  0.00  0.00    +0.041 A 
ATOM      6  C   UNL     1       0.002  -0.004   0.002  0.00  0.00    +0.067 A 
ATOM      7  C   UNL     1       3.838  -0.355  -0.037  0.00  0.00    +0.251 C 
ATOM      8  O   UNL     1       4.274  -1.488  -0.048  0.00  0.00    -0.270 OA
ATOM      9  N   UNL     1       4.574   0.771  -0.038  0.00  0.00    -0.248 N 
ATOM     10  C   UNL     1       3.789   1.863  -0.025  0.00  0.00    +0.251 C 
ATOM     11  O   UNL     1       4.178   3.015  -0.023  0.00  0.00    -0.270 OA
ATOM     12  H   UNL     1       5.543   0.793  -0.048  0.00  0.00    +0.158 HD
ENDROOT
BRANCH   6  13
ATOM     13  N   UNL     1      -1.169  -0.700   0.010  0.00  0.00    -0.226 NA
ATOM     14  C   UNL     1      -2.139  -0.348   0.828  0.00  0.00    +0.155 C 
ATOM     15  N   UNL     1      -3.378  -0.936   0.973  0.00  0.00    -0.317 N 
ATOM     16  C   UNL     1      -4.023  -0.762   2.264  0.00  0.00    +0.043 C 
ATOM     17  C   UNL     1      -3.495  -1.787   3.289  0.00  0.00    +0.026 C 
ATOM     18  C   UNL     1      -4.347  -3.045   2.983  0.00  0.00    +0.002 C 
ATOM     19  C   UNL     1      -5.744  -2.485   2.642  0.00  0.00    +0.002 C 
ATOM     20  C   UNL     1      -5.533  -1.031   2.177  0.00  0.00    +0.026 C 
ATOM     21  C   UNL     1      -3.777   0.670   2.796  0.00  0.00    +0.102 C 
ATOM     22  S   UNL     1      -2.144   0.996   2.005  0.00  0.00    -0.088 S 
ATOM     23  H   UNL     1      -3.795  -1.438   0.255  0.00  0.00    +0.149 HD
ENDBRANCH   6  13
TORSDOF 1
