REMARK  Name = ZINC20706777
REMARK  4 active torsions:
REMARK  status: ('A' for Active; 'I' for Inactive)
REMARK    1  A    between atoms: C_4  and  N_7
REMARK    2  A    between atoms: C_8  and  C_10
REMARK    3  A    between atoms: C_17  and  C_26
REMARK    4  A    between atoms: C_31  and  O_32
REMARK                            x       y       z     vdW  Elec       q    Type
REMARK                         _______ _______ _______ _____ _____    ______ ____
ROOT
ATOM      1  C   UNL     1       3.599   5.982  -0.213  0.00  0.00    +0.058 A 
ATOM      2  C   UNL     1       4.812   5.295  -0.221  0.00  0.00    +0.015 A 
ATOM      3  C   UNL     1       5.997   5.989  -0.331  0.00  0.00    +0.001 A 
ATOM      4  C   UNL     1       5.981   7.371  -0.429  0.00  0.00    +0.006 A 
ATOM      5  C   UNL     1       4.792   8.065  -0.425  0.00  0.00    -0.019 A 
ATOM      6  C   UNL     1       3.574   7.388  -0.312  0.00  0.00    +0.044 A 
ATOM      7  N   UNL     1       2.337   8.011  -0.274  0.00  0.00    -0.336 N 
ATOM      8  C   UNL     1       2.321   9.471  -0.456  0.00  0.00    +0.108 C 
ATOM      9  C   UNL     1       3.523  10.024   0.281  0.00  0.00    +0.029 C 
ATOM     10  C   UNL     1       4.751   9.539  -0.551  0.00  0.00    +0.049 C 
ATOM     11  C   UNL     1       5.848  10.414  -0.070  0.00  0.00    -0.023 C 
ATOM     12  C   UNL     1       5.324  11.566   0.332  0.00  0.00    -0.030 C 
ATOM     13  C   UNL     1       3.801  11.528   0.180  0.00  0.00    +0.033 C 
ATOM     14  H   UNL     1       1.395   7.465  -0.118  0.00  0.00    +0.147 HD
ENDROOT
BRANCH   8  15
ATOM     15  C   UNL     1       1.054  10.047   0.123  0.00  0.00    +0.014 A 
ATOM     16  C   UNL     1       0.385   9.375   1.127  0.00  0.00    +0.009 A 
ATOM     17  C   UNL     1      -0.777   9.902   1.658  0.00  0.00    +0.001 A 
ATOM     18  C   UNL     1      -1.273  11.104   1.186  0.00  0.00    +0.004 A 
ATOM     19  C   UNL     1      -0.607  11.780   0.182  0.00  0.00    +0.046 A 
ATOM     20  C   UNL     1       0.562  11.255  -0.349  0.00  0.00    +0.122 A 
BRANCH  20  21
ATOM     21  O   UNL     1       1.221  11.920  -1.334  0.00  0.00    -0.506 OA
ATOM     22  H   UNL     1       0.830  12.878  -1.707  0.00  0.00    +0.292 HD
ENDBRANCH  20  21
ENDBRANCH   8  15
BRANCH   1  24
ATOM     23  N   UNL     1       2.355   3.889   0.001  0.00  0.00    -0.281 N 
ATOM     24  C   UNL     1       2.335   5.233  -0.094  0.00  0.00    +0.250 C 
ATOM     25  O   UNL     1       1.275   5.828  -0.082  0.00  0.00    -0.270 OA
ATOM     26  H   UNL     1       3.315   3.356   0.066  0.00  0.00    +0.155 HD
BRANCH  23  30
ATOM     27  C   UNL     1      -1.222   1.754   0.041  0.00  0.00    +0.000 A 
ATOM     28  C   UNL     1      -0.106   1.218  -0.576  0.00  0.00    +0.002 A 
ATOM     29  C   UNL     1       1.081   1.924  -0.593  0.00  0.00    +0.023 A 
ATOM     30  C   UNL     1       1.154   3.171   0.015  0.00  0.00    +0.034 A 
ATOM     31  C   UNL     1       0.033   3.704   0.638  0.00  0.00    +0.023 A 
ATOM     32  C   UNL     1      -1.151   2.992   0.651  0.00  0.00    +0.002 A 
ENDBRANCH  23  30
ENDBRANCH   1  24
TORSDOF 4
