REMARK  Name = ZINC54831407
REMARK  8 active torsions:
REMARK  status: ('A' for Active; 'I' for Inactive)
REMARK    1  A    between atoms: C_1  and  C_2
REMARK    2  A    between atoms: C_2  and  C_3
REMARK    3  A    between atoms: C_3  and  N_4
REMARK    4  A    between atoms: N_4  and  C_5
REMARK    5  A    between atoms: C_5  and  C_6
REMARK    6  A    between atoms: C_8  and  C_20
REMARK    7  A    between atoms: C_10  and  C_12
REMARK    8  A    between atoms: C_16  and  C_18
REMARK                            x       y       z     vdW  Elec       q    Type
REMARK                         _______ _______ _______ _____ _____    ______ ____
ROOT
ATOM      1  C   UNL     1       1.446  -3.947  -2.482  0.00  0.00    +0.028 A 
ATOM      2  C   UNL     1       0.472  -4.658  -3.167  0.00  0.00    +0.044 A 
ATOM      3  C   UNL     1       0.528  -6.044  -3.150  0.00  0.00    +0.042 A 
ATOM      4  N   UNL     1       1.501  -6.642  -2.484  0.00  0.00    -0.232 NA
ATOM      5  C   UNL     1       2.416  -5.933  -1.839  0.00  0.00    +0.160 A 
ATOM      6  N   UNL     1       2.395  -4.606  -1.840  0.00  0.00    -0.234 NA
ATOM      7  C   UNL     1      -0.509  -6.858  -3.880  0.00  0.00    +0.066 C 
ENDROOT
BRANCH   5   8
ATOM      8  C   UNL     1       3.493  -6.638  -1.103  0.00  0.00    +0.020 A 
ATOM      9  C   UNL     1       4.462  -5.911  -0.413  0.00  0.00    +0.014 A 
ATOM     10  C   UNL     1       5.460  -6.571   0.271  0.00  0.00    +0.039 A 
ATOM     11  C   UNL     1       5.502  -7.957   0.273  0.00  0.00    +0.126 A 
ATOM     12  C   UNL     1       4.541  -8.684  -0.411  0.00  0.00    -0.015 A 
ATOM     13  C   UNL     1       3.535  -8.032  -1.093  0.00  0.00    +0.017 A 
ATOM     14  C   UNL     1       4.592 -10.190  -0.404  0.00  0.00    +0.047 C 
ATOM     15  F   UNL     1       6.483  -8.600   0.944  0.00  0.00    -0.205 F 
ENDBRANCH   5   8
BRANCH   1  16
ATOM     16  C   UNL     1       1.426  -2.440  -2.474  0.00  0.00    -0.026 C 
BRANCH  16  17
ATOM     17  N   UNL     1       0.738  -1.966  -1.265  0.00  0.00    +0.383 N 
ATOM     18  H   UNL     1       1.226  -2.301  -0.447  0.00  0.00    -0.085 HD
ATOM     19  H   UNL     1      -0.208  -2.316  -1.258  0.00  0.00    -0.085 HD
BRANCH  17  20
ATOM     20  C   UNL     1       0.718  -0.497  -1.257  0.00  0.00    -0.082 C 
BRANCH  20  22
ATOM     21  C   UNL     1      -0.019   1.526   0.010  0.00  0.00    +0.002 C 
ATOM     22  C   UNL     1       0.002  -0.004   0.002  0.00  0.00    -0.022 C 
ENDBRANCH  20  22
ENDBRANCH  17  20
ENDBRANCH  16  17
ENDBRANCH   1  16
TORSDOF 5
