REMARK  Name = ZINC20623344
REMARK  7 active torsions:
REMARK  status: ('A' for Active; 'I' for Inactive)
REMARK    1  A    between atoms: C_1  and  C_2
REMARK    2  A    between atoms: C_2  and  C_3
REMARK    3  A    between atoms: C_3  and  C_4
REMARK    4  A    between atoms: C_4  and  C_5
REMARK    5  A    between atoms: C_8  and  C_11
REMARK    6  A    between atoms: N_13  and  C_14
REMARK    7  A    between atoms: C_14  and  C_15
REMARK                            x       y       z     vdW  Elec       q    Type
REMARK                         _______ _______ _______ _____ _____    ______ ____
ROOT
ATOM      1  C   UNL     1       2.593  -4.872   9.346  0.00  0.00    +0.233 C 
ATOM      2  O   UNL     1       1.417  -4.628   9.175  0.00  0.00    -0.274 OA
ATOM      3  N   UNL     1       3.022  -5.316  10.544  0.00  0.00    -0.300 N 
ATOM      4  C   UNL     1       4.443  -5.610  10.769  0.00  0.00    +0.110 C 
ATOM      5  C   UNL     1       4.919  -4.832  12.000  0.00  0.00    +0.047 C 
ATOM      6  C   UNL     1       4.013  -5.157  13.188  0.00  0.00    +0.064 C 
ATOM      7  C   UNL     1       2.576  -4.738  12.873  0.00  0.00    +0.047 C 
ATOM      8  C   UNL     1       2.077  -5.509  11.653  0.00  0.00    +0.110 C 
ATOM      9  C   UNL     1       4.498  -4.424  14.412  0.00  0.00    +0.057 A 
ATOM     10  C   UNL     1       4.591  -4.999  15.632  0.00  0.00    +0.039 A 
ATOM     11  N   UNL     1       5.063  -4.054  16.486  0.00  0.00    -0.349 N 
ATOM     12  H   UNL     1       5.237  -4.168  17.434  0.00  0.00    +0.166 HD
ATOM     13  C   UNL     1       5.244  -2.924  15.764  0.00  0.00    +0.171 A 
ATOM     14  N   UNL     1       4.902  -3.158  14.523  0.00  0.00    -0.348 N 
ATOM     15  C   UNL     1       4.214  -6.433  15.906  0.00  0.00    +0.070 C 
ATOM     16  C   UNL     1       3.376  -6.934  14.721  0.00  0.00    +0.088 C 
ATOM     17  N   UNL     1       4.056  -6.602  13.460  0.00  0.00    -0.305 NA
ATOM     18  H   UNL     1       3.668  -7.127  12.691  0.00  0.00    +0.123 HD
ATOM     19  H   UNL     1       4.937  -2.513  13.799  0.00  0.00    +0.166 HD
ENDROOT
BRANCH   1  20
ATOM     20  C   UNL     1       3.575  -4.679   8.219  0.00  0.00    +0.200 C 
BRANCH  20  23
ATOM     21  C   UNL     1       3.546  -3.947   5.895  0.00  0.00    +0.244 C 
ATOM     22  O   UNL     1       4.747  -4.129   5.854  0.00  0.00    -0.270 OA
ATOM     23  N   UNL     1       2.866  -4.193   7.033  0.00  0.00    -0.303 N 
ATOM     24  H   UNL     1       1.907  -4.048   7.066  0.00  0.00    +0.150 HD
BRANCH  21  28
ATOM     25  C   UNL     1       1.492  -2.540   2.454  0.00  0.00    -0.047 A 
ATOM     26  C   UNL     1       2.859  -2.745   2.404  0.00  0.00    +0.004 A 
ATOM     27  C   UNL     1       3.532  -3.202   3.518  0.00  0.00    +0.013 A 
ATOM     28  C   UNL     1       2.831  -3.457   4.697  0.00  0.00    +0.037 A 
ATOM     29  C   UNL     1       1.452  -3.248   4.741  0.00  0.00    +0.013 A 
ATOM     30  C   UNL     1       0.791  -2.785   3.622  0.00  0.00    +0.004 A 
BRANCH  25  31
ATOM     31  C   UNL     1       0.763  -2.041   1.233  0.00  0.00    +0.035 C 
BRANCH  31  32
ATOM     32  C   UNL     1       0.742  -0.511   1.242  0.00  0.00    +0.004 C 
BRANCH  32  34
ATOM     33  C   UNL     1      -0.019   1.526   0.010  0.00  0.00    +0.004 C 
ATOM     34  C   UNL     1       0.002  -0.004   0.002  0.00  0.00    -0.003 C 
ENDBRANCH  32  34
ENDBRANCH  31  32
ENDBRANCH  25  31
ENDBRANCH  21  28
ENDBRANCH  20  23
ENDBRANCH   1  20
TORSDOF 6
