REMARK  Name = ZINC04950608
REMARK  8 active torsions:
REMARK  status: ('A' for Active; 'I' for Inactive)
REMARK    1  A    between atoms: C_1  and  O_2
REMARK    2  A    between atoms: O_2  and  C_3
REMARK    3  A    between atoms: C_5  and  C_13
REMARK    4  A    between atoms: C_6  and  O_11
REMARK    5  A    between atoms: C_8  and  O_9
REMARK    6  A    between atoms: O_9  and  C_10
REMARK    7  A    between atoms: O_11  and  C_12
REMARK    8  A    between atoms: C_21  and  O_24
REMARK                            x       y       z     vdW  Elec       q    Type
REMARK                         _______ _______ _______ _____ _____    ______ ____
ROOT
ATOM      1  C   UNL     1      -2.513   0.977   0.019  0.00  0.00    -0.031 C 
ATOM      2  C   UNL     1      -3.073   0.921   1.443  0.00  0.00    +0.011 C 
ATOM      3  C   UNL     1      -2.059   0.225   2.354  0.00  0.00    +0.005 C 
ATOM      4  C   UNL     1      -2.621   0.138   3.774  0.00  0.00    +0.000 C 
ATOM      5  C   UNL     1      -3.921  -0.668   3.758  0.00  0.00    +0.003 C 
ATOM      6  C   UNL     1      -4.934   0.028   2.855  0.00  0.00    +0.035 C 
ATOM      7  C   UNL     1      -4.381   0.125   1.433  0.00  0.00    +0.066 C 
ATOM      8  C   UNL     1      -4.111  -1.278   0.886  0.00  0.00    +0.016 C 
ATOM      9  C   UNL     1      -3.513  -1.165  -0.518  0.00  0.00    -0.079 C 
ATOM     10  N   UNL     1      -2.257  -0.393  -0.466  0.00  0.00    +0.384 N 
ATOM     11  H   UNL     1      -1.600  -0.860   0.170  0.00  0.00    -0.085 HD
ATOM     12  H   UNL     1      -1.849  -0.348  -1.407  0.00  0.00    -0.085 HD
ENDROOT
BRANCH   1  15
ATOM     13  C   UNL     1       1.178   1.784   0.000  0.00  0.00    +0.162 A 
ATOM     14  C   UNL     1      -0.013   1.076   0.008  0.00  0.00    +0.055 A 
ATOM     15  C   UNL     1      -1.219   1.750   0.017  0.00  0.00    -0.016 A 
ATOM     16  C   UNL     1      -1.241   3.137   0.031  0.00  0.00    +0.125 A 
ATOM     17  C   UNL     1      -0.051   3.850   0.023  0.00  0.00    +0.095 A 
ATOM     18  C   UNL     1       1.159   3.175   0.008  0.00  0.00    +0.165 A 
BRANCH  13  20
ATOM     19  C   UNL     1       2.310  -0.308  -0.023  0.00  0.00    +0.277 C 
ATOM     20  O   UNL     1       2.365   1.120  -0.015  0.00  0.00    -0.491 OA
ENDBRANCH  13  20
BRANCH  18  21
ATOM     21  O   UNL     1       2.326   3.872   0.001  0.00  0.00    -0.491 OA
ATOM     22  C   UNL     1       2.231   5.298   0.010  0.00  0.00    +0.277 C 
ENDBRANCH  18  21
BRANCH  16  23
ATOM     23  O   UNL     1      -2.429   3.798   0.046  0.00  0.00    -0.495 OA
ATOM     24  C   UNL     1      -2.377   5.226   0.054  0.00  0.00    +0.277 C 
ENDBRANCH  16  23
ENDBRANCH   1  15
BRANCH   7  25
ATOM     25  O   UNL     1      -5.333   0.786   0.597  0.00  0.00    -0.388 OA
ATOM     26  H   UNL     1      -6.185   0.334   0.538  0.00  0.00    +0.210 HD
ENDBRANCH   7  25
TORSDOF 5
