REMARK  Name = ZINC16999973
REMARK  3 active torsions:
REMARK  status: ('A' for Active; 'I' for Inactive)
REMARK    1  A    between atoms: C_9  and  N_11
REMARK    2  A    between atoms: N_11  and  N_12
REMARK    3  A    between atoms: C_13  and  C_14
REMARK                            x       y       z     vdW  Elec       q    Type
REMARK                         _______ _______ _______ _____ _____    ______ ____
ROOT
ATOM      1  N   UNL     1       4.845  -2.581  -0.288  0.00  0.00    -0.243 N 
ATOM      2  H   UNL     1       5.657  -2.067  -0.156  0.00  0.00    +0.174 HD
ENDROOT
BRANCH   1  11
ATOM      3  C   UNL     1      -0.004   1.281  -1.106  0.00  0.00    +0.002 A 
ATOM      4  C   UNL     1       1.157   2.029  -0.919  0.00  0.00    +0.002 A 
ATOM      5  C   UNL     1       2.358   1.419  -0.719  0.00  0.00    +0.030 A 
ATOM      6  C   UNL     1       2.432   0.015  -0.700  0.00  0.00    +0.091 A 
ATOM      7  C   UNL     1       1.251  -0.745  -0.890  0.00  0.00    +0.089 A 
ATOM      8  C   UNL     1       0.030  -0.080  -1.094  0.00  0.00    +0.030 A 
ATOM      9  N   UNL     1       1.313  -2.082  -0.873  0.00  0.00    -0.250 NA
ATOM     10  C   UNL     1       2.464  -2.680  -0.680  0.00  0.00    +0.156 A 
ATOM     11  C   UNL     1       3.638  -1.930  -0.491  0.00  0.00    +0.155 A 
ATOM     12  N   UNL     1       3.599  -0.611  -0.504  0.00  0.00    -0.228 NA
ENDBRANCH   1  11
BRANCH   1  13
ATOM     13  N   UNL     1       4.892  -3.981  -0.272  0.00  0.00    -0.312 N 
ATOM     14  C   UNL     1       6.060  -4.610  -0.076  0.00  0.00    +0.110 C 
ATOM     15  H   UNL     1       4.080  -4.495  -0.403  0.00  0.00    +0.184 HD
BRANCH  14  16
ATOM     16  C   UNL     1       6.095  -6.004   0.023  0.00  0.00    +0.039 A 
ATOM     17  C   UNL     1       7.325  -6.690   0.116  0.00  0.00    +0.013 A 
ATOM     18  C   UNL     1       7.338  -8.046   0.211  0.00  0.00    +0.001 A 
ATOM     19  C   UNL     1       6.159  -8.786   0.219  0.00  0.00    +0.004 A 
ATOM     20  C   UNL     1       4.940  -8.186   0.132  0.00  0.00    +0.051 A 
ATOM     21  C   UNL     1       4.852  -6.786   0.038  0.00  0.00    +0.187 A 
ATOM     22  O   UNL     1       3.764  -6.232  -0.035  0.00  0.00    -0.287 OA
ENDBRANCH  14  16
ENDBRANCH   1  13
TORSDOF 3
