REMARK  Name = ZINC49063454
REMARK  8 active torsions:
REMARK  status: ('A' for Active; 'I' for Inactive)
REMARK    1  A    between atoms: C_1  and  C_2
REMARK    2  A    between atoms: C_2  and  C_4
REMARK    3  A    between atoms: C_2  and  S_8
REMARK    4  A    between atoms: C_4  and  O_6
REMARK    5  A    between atoms: O_6  and  C_7
REMARK    6  A    between atoms: S_8  and  N_11
REMARK    7  A    between atoms: N_11  and  C_12
REMARK    8  A    between atoms: C_15  and  N_19
REMARK                            x       y       z     vdW  Elec       q    Type
REMARK                         _______ _______ _______ _____ _____    ______ ____
ROOT
ATOM      1  C   UNL     1      -3.689  -0.400  -1.721  0.00  0.00    +0.102 A 
ATOM      2  C   UNL     1      -4.764  -0.042  -0.917  0.00  0.00    +0.045 A 
ATOM      3  C   UNL     1      -6.046  -0.416  -1.272  0.00  0.00    +0.040 A 
ATOM      4  C   UNL     1      -6.260  -1.149  -2.432  0.00  0.00    +0.027 A 
ATOM      5  C   UNL     1      -5.185  -1.506  -3.236  0.00  0.00    +0.040 A 
ATOM      6  C   UNL     1      -3.904  -1.128  -2.884  0.00  0.00    +0.045 A 
ATOM      7 BR   UNL     1      -2.441  -1.607  -3.983  0.00  0.00    -0.048 Br
ATOM      8 BR   UNL     1      -4.473   0.955   0.663  0.00  0.00    -0.048 Br
ENDROOT
BRANCH   4   9
ATOM      9  N   UNL     1      -7.559  -1.528  -2.791  0.00  0.00    -0.358 N 
ATOM     10  H   UNL     1      -8.309  -1.279  -2.230  0.00  0.00    +0.142 HD
ATOM     11  H   UNL     1      -7.708  -2.041  -3.602  0.00  0.00    +0.142 HD
ENDBRANCH   4   9
BRANCH   1  12
ATOM     12  N   UNL     1      -2.389  -0.021  -1.361  0.00  0.00    -0.100 NA
BRANCH  12  13
ATOM     13  S   UNL     1      -1.637  -0.756  -0.082  0.00  0.00    +0.075 S 
ATOM     14  O   UNL     1      -1.615  -2.136  -0.418  0.00  0.00    -0.153 OA
ATOM     15  O   UNL     1      -2.342  -0.300   1.064  0.00  0.00    -0.153 OA
BRANCH  13  17
ATOM     16  C   UNL     1      -0.006   1.433   0.087  0.00  0.00    +0.046 C 
ATOM     17  C   UNL     1       0.049  -0.086  -0.085  0.00  0.00    +0.258 C 
BRANCH  17  18
ATOM     18  C   UNL     1       0.833  -0.692   1.050  0.00  0.00    +0.333 C 
ATOM     19  O   UNL     1       0.253  -1.194   1.984  0.00  0.00    -0.249 OA
BRANCH  18  20
ATOM     20  O   UNL     1       2.175  -0.675   1.024  0.00  0.00    -0.467 OA
ATOM     21  C   UNL     1       2.853  -1.268   2.134  0.00  0.00    +0.280 C 
ENDBRANCH  18  20
ENDBRANCH  17  18
ENDBRANCH  13  17
ENDBRANCH  12  13
ENDBRANCH   1  12
TORSDOF 6
