REMARK  Name = ZINC62247010
REMARK  7 active torsions:
REMARK  status: ('A' for Active; 'I' for Inactive)
REMARK    1  A    between atoms: C_1  and  C_2
REMARK    2  A    between atoms: C_5  and  N_9
REMARK    3  A    between atoms: C_10  and  C_16
REMARK    4  A    between atoms: C_11  and  C_14
REMARK    5  A    between atoms: C_14  and  N_15
REMARK    6  A    between atoms: C_16  and  C_17
REMARK    7  A    between atoms: C_16  and  C_18
REMARK                            x       y       z     vdW  Elec       q    Type
REMARK                         _______ _______ _______ _____ _____    ______ ____
ROOT
ATOM      1  N   UNL     1       0.133  -4.040   0.003  0.00  0.00    -0.216 N 
ATOM      2  C   UNL     1       0.808  -4.850   0.864  0.00  0.00    +0.069 A 
ATOM      3  C   UNL     1       0.465  -6.117   0.533  0.00  0.00    +0.069 A 
ATOM      4  N   UNL     1      -0.388  -6.025  -0.493  0.00  0.00    -0.136 NA
ATOM      5  N   UNL     1      -0.567  -4.784  -0.780  0.00  0.00    -0.060 NA
ENDROOT
BRANCH   1  10
ATOM      6  C   UNL     1       0.345   1.632  -0.098  0.00  0.00    +0.045 C 
ATOM      7  C   UNL     1       0.289   0.126  -0.071  0.00  0.00    -0.032 A 
ATOM      8  C   UNL     1      -0.924  -0.522  -0.209  0.00  0.00    +0.007 A 
ATOM      9  C   UNL     1      -0.979  -1.902  -0.185  0.00  0.00    +0.028 A 
ATOM     10  C   UNL     1       0.186  -2.639  -0.022  0.00  0.00    +0.069 A 
ATOM     11  C   UNL     1       1.403  -1.987   0.117  0.00  0.00    +0.048 A 
ATOM     12  C   UNL     1       1.453  -0.605   0.086  0.00  0.00    +0.046 A 
ATOM     13 CL   UNL     1       2.975   0.212   0.253  0.00  0.00    -0.083 Cl
ENDBRANCH   1  10
BRANCH   2  14
ATOM     14  C   UNL     1       1.748  -4.423   1.962  0.00  0.00    +0.033 C 
ATOM     15  C   UNL     1       1.301  -5.045   3.286  0.00  0.00    +0.014 C 
ATOM     16  C   UNL     1       3.166  -4.892   1.631  0.00  0.00    +0.014 C 
ENDBRANCH   2  14
BRANCH   3  17
ATOM     17  C   UNL     1       0.948  -7.383   1.193  0.00  0.00    -0.026 C 
BRANCH  17  18
ATOM     18  N   UNL     1      -0.039  -7.824   2.188  0.00  0.00    +0.382 N 
ATOM     19  H   UNL     1      -0.105  -7.136   2.923  0.00  0.00    -0.090 HD
ATOM     20  H   UNL     1      -0.939  -7.931   1.745  0.00  0.00    -0.090 HD
ATOM     21  H   UNL     1       0.251  -8.707   2.580  0.00  0.00    -0.090 HD
ENDBRANCH  17  18
ENDBRANCH   3  17
TORSDOF 4
