REMARK  Name = ZINC21443518
REMARK  7 active torsions:
REMARK  status: ('A' for Active; 'I' for Inactive)
REMARK    1  A    between atoms: C_11  and  C_30
REMARK    2  A    between atoms: C_14  and  C_16
REMARK    3  A    between atoms: C_16  and  O_17
REMARK    4  A    between atoms: O_17  and  C_18
REMARK    5  A    between atoms: C_18  and  C_20
REMARK    6  A    between atoms: C_22  and  N_27
REMARK    7  A    between atoms: C_25  and  N_26
REMARK                            x       y       z     vdW  Elec       q    Type
REMARK                         _______ _______ _______ _____ _____    ______ ____
ROOT
ATOM      1  C   UNL     1      -0.041   1.325  -0.005  0.00  0.00    +0.002 A 
ATOM      2  C   UNL     1       1.151   2.027   0.006  0.00  0.00    +0.002 A 
ATOM      3  C   UNL     1       2.357   1.351  -0.004  0.00  0.00    +0.025 A 
ATOM      4  C   UNL     1       2.371  -0.034  -0.031  0.00  0.00    +0.058 A 
ATOM      5  C   UNL     1       1.169  -0.741  -0.061  0.00  0.00    +0.055 A 
ATOM      6  C   UNL     1      -0.036  -0.057  -0.038  0.00  0.00    +0.025 A 
ATOM      7  N   UNL     1       1.198  -2.138  -0.145  0.00  0.00    -0.284 N 
ATOM      8  C   UNL     1       1.980  -2.857   0.689  0.00  0.00    +0.219 C 
ATOM      9  O   UNL     1       2.063  -4.059   0.550  0.00  0.00    -0.275 OA
ATOM     10  C   UNL     1       2.751  -2.176   1.788  0.00  0.00    +0.128 C 
ATOM     11  C   UNL     1       3.966  -1.451   1.208  0.00  0.00    +0.194 C 
ATOM     12  N   UNL     1       3.584  -0.738  -0.012  0.00  0.00    -0.255 N 
ATOM     13  C   UNL     1       4.383  -0.757  -1.097  0.00  0.00    +0.258 C 
ATOM     14  O   UNL     1       5.430  -1.370  -1.068  0.00  0.00    -0.271 OA
ATOM     15  H   UNL     1       0.653  -2.592  -0.807  0.00  0.00    +0.155 HD
ENDROOT
BRANCH  11  16
ATOM     16  C   UNL     1       4.499  -0.449   2.234  0.00  0.00    +0.409 C 
ATOM     17  F   UNL     1       4.872  -1.129   3.399  0.00  0.00    -0.169 F 
ATOM     18  F   UNL     1       5.610   0.215   1.705  0.00  0.00    -0.169 F 
ATOM     19  F   UNL     1       3.500   0.483   2.538  0.00  0.00    -0.169 F 
ENDBRANCH  11  16
BRANCH  13  20
ATOM     20  C   UNL     1       3.976  -0.019  -2.346  0.00  0.00    +0.328 C 
BRANCH  20  21
ATOM     21  O   UNL     1       4.980  -0.190  -3.349  0.00  0.00    -0.452 OA
BRANCH  21  22
ATOM     22  C   UNL     1       4.767   0.412  -4.536  0.00  0.00    +0.341 C 
ATOM     23  O   UNL     1       3.757   1.064  -4.714  0.00  0.00    -0.245 OA
BRANCH  22  24
ATOM     24  C   UNL     1       5.760   0.280  -5.616  0.00  0.00    +0.082 A 
ATOM     25  C   UNL     1       6.978  -0.364  -5.378  0.00  0.00    +0.049 A 
ATOM     26  C   UNL     1       7.901  -0.484  -6.393  0.00  0.00    +0.127 A 
ATOM     27  C   UNL     1       7.630   0.030  -7.652  0.00  0.00    +0.034 A 
ATOM     28  C   UNL     1       6.433   0.667  -7.903  0.00  0.00    +0.026 A 
ATOM     29  C   UNL     1       5.486   0.794  -6.894  0.00  0.00    +0.039 A 
BRANCH  29  30
ATOM     30  N   UNL     1       4.278   1.430  -7.146  0.00  0.00    -0.357 N 
ATOM     31  H   UNL     1       3.654   1.591  -6.421  0.00  0.00    +0.142 HD
ATOM     32  H   UNL     1       4.057   1.713  -8.047  0.00  0.00    +0.142 HD
ENDBRANCH  29  30
BRANCH  26  33
ATOM     33  N   UNL     1       9.190  -1.166  -6.138  0.00  0.00    +0.056 N 
ATOM     34  O   UNL     1       9.430  -1.615  -5.042  0.00  0.00    -0.126 OA
ATOM     35  O   UNL     1      10.003  -1.273  -7.027  0.00  0.00    -0.126 OA
ENDBRANCH  26  33
ENDBRANCH  22  24
ENDBRANCH  21  22
ENDBRANCH  20  21
ENDBRANCH  13  20
TORSDOF 7
