REMARK  Name = ZINC12875294
REMARK  9 active torsions:
REMARK  status: ('A' for Active; 'I' for Inactive)
REMARK    1  A    between atoms: C_1  and  C_2
REMARK    2  A    between atoms: C_7  and  C_8
REMARK    3  A    between atoms: C_17  and  C_19
REMARK    4  A    between atoms: C_19  and  C_21
REMARK    5  A    between atoms: C_19  and  O_22
REMARK    6  A    between atoms: N_25  and  C_28
REMARK    7  A    between atoms: C_28  and  C_29
REMARK    8  A    between atoms: C_32  and  O_35
REMARK    9  A    between atoms: O_35  and  C_36
REMARK                            x       y       z     vdW  Elec       q    Type
REMARK                         _______ _______ _______ _____ _____    ______ ____
ROOT
ATOM      1  C   UNL     1      -2.009   4.610   0.043  0.00  0.00    +0.044 C 
ATOM      2  C   UNL     1      -0.849   3.648   0.028  0.00  0.00    -0.046 A 
ATOM      3  C   UNL     1       0.447   4.132   0.018  0.00  0.00    +0.004 A 
ATOM      4  C   UNL     1       1.512   3.250   0.004  0.00  0.00    +0.005 A 
ATOM      5  C   UNL     1       1.282   1.892   0.000  0.00  0.00    -0.027 A 
ATOM      6  C   UNL     1      -0.017   1.393   0.010  0.00  0.00    +0.039 A 
ATOM      7  C   UNL     1      -1.084   2.288   0.019  0.00  0.00    -0.026 A 
ATOM      8  C   UNL     1      -2.499   1.771   0.025  0.00  0.00    +0.046 C 
ATOM      9  N   UNL     1       0.002  -0.004   0.002  0.00  0.00    -0.286 N 
ATOM     10  C   UNL     1       1.257  -0.494  -0.016  0.00  0.00    +0.211 C 
ATOM     11  O   UNL     1       1.577  -1.664  -0.031  0.00  0.00    -0.277 OA
ATOM     12  C   UNL     1       2.183   0.691  -0.015  0.00  0.00    +0.050 C 
ATOM     13  C   UNL     1       3.099   0.688  -1.244  0.00  0.00    +0.088 C 
ATOM     14  C   UNL     1       4.439   0.086  -0.735  0.00  0.00    +0.075 C 
ATOM     15  C   UNL     1       4.186  -0.236   0.753  0.00  0.00    -0.028 C 
ATOM     16  C   UNL     1       4.538  -1.218  -1.523  0.00  0.00    +0.224 C 
ATOM     17  O   UNL     1       5.445  -2.019  -1.436  0.00  0.00    -0.275 OA
ATOM     18  N   UNL     1       3.476  -1.338  -2.327  0.00  0.00    -0.237 N 
ATOM     19  C   UNL     1       2.604  -0.325  -2.251  0.00  0.00    +0.225 C 
ATOM     20  O   UNL     1       1.578  -0.234  -2.890  0.00  0.00    -0.275 OA
ATOM     21  H   UNL     1      -0.795  -0.556   0.009  0.00  0.00    +0.155 HD
ATOM     22  N   UNL     1       3.083   0.653   1.125  0.00  0.00    +0.396 N 
ATOM     23  H   UNL     1       2.595   0.286   1.950  0.00  0.00    -0.083 HD
ATOM     24  H   UNL     1       3.439   1.594   1.328  0.00  0.00    -0.083 HD
ENDROOT
BRANCH  15  25
ATOM     25  C   UNL     1       5.440   0.053   1.581  0.00  0.00    +0.098 C 
ATOM     26  C   UNL     1       5.167  -0.274   3.050  0.00  0.00    +0.036 C 
BRANCH  25  27
ATOM     27  O   UNL     1       5.785   1.434   1.456  0.00  0.00    -0.394 OA
ATOM     28  H   UNL     1       6.572   1.690   1.956  0.00  0.00    +0.210 HD
ENDBRANCH  25  27
ENDBRANCH  15  25
BRANCH  18  29
ATOM     29  C   UNL     1       3.282  -2.484  -3.219  0.00  0.00    +0.151 C 
BRANCH  29  30
ATOM     30  C   UNL     1       3.918  -2.195  -4.554  0.00  0.00    -0.029 A 
ATOM     31  C   UNL     1       3.179  -1.592  -5.555  0.00  0.00    +0.009 A 
ATOM     32  C   UNL     1       3.762  -1.321  -6.778  0.00  0.00    +0.046 A 
ATOM     33  C   UNL     1       5.086  -1.665  -7.005  0.00  0.00    +0.120 A 
ATOM     34  C   UNL     1       5.824  -2.274  -6.001  0.00  0.00    +0.046 A 
ATOM     35  C   UNL     1       5.239  -2.538  -4.778  0.00  0.00    +0.009 A 
BRANCH  33  36
ATOM     36  O   UNL     1       5.660  -1.405  -8.209  0.00  0.00    -0.495 OA
ATOM     37  C   UNL     1       4.840  -0.775  -9.196  0.00  0.00    +0.277 C 
ENDBRANCH  33  36
ENDBRANCH  29  30
ENDBRANCH  18  29
TORSDOF 5
