REMARK  Name = ZINC19319705
REMARK  6 active torsions:
REMARK  status: ('A' for Active; 'I' for Inactive)
REMARK    1  A    between atoms: C_3  and  C_10
REMARK    2  A    between atoms: C_5  and  N_7
REMARK    3  A    between atoms: C_10  and  C_16
REMARK    4  A    between atoms: N_11  and  N_12
REMARK    5  A    between atoms: N_12  and  C_13
REMARK    6  A    between atoms: C_13  and  N_15
REMARK                            x       y       z     vdW  Elec       q    Type
REMARK                         _______ _______ _______ _____ _____    ______ ____
ROOT
ATOM      1  C   UNL     1      -0.069   5.319   0.034  0.00  0.00    +0.073 C 
ATOM      2  N   UNL     1      -1.204   5.943  -0.046  0.00  0.00    -0.184 NA
ENDROOT
BRANCH   1   3
ATOM      3  C   UNL     1       1.214   6.099   0.156  0.00  0.00    +0.026 C 
ATOM      4  C   UNL     1       2.089   5.883  -1.087  0.00  0.00    -0.059 C 
ATOM      5  N   UNL     1       3.343   6.671  -0.893  0.00  0.00    +0.397 N 
ATOM      6  C   UNL     1       3.025   8.105  -0.784  0.00  0.00    +0.011 C 
ATOM      7  N   UNL     1       2.191   8.322   0.409  0.00  0.00    -0.305 NA
ATOM      8  C   UNL     1       0.914   7.600   0.280  0.00  0.00    +0.096 C 
ATOM      9  C   UNL     1       2.908   7.882   1.617  0.00  0.00    +0.167 C 
ATOM     10  N   UNL     1       3.227   6.450   1.491  0.00  0.00    -0.305 NA
ATOM     11  C   UNL     1       1.990   5.656   1.404  0.00  0.00    +0.096 C 
ATOM     12  C   UNL     1       4.068   6.219   0.305  0.00  0.00    +0.011 C 
ATOM     13  H   UNL     1       4.002   6.521  -1.760  0.00  0.00    -0.078 HD
ENDBRANCH   1   3
BRANCH   1  16
ATOM     14  C   UNL     1      -0.019   1.740   1.162  0.00  0.00    +0.003 A 
ATOM     15  C   UNL     1      -0.050   3.118   1.197  0.00  0.00    +0.010 A 
ATOM     16  C   UNL     1      -0.036   3.844   0.004  0.00  0.00    +0.000 A 
ATOM     17  C   UNL     1       0.010   3.168  -1.217  0.00  0.00    +0.042 A 
ATOM     18  C   UNL     1       0.046   1.789  -1.237  0.00  0.00    +0.127 A 
ATOM     19  C   UNL     1       0.026   1.076  -0.051  0.00  0.00    +0.033 A 
BRANCH  18  20
ATOM     20  N   UNL     1       0.100   1.070  -2.530  0.00  0.00    +0.056 N 
ATOM     21  O   UNL     1       0.127  -0.147  -2.549  0.00  0.00    -0.126 OA
ATOM     22  O   UNL     1       0.118   1.696  -3.574  0.00  0.00    -0.126 OA
ENDBRANCH  18  20
ENDBRANCH   1  16
BRANCH   2  23
ATOM     23  N   UNL     1      -2.404   5.220  -0.038  0.00  0.00    -0.218 N 
ATOM     24  H   UNL     1      -2.383   4.120  -0.051  0.00  0.00    +0.176 HD
BRANCH  23  25
ATOM     25  C   UNL     1      -3.583   5.872  -0.017  0.00  0.00    +0.147 C 
ATOM     26  S   UNL     1      -5.050   4.988  -0.008  0.00  0.00    -0.017 S 
BRANCH  25  27
ATOM     27  N   UNL     1      -3.609   7.219  -0.002  0.00  0.00    -0.339 N 
ATOM     28  H   UNL     1      -4.571   7.751   0.016  0.00  0.00    +0.144 HD
ATOM     29  H   UNL     1      -2.667   7.787  -0.007  0.00  0.00    +0.144 HD
ENDBRANCH  25  27
ENDBRANCH  23  25
ENDBRANCH   2  23
TORSDOF 6
