REMARK  Name = ZINC04885649
REMARK  8 active torsions:
REMARK  status: ('A' for Active; 'I' for Inactive)
REMARK    1  A    between atoms: C_1  and  C_2
REMARK    2  A    between atoms: C_5  and  C_8
REMARK    3  A    between atoms: N_16  and  C_19
REMARK    4  A    between atoms: C_25  and  C_26
REMARK    5  A    between atoms: C_25  and  C_28
REMARK    6  A    between atoms: C_26  and  O_27
REMARK    7  A    between atoms: C_28  and  O_30
REMARK    8  A    between atoms: O_30  and  C_31
REMARK                            x       y       z     vdW  Elec       q    Type
REMARK                         _______ _______ _______ _____ _____    ______ ____
ROOT
ATOM      1  C   UNL     1      -0.013   1.086   0.008  0.00  0.00    -0.027 C 
ATOM      2  C   UNL     1      -0.788   1.608   1.213  0.00  0.00    +0.077 C 
ATOM      3  C   UNL     1      -2.231   1.264   0.678  0.00  0.00    +0.088 C 
ATOM      4  C   UNL     1      -3.011   1.326   1.901  0.00  0.00    +0.229 C 
ATOM      5  O   UNL     1      -4.162   1.691   2.015  0.00  0.00    -0.275 OA
ATOM      6  N   UNL     1      -2.166   0.900   2.895  0.00  0.00    -0.210 N 
ATOM      7  C   UNL     1      -0.864   0.828   2.486  0.00  0.00    +0.229 C 
ATOM      8  O   UNL     1       0.045   0.249   3.043  0.00  0.00    -0.275 OA
ATOM      9  C   UNL     1      -2.217   1.798  -0.692  0.00  0.00    +0.067 C 
ATOM     10  N   UNL     1      -0.803   1.609  -1.142  0.00  0.00    +0.397 N 
ATOM     11  H   UNL     1      -0.773   0.938  -1.919  0.00  0.00    -0.083 HD
ATOM     12  H   UNL     1      -0.414   2.508  -1.451  0.00  0.00    -0.083 HD
ENDROOT
BRANCH   1  17
ATOM     13  C   UNL     1       5.367   3.196  -0.033  0.00  0.00    +0.044 C 
ATOM     14  C   UNL     1       3.964   2.646  -0.022  0.00  0.00    -0.050 A 
ATOM     15  C   UNL     1       3.733   1.349   0.397  0.00  0.00    +0.003 A 
ATOM     16  C   UNL     1       2.446   0.844   0.406  0.00  0.00    +0.002 A 
ATOM     17  C   UNL     1       1.390   1.636  -0.002  0.00  0.00    -0.061 A 
ATOM     18  C   UNL     1       1.621   2.932  -0.426  0.00  0.00    +0.002 A 
ATOM     19  C   UNL     1       2.908   3.438  -0.431  0.00  0.00    +0.003 A 
ENDBRANCH   1  17
BRANCH   6  20
ATOM     20  C   UNL     1      -2.593   0.575   4.190  0.00  0.00    +0.044 A 
ATOM     21  C   UNL     1      -3.936   0.680   4.527  0.00  0.00    +0.024 A 
ATOM     22  C   UNL     1      -4.354   0.355   5.803  0.00  0.00    +0.002 A 
ATOM     23  C   UNL     1      -3.435  -0.067   6.746  0.00  0.00    +0.000 A 
ATOM     24  C   UNL     1      -2.096  -0.168   6.415  0.00  0.00    +0.002 A 
ATOM     25  C   UNL     1      -1.673   0.151   5.140  0.00  0.00    +0.024 A 
ENDBRANCH   6  20
BRANCH   9  26
ATOM     26  C   UNL     1      -2.581   3.261  -0.690  0.00  0.00    +0.299 C 
ATOM     27  O   UNL     1      -3.249   3.716   0.208  0.00  0.00    -0.252 OA
BRANCH  26  28
ATOM     28  O   UNL     1      -2.163   4.058  -1.685  0.00  0.00    -0.469 OA
ATOM     29  C   UNL     1      -2.551   5.455  -1.619  0.00  0.00    +0.280 C 
ENDBRANCH  26  28
ENDBRANCH   9  26
BRANCH   9  30
ATOM     30  C   UNL     1      -3.180   1.011  -1.582  0.00  0.00    +0.155 C 
BRANCH  30  31
ATOM     31  O   UNL     1      -3.064   1.469  -2.931  0.00  0.00    -0.396 OA
ATOM     32  H   UNL     1      -3.647   1.012  -3.552  0.00  0.00    +0.209 HD
ENDBRANCH  30  31
ENDBRANCH   9  30
TORSDOF 6
