REMARK  Name = ZINC13251034
REMARK  8 active torsions:
REMARK  status: ('A' for Active; 'I' for Inactive)
REMARK    1  A    between atoms: C_1  and  C_2
REMARK    2  A    between atoms: C_2  and  O_3
REMARK    3  A    between atoms: O_3  and  C_4
REMARK    4  A    between atoms: C_4  and  C_6
REMARK    5  A    between atoms: C_7  and  C_24
REMARK    6  A    between atoms: C_10  and  N_11
REMARK    7  A    between atoms: C_12  and  C_14
REMARK    8  A    between atoms: C_20  and  C_22
REMARK                            x       y       z     vdW  Elec       q    Type
REMARK                         _______ _______ _______ _____ _____    ______ ____
ROOT
ATOM      1  C   UNL     1      -0.426   6.955  -1.234  0.00  0.00    +0.095 A 
ATOM      2  C   UNL     1       0.323   6.191  -0.254  0.00  0.00    +0.005 A 
ATOM      3  C   UNL     1       0.795   6.873   0.821  0.00  0.00    +0.056 A 
ATOM      4  S   UNL     1       0.234   8.537   0.529  0.00  0.00    -0.080 S 
ATOM      5  C   UNL     1      -0.597   8.308  -0.973  0.00  0.00    +0.086 A 
ENDROOT
BRANCH   2   6
ATOM      6  C   UNL     1       0.564   4.738  -0.420  0.00  0.00    -0.016 A 
ATOM      7  C   UNL     1       1.854   4.224  -0.291  0.00  0.00    +0.009 A 
ATOM      8  C   UNL     1       2.074   2.871  -0.447  0.00  0.00    +0.016 A 
ATOM      9  C   UNL     1       1.016   2.024  -0.731  0.00  0.00    +0.018 A 
ATOM     10  C   UNL     1      -0.265   2.529  -0.865  0.00  0.00    +0.016 A 
ATOM     11  C   UNL     1      -0.497   3.880  -0.706  0.00  0.00    +0.009 A 
ATOM     12 BR   UNL     1       1.325   0.170  -0.943  0.00  0.00    -0.050 Br
ENDBRANCH   2   6
BRANCH   5  13
ATOM     13  N   UNL     1      -1.266   9.252  -1.736  0.00  0.00    -0.279 N 
ATOM     14  C   UNL     1      -1.324  10.534  -1.324  0.00  0.00    +0.222 C 
ATOM     15  O   UNL     1      -0.789  10.862  -0.285  0.00  0.00    -0.275 OA
ATOM     16  H   UNL     1      -1.693   8.989  -2.566  0.00  0.00    +0.155 HD
BRANCH  14  17
ATOM     17  C   UNL     1      -2.052  11.560  -2.153  0.00  0.00    +0.093 C 
ATOM     18  C   UNL     1      -1.283  12.883  -2.126  0.00  0.00    +0.040 C 
ATOM     19  C   UNL     1      -1.381  13.509  -0.766  0.00  0.00    -0.030 C 
ATOM     20  C   UNL     1      -2.262  13.180   0.123  0.00  0.00    -0.030 C 
ATOM     21  C   UNL     1      -3.302  12.117  -0.079  0.00  0.00    +0.042 C 
ATOM     22  C   UNL     1      -3.449  11.799  -1.568  0.00  0.00    +0.118 C 
BRANCH  22  23
ATOM     23  C   UNL     1      -4.291  10.561  -1.745  0.00  0.00    +0.360 C 
ATOM     24  O   UNL     1      -3.825   9.585  -2.284  0.00  0.00    -0.246 OA
ATOM     25  O   UNL     1      -5.559  10.543  -1.304  0.00  0.00    -0.246 OA
ENDBRANCH  22  23
ENDBRANCH  14  17
ENDBRANCH   5  13
BRANCH   1  26
ATOM     26  C   UNL     1      -0.979   6.330  -2.435  0.00  0.00    +0.342 C 
ATOM     27  O   UNL     1      -2.101   5.861  -2.415  0.00  0.00    -0.245 OA
BRANCH  26  28
ATOM     28  O   UNL     1      -0.244   6.273  -3.565  0.00  0.00    -0.461 OA
BRANCH  28  30
ATOM     29  C   UNL     1       0.121   5.668  -5.895  0.00  0.00    +0.048 C 
ATOM     30  C   UNL     1      -0.856   5.638  -4.718  0.00  0.00    +0.229 C 
ENDBRANCH  28  30
ENDBRANCH  26  28
ENDBRANCH   1  26
TORSDOF 7
