REMARK  Name = ZINC32898295
REMARK  8 active torsions:
REMARK  status: ('A' for Active; 'I' for Inactive)
REMARK    1  A    between atoms: C_1  and  O_2
REMARK    2  A    between atoms: O_2  and  C_3
REMARK    3  A    between atoms: C_8  and  C_9
REMARK    4  A    between atoms: C_9  and  C_11
REMARK    5  A    between atoms: C_9  and  N_24
REMARK    6  A    between atoms: C_11  and  N_12
REMARK    7  A    between atoms: C_13  and  C_15
REMARK    8  A    between atoms: C_18  and  C_21
REMARK                            x       y       z     vdW  Elec       q    Type
REMARK                         _______ _______ _______ _____ _____    ______ ____
ROOT
ATOM      1  C   UNL     1      -0.691   2.040   0.988  0.00  0.00    +0.094 C 
ENDROOT
BRANCH   1   2
ATOM      2  N   UNL     1      -0.079   1.897   2.312  0.00  0.00    -0.313 N 
ATOM      3  C   UNL     1      -0.450   2.715   3.317  0.00  0.00    +0.244 C 
ATOM      4  O   UNL     1      -1.292   3.569   3.127  0.00  0.00    -0.270 OA
ATOM      5  H   UNL     1       0.683   1.123   2.484  0.00  0.00    +0.149 HD
BRANCH   3   6
ATOM      6  C   UNL     1       0.169   2.571   4.654  0.00  0.00    +0.037 A 
ATOM      7  C   UNL     1       1.133   1.585   4.875  0.00  0.00    +0.014 A 
ATOM      8  C   UNL     1       1.712   1.454   6.118  0.00  0.00    +0.014 A 
ATOM      9  C   UNL     1       1.329   2.300   7.160  0.00  0.00    +0.037 A 
ATOM     10  C   UNL     1       0.362   3.282   6.941  0.00  0.00    +0.014 A 
ATOM     11  C   UNL     1      -0.214   3.417   5.696  0.00  0.00    +0.014 A 
BRANCH   9  12
ATOM     12  C   UNL     1       1.948   2.156   8.497  0.00  0.00    +0.242 C 
ATOM     13  O   UNL     1       1.614   2.893   9.403  0.00  0.00    -0.270 OA
ATOM     14  N   UNL     1       2.881   1.208   8.708  0.00  0.00    -0.325 N 
ATOM     15  H   UNL     1       3.341   1.101   9.702  0.00  0.00    +0.145 HD
ATOM     16  H   UNL     1       3.184   0.541   7.888  0.00  0.00    +0.145 HD
ENDBRANCH   9  12
ENDBRANCH   3   6
ENDBRANCH   1   2
BRANCH   1  17
ATOM     17  C   UNL     1       0.015   1.113  -0.003  0.00  0.00    -0.017 C 
BRANCH  17  23
ATOM     18  C   UNL     1      -1.667   0.671  -1.809  0.00  0.00    +0.122 A 
ATOM     19  C   UNL     1      -2.169   0.890  -3.084  0.00  0.00    +0.046 A 
ATOM     20  C   UNL     1      -1.537   1.780  -3.930  0.00  0.00    +0.004 A 
ATOM     21  C   UNL     1      -0.406   2.454  -3.507  0.00  0.00    +0.000 A 
ATOM     22  C   UNL     1       0.093   2.241  -2.236  0.00  0.00    +0.005 A 
ATOM     23  C   UNL     1      -0.532   1.348  -1.387  0.00  0.00    -0.018 A 
BRANCH  18  25
ATOM     24  C   UNL     1      -3.450  -0.865  -1.476  0.00  0.00    +0.277 C 
ATOM     25  O   UNL     1      -2.287  -0.204  -0.975  0.00  0.00    -0.495 OA
ENDBRANCH  18  25
ENDBRANCH  17  23
BRANCH  17  26
ATOM     26  N   UNL     1       1.457   1.393   0.007  0.00  0.00    +0.385 N 
ATOM     27  C   UNL     1       2.118   0.828  -1.197  0.00  0.00    -0.078 C 
ATOM     28  C   UNL     1       3.437   1.636  -1.290  0.00  0.00    -0.020 C 
ATOM     29  C   UNL     1       3.004   3.055  -0.854  0.00  0.00    -0.020 C 
ATOM     30  C   UNL     1       1.715   2.849  -0.038  0.00  0.00    -0.078 C 
ATOM     31  H   UNL     1       1.843   0.944   0.934  0.00  0.00    -0.081 HD
ENDBRANCH  17  26
ENDBRANCH   1  17
TORSDOF 7
