REMARK  Name = ZINC47274250
REMARK  6 active torsions:
REMARK  status: ('A' for Active; 'I' for Inactive)
REMARK    1  A    between atoms: C_1  and  C_2
REMARK    2  A    between atoms: C_14  and  C_16
REMARK    3  A    between atoms: C_16  and  N_17
REMARK    4  A    between atoms: N_17  and  C_18
REMARK    5  A    between atoms: N_17  and  C_22
REMARK    6  A    between atoms: C_18  and  C_19
REMARK                            x       y       z     vdW  Elec       q    Type
REMARK                         _______ _______ _______ _____ _____    ______ ____
ROOT
ATOM      1  C   UNL     1       1.002   0.273  -0.582  0.00  0.00    +0.029 C 
ATOM      2  C   UNL     1       0.621  -1.173  -0.259  0.00  0.00    +0.087 C 
ATOM      3  C   UNL     1       1.207  -2.102  -1.323  0.00  0.00    +0.118 C 
ATOM      4  C   UNL     1       1.192  -3.526  -0.833  0.00  0.00    +0.219 C 
ATOM      5  O   UNL     1       0.365  -4.302  -1.261  0.00  0.00    -0.275 OA
ATOM      6  N   UNL     1       2.095  -3.943   0.081  0.00  0.00    -0.284 N 
ATOM      7  C   UNL     1       2.994  -3.038   0.656  0.00  0.00    +0.055 A 
ATOM      8  C   UNL     1       4.348  -3.320   0.712  0.00  0.00    +0.025 A 
ATOM      9  C   UNL     1       5.215  -2.420   1.306  0.00  0.00    +0.002 A 
ATOM     10  C   UNL     1       4.733  -1.241   1.845  0.00  0.00    +0.002 A 
ATOM     11  C   UNL     1       3.383  -0.948   1.784  0.00  0.00    +0.025 A 
ATOM     12  C   UNL     1       2.510  -1.839   1.181  0.00  0.00    +0.058 A 
ATOM     13  N   UNL     1       1.148  -1.532   1.059  0.00  0.00    -0.268 N 
ATOM     14  C   UNL     1       0.338  -1.568   2.135  0.00  0.00    +0.204 C 
ATOM     15  O   UNL     1      -0.840  -1.301   2.017  0.00  0.00    -0.277 OA
ATOM     16  H   UNL     1       2.120  -4.878   0.341  0.00  0.00    +0.155 HD
ENDROOT
BRANCH  14  17
ATOM     17  C   UNL     1       0.894  -1.940   3.486  0.00  0.00    +0.020 C 
BRANCH  17  18
ATOM     18  N   UNL     1      -0.147  -1.772   4.508  0.00  0.00    +0.393 N 
ATOM     19  H   UNL     1      -0.972  -2.286   4.236  0.00  0.00    -0.080 HD
BRANCH  18  20
ATOM     20  C   UNL     1      -0.481  -0.347   4.637  0.00  0.00    -0.067 C 
ATOM     21  C   UNL     1      -1.418  -0.117   5.849  0.00  0.00    -0.015 C 
ATOM     22  C   UNL     1      -1.170   1.372   6.195  0.00  0.00    -0.002 C 
ATOM     23  C   UNL     1       0.343   1.567   5.964  0.00  0.00    -0.002 C 
ATOM     24  C   UNL     1       0.781   0.474   4.974  0.00  0.00    -0.015 C 
ENDBRANCH  18  20
BRANCH  18  25
ATOM     25  C   UNL     1       0.344  -2.278   5.796  0.00  0.00    +0.019 C 
BRANCH  25  26
ATOM     26  C   UNL     1      -0.823  -2.715   6.643  0.00  0.00    +0.194 C 
ATOM     27  O   UNL     1      -1.942  -2.722   6.175  0.00  0.00    -0.278 OA
ATOM     28  N   UNL     1      -0.624  -3.099   7.919  0.00  0.00    -0.331 N 
ATOM     29  H   UNL     1       0.271  -3.094   8.293  0.00  0.00    +0.145 HD
ATOM     30  H   UNL     1      -1.375  -3.381   8.464  0.00  0.00    +0.145 HD
ENDBRANCH  25  26
ENDBRANCH  18  25
ENDBRANCH  17  18
ENDBRANCH  14  17
TORSDOF 5
