REMARK  Name = ZINC55176709
REMARK  7 active torsions:
REMARK  status: ('A' for Active; 'I' for Inactive)
REMARK    1  A    between atoms: C_1  and  C_2
REMARK    2  A    between atoms: C_3  and  C_8
REMARK    3  A    between atoms: C_10  and  C_14
REMARK    4  A    between atoms: N_12  and  C_13
REMARK    5  A    between atoms: C_14  and  C_15
REMARK    6  A    between atoms: C_14  and  C_16
REMARK    7  A    between atoms: C_14  and  C_17
REMARK                            x       y       z     vdW  Elec       q    Type
REMARK                         _______ _______ _______ _____ _____    ______ ____
ROOT
ATOM      1  C   UNL     1      -0.009  -0.239  -2.561  0.00  0.00    +0.167 A 
ATOM      2  N   UNL     1      -0.023   1.022  -2.952  0.00  0.00    -0.210 NA
ATOM      3  C   UNL     1      -0.032   1.081  -4.281  0.00  0.00    +0.157 A 
ATOM      4  N   UNL     1      -0.024  -0.132  -4.769  0.00  0.00    -0.154 NA
ATOM      5  N   UNL     1      -0.003  -1.016  -3.679  0.00  0.00    -0.247 N 
ATOM      6  C   UNL     1       0.017  -2.480  -3.733  0.00  0.00    +0.174 C 
ENDROOT
BRANCH   1   9
ATOM      7  C   UNL     1      -0.018   1.503   0.010  0.00  0.00    +0.067 C 
ATOM      8  C   UNL     1       0.002  -0.004   0.002  0.00  0.00    +0.058 A 
ATOM      9  C   UNL     1       0.006  -0.718  -1.170  0.00  0.00    +0.080 A 
ATOM     10  S   UNL     1       0.033  -2.389  -0.540  0.00  0.00    -0.049 S 
ATOM     11  C   UNL     1       0.036  -2.019   1.101  0.00  0.00    +0.156 A 
ATOM     12  N   UNL     1       0.023  -0.700   1.117  0.00  0.00    -0.230 NA
ATOM     13  N   UNL     1       0.053  -2.888   2.176  0.00  0.00    -0.337 N 
ATOM     14  H   UNL     1       0.066  -3.846   2.024  0.00  0.00    +0.144 HD
ATOM     15  H   UNL     1       0.053  -2.541   3.081  0.00  0.00    +0.144 HD
ENDBRANCH   1   9
BRANCH   3  16
ATOM     16  C   UNL     1      -0.050   2.348  -5.096  0.00  0.00    +0.024 C 
ATOM     17  C   UNL     1       1.194   3.179  -4.774  0.00  0.00    +0.019 C 
ATOM     18  C   UNL     1      -0.056   1.996  -6.585  0.00  0.00    +0.019 C 
ATOM     19  C   UNL     1      -1.304   3.155  -4.758  0.00  0.00    +0.019 C 
ENDBRANCH   3  16
TORSDOF 2
