REMARK  Name = ZINC41701596
REMARK  7 active torsions:
REMARK  status: ('A' for Active; 'I' for Inactive)
REMARK    1  A    between atoms: C_1  and  C_2
REMARK    2  A    between atoms: C_2  and  C_3
REMARK    3  A    between atoms: N_5  and  C_6
REMARK    4  A    between atoms: C_9  and  C_12
REMARK    5  A    between atoms: C_12  and  C_14
REMARK    6  A    between atoms: C_12  and  N_15
REMARK    7  A    between atoms: N_15  and  C_16
REMARK                            x       y       z     vdW  Elec       q    Type
REMARK                         _______ _______ _______ _____ _____    ______ ____
ROOT
ATOM      1  N   UNL     1       4.649  -4.602  -5.670  0.00  0.00    -0.342 N 
ATOM      2  H   UNL     1       4.367  -5.196  -4.956  0.00  0.00    +0.146 HD
ENDROOT
BRANCH   1   3
ATOM      3  C   UNL     1       5.781  -4.850  -6.339  0.00  0.00    +0.081 C 
ATOM      4  C   UNL     1       6.505  -6.024  -6.082  0.00  0.00    +0.051 C 
ATOM      5  C   UNL     1       7.623  -6.353  -6.859  0.00  0.00    +0.024 C 
ATOM      6  C   UNL     1       8.310  -7.536  -6.560  0.00  0.00    -0.003 A 
ATOM      7  C   UNL     1       9.442  -7.931  -7.298  0.00  0.00    +0.010 A 
ATOM      8  C   UNL     1      10.082  -9.087  -6.975  0.00  0.00    +0.001 A 
ATOM      9  C   UNL     1       9.642  -9.894  -5.929  0.00  0.00    +0.002 A 
ATOM     10  C   UNL     1       8.553  -9.567  -5.181  0.00  0.00    +0.024 A 
ATOM     11  C   UNL     1       7.846  -8.383  -5.460  0.00  0.00    +0.041 A 
ATOM     12  N   UNL     1       6.776  -8.038  -4.741  0.00  0.00    -0.281 N 
ATOM     13  C   UNL     1       6.102  -6.923  -4.989  0.00  0.00    +0.249 C 
ATOM     14  O   UNL     1       5.130  -6.641  -4.303  0.00  0.00    -0.270 OA
ATOM     15  H   UNL     1       6.487  -8.614  -4.016  0.00  0.00    +0.155 HD
ENDBRANCH   1   3
BRANCH   1  16
ATOM     16  C   UNL     1       3.836  -3.434  -6.015  0.00  0.00    +0.097 C 
ATOM     17  C   UNL     1       2.901  -3.787  -7.173  0.00  0.00    +0.033 C 
BRANCH  16  21
ATOM     18  C   UNL     1       1.518  -2.259  -2.622  0.00  0.00    +0.033 A 
ATOM     19  C   UNL     1       2.101  -1.295  -3.433  0.00  0.00    +0.023 A 
ATOM     20  C   UNL     1       2.850  -1.678  -4.529  0.00  0.00    +0.007 A 
ATOM     21  C   UNL     1       3.018  -3.019  -4.818  0.00  0.00    -0.027 A 
ATOM     22  C   UNL     1       2.438  -3.982  -4.013  0.00  0.00    +0.007 A 
ATOM     23  C   UNL     1       1.694  -3.606  -2.912  0.00  0.00    +0.023 A 
BRANCH  18  26
ATOM     24  C   UNL     1       0.787  -2.616  -0.386  0.00  0.00    +0.217 C 
ATOM     25  O   UNL     1       1.410  -3.657  -0.361  0.00  0.00    -0.275 OA
ATOM     26  N   UNL     1       0.759  -1.874  -1.511  0.00  0.00    -0.286 N 
ATOM     27  H   UNL     1       0.213  -1.074  -1.550  0.00  0.00    +0.155 HD
BRANCH  24  29
ATOM     28  C   UNL     1       0.240  -3.168   1.969  0.00  0.00    +0.013 C 
ATOM     29  C   UNL     1       0.046  -2.152   0.842  0.00  0.00    +0.093 C 
ENDBRANCH  24  29
ENDBRANCH  18  26
ENDBRANCH  16  21
ENDBRANCH   1  16
TORSDOF 5
