REMARK  Name = ZINC11392643
REMARK  9 active torsions:
REMARK  status: ('A' for Active; 'I' for Inactive)
REMARK    1  A    between atoms: C_1  and  C_2
REMARK    2  A    between atoms: C_2  and  C_4
REMARK    3  A    between atoms: C_2  and  S_19
REMARK    4  A    between atoms: C_4  and  C_6
REMARK    5  A    between atoms: C_8  and  C_17
REMARK    6  A    between atoms: C_8  and  C_18
REMARK    7  A    between atoms: N_15  and  C_16
REMARK    8  A    between atoms: S_19  and  C_20
REMARK    9  A    between atoms: C_24  and  N_26
REMARK                            x       y       z     vdW  Elec       q    Type
REMARK                         _______ _______ _______ _____ _____    ______ ____
ROOT
ATOM      1  C   UNL     1      -1.442   9.864   2.068  0.00  0.00    +0.028 C 
ATOM      2  C   UNL     1      -1.043   9.638   0.608  0.00  0.00    +0.122 C 
ENDROOT
BRANCH   2   3
ATOM      3  C   UNL     1      -0.813   8.168   0.372  0.00  0.00    +0.171 C 
ATOM      4  O   UNL     1       0.310   7.709   0.448  0.00  0.00    -0.291 OA
BRANCH   3   5
ATOM      5  C   UNL     1      -1.894   7.329   0.066  0.00  0.00    +0.067 C 
ATOM      6  C   UNL     1      -1.706   5.990  -0.034  0.00  0.00    +0.024 C 
ATOM      7  C   UNL     1      -0.390   5.252   0.094  0.00  0.00    +0.030 C 
ATOM      8  C   UNL     1      -0.760   3.800  -0.100  0.00  0.00    -0.015 A 
ATOM      9  C   UNL     1      -0.018   2.640  -0.099  0.00  0.00    +0.006 A 
ATOM     10  C   UNL     1      -0.640   1.422  -0.309  0.00  0.00    +0.000 A 
ATOM     11  C   UNL     1      -2.006   1.374  -0.520  0.00  0.00    +0.002 A 
ATOM     12  C   UNL     1      -2.751   2.534  -0.527  0.00  0.00    +0.024 A 
ATOM     13  C   UNL     1      -2.133   3.765  -0.311  0.00  0.00    +0.038 A 
ATOM     14  N   UNL     1      -2.663   5.053  -0.268  0.00  0.00    -0.305 N 
ATOM     15  C   UNL     1      -4.084   5.361  -0.452  0.00  0.00    +0.135 C 
ATOM     16  C   UNL     1       0.213   5.470   1.483  0.00  0.00    +0.022 C 
ATOM     17  C   UNL     1       0.587   5.706  -0.993  0.00  0.00    +0.022 C 
ENDBRANCH   3   5
ENDBRANCH   2   3
BRANCH   2  18
ATOM     18  S   UNL     1       0.478  10.552   0.250  0.00  0.00    -0.075 S 
BRANCH  18  19
ATOM     19  C   UNL     1      -0.103  12.203   0.453  0.00  0.00    +0.192 A 
ATOM     20  N   UNL     1      -1.371  12.406   0.778  0.00  0.00    -0.207 NA
ATOM     21  C   UNL     1      -1.843  13.639   0.946  0.00  0.00    +0.122 A 
ATOM     22  C   UNL     1      -0.988  14.722   0.763  0.00  0.00    +0.086 A 
ATOM     23  C   UNL     1       0.336  14.470   0.416  0.00  0.00    +0.122 A 
ATOM     24  N   UNL     1       0.739  13.210   0.272  0.00  0.00    -0.207 NA
ATOM     25  N   UNL     1      -3.170  13.842   1.291  0.00  0.00    -0.343 N 
ATOM     26  H   UNL     1      -3.509  14.744   1.407  0.00  0.00    +0.144 HD
ATOM     27  H   UNL     1      -3.760  13.083   1.416  0.00  0.00    +0.144 HD
BRANCH  23  28
ATOM     28  N   UNL     1       1.224  15.518   0.225  0.00  0.00    -0.343 N 
ATOM     29  H   UNL     1       2.145  15.335  -0.016  0.00  0.00    +0.144 HD
ATOM     30  H   UNL     1       0.923  16.434   0.333  0.00  0.00    +0.144 HD
ENDBRANCH  23  28
ENDBRANCH  18  19
ENDBRANCH   2  18
TORSDOF 5
