REMARK  Name = ZINC59599478
REMARK  13 active torsions:
REMARK  status: ('A' for Active; 'I' for Inactive)
REMARK    1  A    between atoms: C_1  and  N_2
REMARK    2  A    between atoms: C_3  and  N_36
REMARK    3  A    between atoms: C_4  and  O_11
REMARK    4  A    between atoms: N_7  and  C_10
REMARK    5  A    between atoms: O_11  and  C_12
REMARK    6  A    between atoms: C_15  and  C_20
REMARK    7  A    between atoms: C_17  and  O_18
REMARK    8  A    between atoms: O_18  and  C_19
REMARK    9  A    between atoms: N_21  and  N_22
REMARK   10  A    between atoms: C_23  and  C_25
REMARK   11  A    between atoms: C_25  and  S_26
REMARK   12  A    between atoms: S_26  and  C_27
REMARK   13  A    between atoms: C_30  and  N_33
REMARK                            x       y       z     vdW  Elec       q    Type
REMARK                         _______ _______ _______ _____ _____    ______ ____
ROOT
ATOM      1  C   UNL     1      -3.473  -2.062  -0.033  0.00  0.00    +0.170 A 
ATOM      2  C   UNL     1      -3.442  -0.689  -0.231  0.00  0.00    +0.050 A 
ATOM      3  C   UNL     1      -4.618   0.027  -0.301  0.00  0.00    +0.013 A 
ATOM      4  C   UNL     1      -5.845  -0.630  -0.173  0.00  0.00    -0.002 A 
ATOM      5  C   UNL     1      -5.875  -2.013   0.026  0.00  0.00    +0.059 A 
ATOM      6  C   UNL     1      -4.692  -2.725   0.090  0.00  0.00    +0.163 A 
ENDROOT
BRANCH   6   7
ATOM      7  O   UNL     1      -4.719  -4.072   0.279  0.00  0.00    -0.491 OA
ATOM      8  C   UNL     1      -6.004  -4.685   0.396  0.00  0.00    +0.277 C 
ENDBRANCH   6   7
BRANCH   4   9
ATOM      9  C   UNL     1      -7.103   0.133  -0.247  0.00  0.00    +0.138 C 
ATOM     10  N   UNL     1      -7.073   1.418  -0.432  0.00  0.00    -0.188 NA
BRANCH  10  11
ATOM     11  N   UNL     1      -8.269   2.143  -0.503  0.00  0.00    -0.206 N 
ATOM     12  C   UNL     1      -8.238   3.477  -0.695  0.00  0.00    +0.242 C 
ATOM     13  O   UNL     1      -7.174   4.049  -0.806  0.00  0.00    -0.273 OA
ATOM     14  H   UNL     1      -9.120   1.686  -0.414  0.00  0.00    +0.177 HD
BRANCH  12  15
ATOM     15  C   UNL     1      -9.525   4.258  -0.771  0.00  0.00    +0.171 C 
BRANCH  15  16
ATOM     16  S   UNL     1      -9.152   6.014  -1.032  0.00  0.00    -0.116 S 
BRANCH  16  17
ATOM     17  C   UNL     1     -10.737   6.781  -1.098  0.00  0.00    +0.008 A 
ATOM     18  C   UNL     1     -11.888   6.016  -0.951  0.00  0.00    +0.017 A 
ATOM     19  C   UNL     1     -13.128   6.620  -1.003  0.00  0.00    +0.034 A 
ATOM     20  C   UNL     1     -13.226   7.985  -1.201  0.00  0.00    +0.126 A 
ATOM     21  C   UNL     1     -12.083   8.750  -1.349  0.00  0.00    +0.034 A 
ATOM     22  C   UNL     1     -10.839   8.153  -1.292  0.00  0.00    +0.017 A 
BRANCH  20  23
ATOM     23  N   UNL     1     -14.558   8.630  -1.257  0.00  0.00    +0.056 N 
ATOM     24  O   UNL     1     -15.558   7.963  -1.128  0.00  0.00    -0.126 OA
ATOM     25  O   UNL     1     -14.645   9.823  -1.430  0.00  0.00    -0.126 OA
ENDBRANCH  20  23
ENDBRANCH  16  17
ENDBRANCH  15  16
ENDBRANCH  12  15
ENDBRANCH  10  11
ENDBRANCH   4   9
BRANCH   1  26
ATOM     26  O   UNL     1      -2.311  -2.763   0.036  0.00  0.00    -0.443 OA
BRANCH  26  30
ATOM     27  C   UNL     1       1.818  -1.553  -2.158  0.00  0.00    +0.155 C 
ATOM     28  N   UNL     1       0.893  -1.450  -1.027  0.00  0.00    -0.282 N 
ATOM     29  C   UNL     1      -0.282  -2.166  -1.038  0.00  0.00    +0.149 A 
ATOM     30  C   UNL     1      -1.140  -2.064   0.023  0.00  0.00    +0.230 A 
ATOM     31  C   UNL     1      -0.796  -1.228   1.100  0.00  0.00    +0.301 A 
ATOM     32  O   UNL     1      -1.544  -1.121   2.057  0.00  0.00    -0.263 OA
ATOM     33  N   UNL     1       0.365  -0.545   1.068  0.00  0.00    -0.261 N 
ATOM     34  C   UNL     1       1.199  -0.661   0.019  0.00  0.00    +0.333 A 
ATOM     35  O   UNL     1       2.244  -0.040   0.013  0.00  0.00    -0.246 OA
ATOM     36  C   UNL     1       0.725   0.327   2.188  0.00  0.00    +0.157 C 
BRANCH  29  37
ATOM     37  N   UNL     1      -0.592  -2.976  -2.105  0.00  0.00    -0.341 N 
ATOM     38  H   UNL     1      -0.018  -2.989  -2.887  0.00  0.00    +0.144 HD
ATOM     39  H   UNL     1      -1.384  -3.534  -2.077  0.00  0.00    +0.144 HD
ENDBRANCH  29  37
ENDBRANCH  26  30
ENDBRANCH   1  26
TORSDOF 10
