REMARK  Name = ZINC20755997
REMARK  5 active torsions:
REMARK  status: ('A' for Active; 'I' for Inactive)
REMARK    1  A    between atoms: C_1  and  C_2
REMARK    2  A    between atoms: C_2  and  N_3
REMARK    3  A    between atoms: N_10  and  N_11
REMARK    4  A    between atoms: N_26  and  C_27
REMARK    5  A    between atoms: C_27  and  C_28
REMARK                            x       y       z     vdW  Elec       q    Type
REMARK                         _______ _______ _______ _____ _____    ______ ____
ROOT
ATOM      1  N   UNL     1      -0.698   1.558   1.213  0.00  0.00    -0.315 N 
ATOM      2  C   UNL     1      -0.210   1.225   2.460  0.00  0.00    +0.198 A 
ATOM      3  N   UNL     1      -0.830   1.658   3.554  0.00  0.00    -0.300 N 
ATOM      4  C   UNL     1      -0.362   1.332   4.755  0.00  0.00    +0.198 A 
ATOM      5  N   UNL     1       0.730   0.582   4.863  0.00  0.00    -0.181 NA
ATOM      6  C   UNL     1       1.352   0.153   3.769  0.00  0.00    +0.240 A 
ATOM      7  N   UNL     1       0.882   0.474   2.568  0.00  0.00    -0.181 NA
ATOM      8  N   UNL     1       2.486  -0.626   3.881  0.00  0.00    -0.216 N 
ATOM      9  N   UNL     1      -1.008   1.778   5.891  0.00  0.00    -0.315 N 
ATOM     10  H   UNL     1      -1.602   2.179   1.124  0.00  0.00    +0.149 HD
ATOM     11  H   UNL     1       3.000  -0.981   2.976  0.00  0.00    +0.176 HD
ATOM     12  H   UNL     1      -1.912   2.398   5.802  0.00  0.00    +0.149 HD
ATOM     13  H   UNL     1      -1.728   2.286   3.465  0.00  0.00    +0.171 HD
ENDROOT
BRANCH   8  14
ATOM     14  N   UNL     1       2.981  -0.965   5.147  0.00  0.00    -0.200 N 
ATOM     15  C   UNL     1       4.085  -0.350   5.610  0.00  0.00    +0.280 A 
ATOM     16  O   UNL     1       4.651   0.494   4.936  0.00  0.00    -0.265 OA
ATOM     17  C   UNL     1       4.582  -0.697   6.906  0.00  0.00    +0.075 A 
ATOM     18  C   UNL     1       5.751  -0.157   7.603  0.00  0.00    -0.023 A 
ATOM     19  C   UNL     1       6.018  -0.656   8.827  0.00  0.00    -0.004 A 
ATOM     20  S   UNL     1       4.748  -1.857   9.122  0.00  0.00    -0.075 S 
ATOM     21  C   UNL     1       3.859  -1.685   7.595  0.00  0.00    +0.092 A 
ATOM     22  N   UNL     1       2.778  -2.258   7.079  0.00  0.00    -0.328 N 
ATOM     23  C   UNL     1       2.338  -1.916   5.885  0.00  0.00    +0.179 A 
ATOM     24  S   UNL     1       0.900  -2.697   5.232  0.00  0.00    -0.011 S 
ATOM     25  C   UNL     1       7.146  -0.275   9.737  0.00  0.00    +0.043 C 
ATOM     26  C   UNL     1       8.181   0.512   8.921  0.00  0.00    +0.005 C 
ATOM     27  C   UNL     1       7.452   1.583   8.103  0.00  0.00    +0.005 C 
ATOM     28  C   UNL     1       6.640   0.921   6.990  0.00  0.00    +0.037 C 
ATOM     29  H   UNL     1       2.239  -3.028   7.649  0.00  0.00    +0.168 HD
ENDBRANCH   8  14
BRANCH   1  31
ATOM     30  C   UNL     1      -0.753   1.593  -1.232  0.00  0.00    +0.024 C 
ATOM     31  C   UNL     1      -0.013   1.086   0.008  0.00  0.00    +0.101 C 
ENDBRANCH   1  31
BRANCH   9  32
ATOM     32  C   UNL     1      -0.490   1.424   7.215  0.00  0.00    +0.101 C 
ATOM     33  C   UNL     1      -1.384   2.039   8.293  0.00  0.00    +0.024 C 
ENDBRANCH   9  32
TORSDOF 3
