REMARK  Name = ZINC66121901
REMARK  5 active torsions:
REMARK  status: ('A' for Active; 'I' for Inactive)
REMARK    1  A    between atoms: C_5  and  C_7
REMARK    2  A    between atoms: C_10  and  N_12
REMARK    3  A    between atoms: C_19  and  C_22
REMARK    4  A    between atoms: C_22  and  C_23
REMARK    5  A    between atoms: C_23  and  C_24
REMARK                            x       y       z     vdW  Elec       q    Type
REMARK                         _______ _______ _______ _____ _____    ______ ____
ROOT
ATOM      1  N   UNL     1       1.152  -4.138  -1.675  0.00  0.00    -0.296 N 
ATOM      2  C   UNL     1       0.945  -4.542  -2.944  0.00  0.00    +0.302 C 
ATOM      3  O   UNL     1       0.185  -3.921  -3.663  0.00  0.00    -0.253 OA
ATOM      4  N   UNL     1       1.579  -5.633  -3.416  0.00  0.00    -0.285 N 
ATOM      5  C   UNL     1       2.405  -6.462  -2.528  0.00  0.00    +0.109 C 
ATOM      6  C   UNL     1       1.933  -7.916  -2.631  0.00  0.00    +0.019 C 
ATOM      7  C   UNL     1       1.955  -8.352  -4.098  0.00  0.00    +0.006 C 
ATOM      8  C   UNL     1       0.997  -7.476  -4.907  0.00  0.00    +0.007 C 
ATOM      9  C   UNL     1       1.453  -6.020  -4.828  0.00  0.00    +0.112 C 
ATOM     10  H   UNL     1       1.700  -4.673  -1.080  0.00  0.00    +0.151 HD
ENDROOT
BRANCH   1  13
ATOM     11  C   UNL     1       1.235  -2.180  -0.027  0.00  0.00    +0.042 C 
ATOM     12  C   UNL     1      -0.093  -2.907   0.194  0.00  0.00    +0.033 C 
ATOM     13  C   UNL     1       0.549  -2.892  -1.195  0.00  0.00    +0.083 C 
BRANCH  11  18
ATOM     14  C   UNL     1      -0.016   1.382   0.002  0.00  0.00    +0.000 A 
ATOM     15  C   UNL     1       1.170   2.092  -0.011  0.00  0.00    +0.001 A 
ATOM     16  C   UNL     1       2.377   1.420  -0.030  0.00  0.00    +0.020 A 
ATOM     17  C   UNL     1       2.399   0.037  -0.035  0.00  0.00    +0.044 A 
ATOM     18  C   UNL     1       1.212  -0.673  -0.021  0.00  0.00    -0.024 A 
ATOM     19  C   UNL     1       0.005   0.000  -0.003  0.00  0.00    +0.005 A 
ATOM     20 CL   UNL     1       3.916  -0.808  -0.058  0.00  0.00    -0.083 Cl
ENDBRANCH  11  18
ENDBRANCH   1  13
BRANCH   8  21
ATOM     21  C   UNL     1       0.995  -7.934  -6.367  0.00  0.00    +0.014 C 
BRANCH  21  22
ATOM     22  C   UNL     1      -0.054  -7.141  -7.149  0.00  0.00    +0.096 C 
BRANCH  22  23
ATOM     23  C   UNL     1      -0.056  -7.592  -8.586  0.00  0.00    +0.210 C 
ATOM     24  O   UNL     1       0.706  -8.463  -8.950  0.00  0.00    -0.276 OA
ATOM     25  N   UNL     1      -0.905  -7.029  -9.469  0.00  0.00    -0.329 N 
ATOM     26  H   UNL     1      -1.514  -6.332  -9.178  0.00  0.00    +0.145 HD
ATOM     27  H   UNL     1      -0.907  -7.319 -10.394  0.00  0.00    +0.145 HD
ENDBRANCH  22  23
ENDBRANCH  21  22
ENDBRANCH   8  21
TORSDOF 5
