REMARK  Name = ZINC54398669
REMARK  9 active torsions:
REMARK  status: ('A' for Active; 'I' for Inactive)
REMARK    1  A    between atoms: C_1  and  C_2
REMARK    2  A    between atoms: C_4  and  C_18
REMARK    3  A    between atoms: C_7  and  O_8
REMARK    4  A    between atoms: O_8  and  C_9
REMARK    5  A    between atoms: C_10  and  C_15
REMARK    6  A    between atoms: C_15  and  N_17
REMARK    7  A    between atoms: C_18  and  C_19
REMARK    8  A    between atoms: C_18  and  C_20
REMARK    9  A    between atoms: C_18  and  C_21
REMARK                            x       y       z     vdW  Elec       q    Type
REMARK                         _______ _______ _______ _____ _____    ______ ____
ROOT
ATOM      1  O   UNL     1       0.025  -0.033   2.381  0.00  0.00    -0.436 OA
ENDROOT
BRANCH   1   8
ATOM      2  C   UNL     1      -0.076   1.529   0.029  0.00  0.00    +0.047 C 
ATOM      3  C   UNL     1      -0.028   0.023   0.003  0.00  0.00    -0.008 A 
ATOM      4  C   UNL     1      -0.025  -0.648  -1.205  0.00  0.00    +0.011 A 
ATOM      5  C   UNL     1       0.019  -2.029  -1.230  0.00  0.00    -0.042 A 
ATOM      6  C   UNL     1       0.062  -2.744  -0.046  0.00  0.00    +0.008 A 
ATOM      7  C   UNL     1       0.060  -2.078   1.164  0.00  0.00    +0.047 A 
ATOM      8  C   UNL     1       0.021  -0.691   1.192  0.00  0.00    +0.133 A 
BRANCH   5   9
ATOM      9  C   UNL     1       0.021  -2.758  -2.549  0.00  0.00    -0.013 C 
ATOM     10  C   UNL     1       1.243  -2.334  -3.365  0.00  0.00    +0.015 C 
ATOM     11  C   UNL     1       0.074  -4.267  -2.298  0.00  0.00    +0.015 C 
ATOM     12  C   UNL     1      -1.253  -2.415  -3.323  0.00  0.00    +0.015 C 
ENDBRANCH   5   9
ENDBRANCH   1   8
BRANCH   1  13
ATOM     13  C   UNL     1       1.216   0.382   2.874  0.00  0.00    +0.249 A 
ATOM     14  C   UNL     1       1.284   0.981   4.141  0.00  0.00    +0.153 A 
ATOM     15  N   UNL     1       2.459   1.385   4.617  0.00  0.00    -0.246 NA
ATOM     16  C   UNL     1       3.552   1.222   3.898  0.00  0.00    +0.131 A 
ATOM     17  C   UNL     1       3.484   0.631   2.645  0.00  0.00    +0.134 A 
ATOM     18  N   UNL     1       2.324   0.220   2.164  0.00  0.00    -0.218 NA
BRANCH  14  19
ATOM     19  C   UNL     1       0.058   1.161   4.943  0.00  0.00    +0.101 C 
ATOM     20  S   UNL     1      -1.452   0.640   4.327  0.00  0.00    -0.033 S 
BRANCH  19  21
ATOM     21  N   UNL     1       0.127   1.737   6.160  0.00  0.00    -0.350 N 
ATOM     22  H   UNL     1       0.983   2.032   6.509  0.00  0.00    +0.143 HD
ATOM     23  H   UNL     1      -0.678   1.855   6.686  0.00  0.00    +0.143 HD
ENDBRANCH  19  21
ENDBRANCH  14  19
ENDBRANCH   1  13
TORSDOF 5
