REMARK  Name = ZINC20694719
REMARK  7 active torsions:
REMARK  status: ('A' for Active; 'I' for Inactive)
REMARK    1  A    between atoms: C_1  and  C_2
REMARK    2  A    between atoms: C_2  and  C_3
REMARK    3  A    between atoms: N_5  and  C_6
REMARK    4  A    between atoms: C_19  and  C_22
REMARK    5  A    between atoms: C_26  and  O_29
REMARK    6  A    between atoms: C_27  and  O_28
REMARK    7  A    between atoms: O_29  and  C_30
REMARK                            x       y       z     vdW  Elec       q    Type
REMARK                         _______ _______ _______ _____ _____    ______ ____
ROOT
ATOM      1  C   UNL     1       0.057   5.081   0.056  0.00  0.00    +0.034 A 
ATOM      2  C   UNL     1      -0.643   3.882   0.021  0.00  0.00    +0.025 A 
ATOM      3  C   UNL     1       0.045   2.688   0.080  0.00  0.00    +0.025 A 
ATOM      4  C   UNL     1       1.432   2.685   0.161  0.00  0.00    +0.031 A 
ATOM      5  C   UNL     1       2.139   3.877   0.190  0.00  0.00    -0.018 A 
ATOM      6  C   UNL     1       1.440   5.076   0.138  0.00  0.00    +0.029 A 
ATOM      7  C   UNL     1       3.631   3.921   0.273  0.00  0.00    +0.049 C 
ATOM      8  C   UNL     1       4.096   4.316   1.655  0.00  0.00    -0.023 C 
ATOM      9  C   UNL     1       5.189   3.664   1.969  0.00  0.00    -0.030 C 
ATOM     10  C   UNL     1       5.606   2.748   0.835  0.00  0.00    +0.033 C 
ATOM     11  C   UNL     1       4.289   2.549   0.029  0.00  0.00    +0.029 C 
ATOM     12  C   UNL     1       3.486   1.452   0.733  0.00  0.00    +0.109 C 
ATOM     13  N   UNL     1       2.113   1.462   0.216  0.00  0.00    -0.336 N 
ATOM     14  H   UNL     1       1.643   0.524  -0.116  0.00  0.00    +0.147 HD
ENDROOT
BRANCH  12  15
ATOM     15  C   UNL     1       3.468   1.712   2.217  0.00  0.00    +0.018 A 
ATOM     16  C   UNL     1       2.532   2.576   2.757  0.00  0.00    +0.009 A 
ATOM     17  C   UNL     1       2.510   2.813   4.118  0.00  0.00    +0.004 A 
ATOM     18  C   UNL     1       3.430   2.196   4.946  0.00  0.00    +0.049 A 
ATOM     19  C   UNL     1       4.374   1.334   4.411  0.00  0.00    +0.162 A 
ATOM     20  C   UNL     1       4.393   1.091   3.041  0.00  0.00    +0.163 A 
BRANCH  20  21
ATOM     21  O   UNL     1       5.317   0.245   2.511  0.00  0.00    -0.503 OA
ATOM     22  H   UNL     1       6.050  -0.248   3.166  0.00  0.00    +0.292 HD
ENDBRANCH  20  21
BRANCH  19  23
ATOM     23  O   UNL     1       5.280   0.726   5.223  0.00  0.00    -0.491 OA
ATOM     24  C   UNL     1       5.201   1.023   6.619  0.00  0.00    +0.277 C 
ENDBRANCH  19  23
ENDBRANCH  12  15
BRANCH   1  27
ATOM     25  C   UNL     1      -1.836   6.416   0.605  0.00  0.00    +0.217 C 
ATOM     26  O   UNL     1      -2.353   5.449   1.123  0.00  0.00    -0.275 OA
ATOM     27  N   UNL     1      -0.635   6.298   0.004  0.00  0.00    -0.285 N 
ATOM     28  H   UNL     1      -0.200   7.157  -0.528  0.00  0.00    +0.155 HD
BRANCH  25  30
ATOM     29  C   UNL     1      -3.869   7.611   1.371  0.00  0.00    +0.013 C 
ATOM     30  C   UNL     1      -2.536   7.751   0.635  0.00  0.00    +0.093 C 
ENDBRANCH  25  30
ENDBRANCH   1  27
TORSDOF 5
