REMARK  Name = ZINC22463841
REMARK  8 active torsions:
REMARK  status: ('A' for Active; 'I' for Inactive)
REMARK    1  A    between atoms: C_1  and  C_2
REMARK    2  A    between atoms: C_5  and  S_25
REMARK    3  A    between atoms: C_7  and  C_8
REMARK    4  A    between atoms: N_10  and  C_11
REMARK    5  A    between atoms: C_11  and  C_12
REMARK    6  A    between atoms: C_12  and  C_14
REMARK    7  A    between atoms: C_12  and  N_20
REMARK    8  A    between atoms: S_25  and  N_28
REMARK                            x       y       z     vdW  Elec       q    Type
REMARK                         _______ _______ _______ _____ _____    ______ ____
ROOT
ATOM      1  C   UNL     1      -0.119  -3.277   2.215  0.00  0.00    +0.244 C 
ATOM      2  O   UNL     1      -0.313  -2.889   3.350  0.00  0.00    -0.270 OA
ATOM      3  N   UNL     1      -0.298  -2.437   1.176  0.00  0.00    -0.313 N 
ATOM      4  H   UNL     1      -0.123  -2.788   0.148  0.00  0.00    +0.149 HD
ENDROOT
BRANCH   1  11
ATOM      5  C   UNL     1       0.470  -5.003   4.461  0.00  0.00    +0.044 C 
ATOM      6  C   UNL     1       0.600  -5.512   3.049  0.00  0.00    -0.038 A 
ATOM      7  C   UNL     1       0.999  -6.812   2.816  0.00  0.00    +0.006 A 
ATOM      8  C   UNL     1       1.124  -7.279   1.520  0.00  0.00    +0.029 A 
ATOM      9  C   UNL     1       0.846  -6.449   0.449  0.00  0.00    +0.106 A 
ATOM     10  C   UNL     1       0.441  -5.148   0.667  0.00  0.00    +0.041 A 
ATOM     11  C   UNL     1       0.313  -4.670   1.973  0.00  0.00    +0.041 A 
BRANCH   9  12
ATOM     12  S   UNL     1       1.008  -7.054  -1.198  0.00  0.00    +0.056 S 
ATOM     13  O   UNL     1       0.875  -8.466  -1.127  0.00  0.00    -0.153 OA
ATOM     14  O   UNL     1       0.165  -6.249  -2.011  0.00  0.00    -0.153 OA
BRANCH  12  15
ATOM     15  N   UNL     1       2.562  -6.748  -1.681  0.00  0.00    -0.204 NA
ATOM     16  H   UNL     1       2.705  -7.113  -2.709  0.00  0.00    +0.144 HD
ATOM     17  H   UNL     1       3.263  -7.264  -1.008  0.00  0.00    +0.144 HD
ENDBRANCH  12  15
ENDBRANCH   9  12
ENDBRANCH   1  11
BRANCH   3  18
ATOM     18  C   UNL     1      -0.727  -1.057   1.415  0.00  0.00    +0.094 C 
BRANCH  18  19
ATOM     19  C   UNL     1      -1.038  -0.381   0.079  0.00  0.00    -0.020 C 
BRANCH  19  20
ATOM     20  C   UNL     1      -1.416   1.058   0.320  0.00  0.00    -0.059 A 
ATOM     21  C   UNL     1      -2.626   1.364   0.916  0.00  0.00    +0.002 A 
ATOM     22  C   UNL     1      -2.971   2.683   1.141  0.00  0.00    +0.000 A 
ATOM     23  C   UNL     1      -2.111   3.697   0.763  0.00  0.00    +0.000 A 
ATOM     24  C   UNL     1      -0.904   3.392   0.163  0.00  0.00    +0.000 A 
ATOM     25  C   UNL     1      -0.557   2.072  -0.059  0.00  0.00    +0.002 A 
ENDBRANCH  19  20
BRANCH  19  26
ATOM     26  N   UNL     1      -2.154  -1.077  -0.574  0.00  0.00    +0.385 N 
ATOM     27  C   UNL     1      -2.667  -0.295  -1.728  0.00  0.00    -0.078 C 
ATOM     28  C   UNL     1      -3.416  -1.358  -2.571  0.00  0.00    -0.020 C 
ATOM     29  C   UNL     1      -2.523  -2.611  -2.420  0.00  0.00    -0.020 C 
ATOM     30  C   UNL     1      -1.715  -2.376  -1.131  0.00  0.00    -0.078 C 
ATOM     31  H   UNL     1      -2.920  -1.210   0.203  0.00  0.00    -0.081 HD
ENDBRANCH  19  26
ENDBRANCH  18  19
ENDBRANCH   3  18
TORSDOF 7
