REMARK  Name = ZINC07844781
REMARK  5 active torsions:
REMARK  status: ('A' for Active; 'I' for Inactive)
REMARK    1  A    between atoms: C_1  and  C_2
REMARK    2  A    between atoms: C_2  and  C_4
REMARK    3  A    between atoms: C_2  and  N_14
REMARK    4  A    between atoms: C_15  and  C_17
REMARK    5  A    between atoms: C_17  and  N_52
REMARK                            x       y       z     vdW  Elec       q    Type
REMARK                         _______ _______ _______ _____ _____    ______ ____
ROOT
ATOM      1  N   UNL     1       3.197  -1.929  -2.537  0.00  0.00    -0.314 N 
ATOM      2  C   UNL     1       3.270  -2.615  -3.695  0.00  0.00    +0.197 C 
ATOM      3  O   UNL     1       3.546  -2.037  -4.726  0.00  0.00    -0.278 OA
ATOM      4  H   UNL     1       2.976  -2.391  -1.713  0.00  0.00    +0.149 HD
ENDROOT
BRANCH   1   6
ATOM      5  C   UNL     1       4.954  -0.234  -2.407  0.00  0.00    +0.028 C 
ATOM      6  C   UNL     1       3.450  -0.486  -2.523  0.00  0.00    +0.076 C 
BRANCH   6   7
ATOM      7  C   UNL     1       2.733   0.145  -1.328  0.00  0.00    -0.010 C 
ATOM      8  C   UNL     1       1.228  -0.107  -1.444  0.00  0.00    +0.012 C 
ATOM      9  C   UNL     1       0.511   0.524  -0.249  0.00  0.00    -0.010 C 
ATOM     10  C   UNL     1       0.776   2.031  -0.234  0.00  0.00    +0.007 C 
ATOM     11  C   UNL     1       2.280   2.284  -0.118  0.00  0.00    -0.010 C 
ATOM     12  C   UNL     1       2.997   1.652  -1.313  0.00  0.00    +0.012 C 
ATOM     13  C   UNL     1       2.804   1.661   1.178  0.00  0.00    +0.007 C 
ATOM     14  C   UNL     1       2.539   0.154   1.163  0.00  0.00    -0.010 C 
ATOM     15  C   UNL     1       1.035  -0.098   1.047  0.00  0.00    +0.007 C 
ATOM     16  C   UNL     1       3.256  -0.477  -0.032  0.00  0.00    +0.012 C 
ENDBRANCH   6   7
ENDBRANCH   1   6
BRANCH   2  17
ATOM     17  C   UNL     1       3.010  -4.099  -3.710  0.00  0.00    +0.019 C 
BRANCH  17  25
ATOM     18  C   UNL     1       1.863  -4.025  -5.844  0.00  0.00    -0.059 C 
ATOM     19  C   UNL     1       2.070  -4.300  -7.335  0.00  0.00    +0.085 C 
ATOM     20  N   UNL     1       2.384  -5.711  -7.545  0.00  0.00    -0.319 N 
ATOM     21  C   UNL     1       2.810  -6.514  -6.564  0.00  0.00    +0.196 C 
ATOM     22  O   UNL     1       3.078  -7.666  -6.833  0.00  0.00    -0.278 OA
ATOM     23  C   UNL     1       2.972  -6.049  -5.145  0.00  0.00    +0.019 C 
ATOM     24  H   UNL     1       2.278  -6.081  -8.435  0.00  0.00    +0.149 HD
ATOM     25  N   UNL     1       3.021  -4.576  -5.112  0.00  0.00    +0.392 N 
ATOM     26  H   UNL     1       3.886  -4.258  -5.566  0.00  0.00    -0.080 HD
ENDBRANCH  17  25
ENDBRANCH   2  17
TORSDOF 4
