REMARK  Name = ZINC66830901
REMARK  6 active torsions:
REMARK  status: ('A' for Active; 'I' for Inactive)
REMARK    1  A    between atoms: C_1  and  C_2
REMARK    2  A    between atoms: C_5  and  N_8
REMARK    3  A    between atoms: C_10  and  C_15
REMARK    4  A    between atoms: N_17  and  C_18
REMARK    5  A    between atoms: C_18  and  C_19
REMARK    6  A    between atoms: C_21  and  C_24
REMARK                            x       y       z     vdW  Elec       q    Type
REMARK                         _______ _______ _______ _____ _____    ______ ____
ROOT
ATOM      1  N   UNL     1       1.499  -3.999  -0.034  0.00  0.00    -0.298 N 
ATOM      2  C   UNL     1       2.722  -4.811  -0.044  0.00  0.00    +0.121 C 
ATOM      3  C   UNL     1       2.280  -6.227   0.386  0.00  0.00    +0.101 C 
ATOM      4  C   UNL     1       0.791  -6.234  -0.032  0.00  0.00    +0.110 C 
ATOM      5  C   UNL     1       0.400  -4.772  -0.027  0.00  0.00    +0.217 C 
ATOM      6  O   UNL     1      -0.741  -4.359  -0.020  0.00  0.00    -0.276 OA
ENDROOT
BRANCH   1  11
ATOM      7  C   UNL     1      -0.019   1.526   0.010  0.00  0.00    +0.007 C 
ATOM      8  C   UNL     1       0.002  -0.004   0.002  0.00  0.00    -0.014 C 
ATOM      9  C   UNL     1       0.718  -0.497  -1.257  0.00  0.00    +0.005 C 
ATOM     10  C   UNL     1       0.739  -2.027  -1.265  0.00  0.00    +0.023 C 
ATOM     11  C   UNL     1       1.479  -2.534  -0.026  0.00  0.00    +0.076 C 
ATOM     12  C   UNL     1       0.763  -2.041   1.233  0.00  0.00    +0.023 C 
ATOM     13  C   UNL     1       0.742  -0.511   1.242  0.00  0.00    +0.005 C 
ENDBRANCH   1  11
BRANCH   3  14
ATOM     14  C   UNL     1       2.423  -6.408   1.875  0.00  0.00    +0.218 C 
ATOM     15  O   UNL     1       2.840  -5.497   2.559  0.00  0.00    -0.275 OA
ATOM     16  N   UNL     1       2.087  -7.581   2.447  0.00  0.00    -0.306 N 
ATOM     17  H   UNL     1       1.753  -8.309   1.900  0.00  0.00    +0.149 HD
BRANCH  16  18
ATOM     18  C   UNL     1       2.226  -7.756   3.895  0.00  0.00    +0.203 C 
BRANCH  18  19
ATOM     19  C   UNL     1       1.787  -9.146   4.277  0.00  0.00    +0.245 A 
ATOM     20  N   UNL     1       2.553 -10.200   4.338  0.00  0.00    -0.194 NA
ATOM     21  C   UNL     1       1.837 -11.267   4.710  0.00  0.00    +0.175 A 
ATOM     22  N   UNL     1       0.600 -10.903   4.891  0.00  0.00    -0.061 NA
ATOM     23  O   UNL     1       0.544  -9.511   4.617  0.00  0.00    -0.336 OA
BRANCH  21  24
ATOM     24  C   UNL     1       2.375 -12.664   4.890  0.00  0.00    +0.060 C 
ATOM     25  C   UNL     1       1.361 -13.786   5.123  0.00  0.00    +0.012 C 
ATOM     26  C   UNL     1       2.242 -13.299   6.276  0.00  0.00    +0.012 C 
ENDBRANCH  21  24
ENDBRANCH  18  19
ENDBRANCH  16  18
ENDBRANCH   3  14
TORSDOF 5
