REMARK  Name = ZINC05208574
REMARK  7 active torsions:
REMARK  status: ('A' for Active; 'I' for Inactive)
REMARK    1  A    between atoms: C_3  and  C_6
REMARK    2  A    between atoms: C_11  and  O_30
REMARK    3  A    between atoms: C_17  and  N_18
REMARK    4  A    between atoms: N_19  and  C_22
REMARK    5  A    between atoms: C_22  and  C_23
REMARK    6  A    between atoms: C_23  and  C_24
REMARK    7  A    between atoms: C_24  and  N_25
REMARK                            x       y       z     vdW  Elec       q    Type
REMARK                         _______ _______ _______ _____ _____    ______ ____
ROOT
ATOM      1  C   UNL     1       3.599   0.625  -0.029  0.00  0.00    +0.127 C 
ATOM      2  C   UNL     1       4.092  -0.095   1.197  0.00  0.00    +0.010 A 
ATOM      3  C   UNL     1       4.083   0.561   2.416  0.00  0.00    +0.012 A 
ATOM      4  C   UNL     1       4.529  -0.078   3.555  0.00  0.00    +0.046 A 
ATOM      5  C   UNL     1       4.990  -1.385   3.481  0.00  0.00    +0.120 A 
ATOM      6  C   UNL     1       5.002  -2.044   2.263  0.00  0.00    +0.092 A 
ATOM      7  C   UNL     1       4.553  -1.399   1.117  0.00  0.00    +0.138 A 
ATOM      8  O   UNL     1       4.573  -2.063  -0.064  0.00  0.00    -0.437 OA
ATOM      9  C   UNL     1       4.529  -1.380  -1.227  0.00  0.00    +0.229 A 
ATOM     10  C   UNL     1       4.067  -0.080  -1.270  0.00  0.00    +0.067 A 
ATOM     11  C   UNL     1       4.043   0.573  -2.499  0.00  0.00    +0.107 A 
ATOM     12  N   UNL     1       4.463  -0.080  -3.581  0.00  0.00    -0.320 N 
ATOM     13  C   UNL     1       4.895  -1.321  -3.494  0.00  0.00    +0.204 A 
ATOM     14  N   UNL     1       4.932  -1.960  -2.356  0.00  0.00    -0.202 NA
ENDROOT
BRANCH   1  17
ATOM     15  C   UNL     1      -0.016   1.341   0.009  0.00  0.00    +0.041 A 
ATOM     16  C   UNL     1       1.331   1.769  -0.001  0.00  0.00    +0.045 A 
ATOM     17  C   UNL     1       2.092   0.660  -0.014  0.00  0.00    +0.117 A 
ATOM     18  O   UNL     1       1.282  -0.411  -0.012  0.00  0.00    -0.467 OA
ATOM     19  C   UNL     1       0.002  -0.004   0.002  0.00  0.00    +0.195 A 
ENDBRANCH   1  17
BRANCH  11  20
ATOM     20  N   UNL     1       3.590   1.880  -2.595  0.00  0.00    -0.344 N 
ATOM     21  H   UNL     1       3.287   2.347  -1.801  0.00  0.00    +0.144 HD
ATOM     22  H   UNL     1       3.577   2.327  -3.455  0.00  0.00    +0.144 HD
ENDBRANCH  11  20
BRANCH   5  23
ATOM     23  O   UNL     1       5.431  -2.016   4.601  0.00  0.00    -0.507 OA
ATOM     24  H   UNL     1       4.741  -2.497   5.079  0.00  0.00    +0.292 HD
ENDBRANCH   5  23
BRANCH  12  25
ATOM     25  C   UNL     1       4.445   0.591  -4.884  0.00  0.00    +0.126 C 
BRANCH  25  26
ATOM     26  C   UNL     1       5.727   1.408  -5.054  0.00  0.00    +0.043 C 
BRANCH  26  27
ATOM     27  C   UNL     1       5.708   2.109  -6.415  0.00  0.00    +0.124 C 
BRANCH  27  28
ATOM     28  N   UNL     1       6.936   2.891  -6.578  0.00  0.00    -0.338 N 
ATOM     29  C   UNL     1       7.123   4.196  -6.207  0.00  0.00    +0.104 A 
ATOM     30  C   UNL     1       8.389   4.516  -6.537  0.00  0.00    +0.101 A 
ATOM     31  N   UNL     1       8.959   3.438  -7.094  0.00  0.00    -0.352 N 
ATOM     32  C   UNL     1       8.096   2.459  -7.117  0.00  0.00    +0.173 A 
ATOM     33  H   UNL     1       9.870   3.391  -7.424  0.00  0.00    +0.166 HD
ENDBRANCH  27  28
ENDBRANCH  26  27
ENDBRANCH  25  26
ENDBRANCH  12  25
TORSDOF 7
