REMARK  Name = ZINC38797081
REMARK  6 active torsions:
REMARK  status: ('A' for Active; 'I' for Inactive)
REMARK    1  A    between atoms: C_1  and  C_2
REMARK    2  A    between atoms: C_6  and  N_12
REMARK    3  A    between atoms: C_9  and  C_11
REMARK    4  A    between atoms: C_13  and  C_15
REMARK    5  A    between atoms: C_15  and  N_16
REMARK    6  A    between atoms: C_21  and  C_23
REMARK                            x       y       z     vdW  Elec       q    Type
REMARK                         _______ _______ _______ _____ _____    ______ ____
ROOT
ATOM      1  N   UNL     1      -3.770  -2.355   1.754  0.00  0.00    -0.288 N 
ATOM      2  C   UNL     1      -4.697  -3.334   1.772  0.00  0.00    +0.199 C 
ATOM      3  O   UNL     1      -5.043  -3.861   0.737  0.00  0.00    -0.278 OA
ATOM      4  H   UNL     1      -3.493  -1.933   2.582  0.00  0.00    +0.151 HD
ENDROOT
BRANCH   1   9
ATOM      5  C   UNL     1      -0.019   1.526   0.010  0.00  0.00    +0.030 C 
ATOM      6  C   UNL     1       0.002  -0.004   0.002  0.00  0.00    +0.099 C 
ATOM      7  C   UNL     1      -1.409  -0.528   0.019  0.00  0.00    -0.011 C 
ATOM      8  C   UNL     1      -1.717  -1.674   0.651  0.00  0.00    +0.065 C 
ATOM      9  C   UNL     1      -3.181  -1.929   0.482  0.00  0.00    +0.243 C 
ATOM     10  O   UNL     1      -3.752  -0.670   0.063  0.00  0.00    -0.347 OA
ATOM     11  C   UNL     1      -2.663   0.023  -0.586  0.00  0.00    +0.146 C 
ATOM     12  C   UNL     1      -2.687  -0.251  -2.091  0.00  0.00    +0.043 C 
ATOM     13  C   UNL     1      -0.670  -2.429   1.357  0.00  0.00    +0.258 C 
ATOM     14  O   UNL     1      -0.872  -3.538   1.815  0.00  0.00    -0.269 OA
ATOM     15  N   UNL     1       0.533  -1.813   1.465  0.00  0.00    -0.247 N 
ATOM     16  N   UNL     1       0.706  -0.493   1.194  0.00  0.00    -0.233 NA
ATOM     17  H   UNL     1       1.300  -2.335   1.746  0.00  0.00    +0.169 HD
ATOM     18  H   UNL     1       1.686  -0.255   1.159  0.00  0.00    +0.145 HD
ENDBRANCH   1   9
BRANCH   2  19
ATOM     19  C   UNL     1      -5.303  -3.772   3.081  0.00  0.00    +0.020 C 
BRANCH  19  20
ATOM     20  N   UNL     1      -6.278  -4.843   2.834  0.00  0.00    +0.393 N 
ATOM     21  C   UNL     1      -5.582  -6.020   2.294  0.00  0.00    -0.072 C 
ATOM     22  C   UNL     1      -6.630  -7.003   1.750  0.00  0.00    +0.023 C 
ATOM     23  C   UNL     1      -7.704  -7.157   2.791  0.00  0.00    -0.018 C 
ATOM     24  C   UNL     1      -7.876  -6.377   3.853  0.00  0.00    -0.069 C 
ATOM     25  C   UNL     1      -6.952  -5.185   4.091  0.00  0.00    -0.009 C 
ATOM     26  C   UNL     1      -8.993  -6.729   4.801  0.00  0.00    +0.041 C 
ATOM     27  C   UNL     1     -10.050  -7.632   4.119  0.00  0.00    +0.078 C 
ATOM     28  S   UNL     1      -8.979  -8.390   2.825  0.00  0.00    -0.129 S 
ATOM     29  H   UNL     1      -6.961  -4.525   2.164  0.00  0.00    -0.080 HD
BRANCH  25  30
ATOM     30  C   UNL     1      -7.761  -4.006   4.566  0.00  0.00    -0.057 A 
ATOM     31  C   UNL     1      -8.472  -3.245   3.657  0.00  0.00    +0.002 A 
ATOM     32  C   UNL     1      -9.215  -2.163   4.092  0.00  0.00    +0.000 A 
ATOM     33  C   UNL     1      -9.247  -1.843   5.437  0.00  0.00    +0.000 A 
ATOM     34  C   UNL     1      -8.537  -2.605   6.346  0.00  0.00    +0.000 A 
ATOM     35  C   UNL     1      -7.798  -3.689   5.910  0.00  0.00    +0.002 A 
ENDBRANCH  25  30
ENDBRANCH  19  20
ENDBRANCH   2  19
TORSDOF 4
