REMARK  Name = ZINC37819213
REMARK  10 active torsions:
REMARK  status: ('A' for Active; 'I' for Inactive)
REMARK    1  A    between atoms: C_1  and  N_2
REMARK    2  A    between atoms: N_2  and  C_3
REMARK    3  A    between atoms: N_2  and  C_4
REMARK    4  A    between atoms: C_4  and  C_5
REMARK    5  A    between atoms: C_13  and  C_15
REMARK    6  A    between atoms: C_15  and  C_16
REMARK    7  A    between atoms: C_16  and  C_17
REMARK    8  A    between atoms: C_17  and  C_18
REMARK    9  A    between atoms: C_18  and  C_19
REMARK   10  A    between atoms: C_19  and  N_20
REMARK                            x       y       z     vdW  Elec       q    Type
REMARK                         _______ _______ _______ _____ _____    ______ ____
ROOT
ATOM      1  C   UNL     1       2.137  -0.060  -1.158  0.00  0.00    +0.199 C 
ATOM      2  O   UNL     1       2.554   0.571  -0.210  0.00  0.00    -0.278 OA
ATOM      3  N   UNL     1       2.967  -0.387  -2.168  0.00  0.00    -0.300 N 
ATOM      4  C   UNL     1       2.474  -1.145  -3.326  0.00  0.00    +0.126 C 
ATOM      5  C   UNL     1       2.795  -0.356  -4.601  0.00  0.00    +0.126 C 
ATOM      6  N   UNL     1       4.210   0.040  -4.565  0.00  0.00    -0.298 N 
ATOM      7  C   UNL     1       4.703   0.799  -3.407  0.00  0.00    +0.126 C 
ATOM      8  C   UNL     1       4.380   0.015  -2.134  0.00  0.00    +0.126 C 
ATOM      9  C   UNL     1       5.040  -0.287  -5.575  0.00  0.00    +0.216 C 
ATOM     10  O   UNL     1       4.622  -0.913  -6.525  0.00  0.00    -0.276 OA
ENDROOT
BRANCH   1  11
ATOM     11  C   UNL     1       0.690  -0.478  -1.207  0.00  0.00    +0.018 C 
BRANCH  11  13
ATOM     12  C   UNL     1      -0.018   1.465   0.010  0.00  0.00    -0.096 C 
ATOM     13  N   UNL     1       0.002  -0.004   0.002  0.00  0.00    +0.382 N 
ATOM     14  C   UNL     1      -1.376  -0.512   0.012  0.00  0.00    -0.096 C 
ATOM     15  H   UNL     1       0.490  -0.338   0.820  0.00  0.00    -0.082 HD
ENDBRANCH  11  13
ENDBRANCH   1  11
BRANCH   9  16
ATOM     16  C   UNL     1       6.488   0.126  -5.523  0.00  0.00    +0.096 C 
BRANCH  16  17
ATOM     17  C   UNL     1       7.204  -0.366  -6.783  0.00  0.00    +0.009 C 
BRANCH  17  18
ATOM     18  C   UNL     1       8.675   0.053  -6.731  0.00  0.00    -0.001 C 
BRANCH  18  19
ATOM     19  C   UNL     1       9.390  -0.439  -7.990  0.00  0.00    -0.020 C 
BRANCH  19  20
ATOM     20  C   UNL     1      10.861  -0.019  -7.938  0.00  0.00    -0.086 C 
BRANCH  20  21
ATOM     21  N   UNL     1      11.548  -0.492  -9.147  0.00  0.00    +0.378 N 
ATOM     22  H   UNL     1      11.487  -1.498  -9.197  0.00  0.00    -0.090 HD
ATOM     23  H   UNL     1      11.112  -0.087  -9.962  0.00  0.00    -0.090 HD
ATOM     24  H   UNL     1      12.518  -0.216  -9.112  0.00  0.00    -0.090 HD
ENDBRANCH  20  21
ENDBRANCH  19  20
ENDBRANCH  18  19
ENDBRANCH  17  18
ENDBRANCH  16  17
ENDBRANCH   9  16
TORSDOF 8
