REMARK  Name = ZINC62701988
REMARK  9 active torsions:
REMARK  status: ('A' for Active; 'I' for Inactive)
REMARK    1  A    between atoms: C_1  and  C_2
REMARK    2  A    between atoms: C_2  and  C_4
REMARK    3  A    between atoms: C_2  and  O_10
REMARK    4  A    between atoms: O_10  and  C_11
REMARK    5  A    between atoms: C_14  and  C_18
REMARK    6  A    between atoms: C_18  and  N_19
REMARK    7  A    between atoms: N_19  and  C_20
REMARK    8  A    between atoms: C_20  and  C_21
REMARK    9  A    between atoms: C_20  and  C_22
REMARK                            x       y       z     vdW  Elec       q    Type
REMARK                         _______ _______ _______ _____ _____    ______ ____
ROOT
ATOM      1  C   UNL     1      -0.031  -0.600   2.303  0.00  0.00    +0.136 A 
ATOM      2  C   UNL     1      -1.400  -0.376   2.286  0.00  0.00    +0.047 A 
ATOM      3  C   UNL     1      -2.134  -0.501   3.450  0.00  0.00    +0.005 A 
ATOM      4  C   UNL     1      -1.506  -0.848   4.631  0.00  0.00    -0.063 A 
ATOM      5  C   UNL     1      -0.142  -1.071   4.652  0.00  0.00    +0.020 A 
ATOM      6  C   UNL     1       0.597  -0.954   3.489  0.00  0.00    +0.060 A 
ATOM      7 BR   UNL     1       2.461  -1.267   3.516  0.00  0.00    -0.047 Br
ENDROOT
BRANCH   1   8
ATOM      8  O   UNL     1       0.693  -0.477   1.160  0.00  0.00    -0.479 OA
BRANCH   8  10
ATOM      9  C   UNL     1      -0.294   1.265  -0.192  0.00  0.00    +0.062 C 
ATOM     10  C   UNL     1      -0.034  -0.235  -0.046  0.00  0.00    +0.256 C 
BRANCH  10  11
ATOM     11  C   UNL     1       0.769  -0.723  -1.224  0.00  0.00    +0.261 C 
ATOM     12  O   UNL     1       1.894  -1.144  -1.058  0.00  0.00    -0.271 OA
ATOM     13  N   UNL     1       0.238  -0.691  -2.462  0.00  0.00    -0.237 N 
ATOM     14  C   UNL     1       0.957  -1.127  -3.516  0.00  0.00    +0.303 C 
ATOM     15  O   UNL     1       2.084  -1.549  -3.349  0.00  0.00    -0.253 OA
ATOM     16  N   UNL     1       0.425  -1.094  -4.754  0.00  0.00    -0.313 N 
ATOM     17  H   UNL     1      -0.662  -0.353  -2.595  0.00  0.00    +0.159 HD
ATOM     18  H   UNL     1      -0.474  -0.757  -4.887  0.00  0.00    +0.146 HD
ATOM     19  H   UNL     1       0.943  -1.408  -5.512  0.00  0.00    +0.146 HD
ENDBRANCH  10  11
ENDBRANCH   8  10
ENDBRANCH   1   8
BRANCH   4  20
ATOM     20  C   UNL     1      -2.309  -0.983   5.899  0.00  0.00    -0.046 C 
BRANCH  20  21
ATOM     21  N   UNL     1      -2.786  -2.366   6.032  0.00  0.00    +0.383 N 
ATOM     22  H   UNL     1      -3.366  -2.599   5.240  0.00  0.00    -0.085 HD
ATOM     23  H   UNL     1      -1.996  -2.992   6.067  0.00  0.00    -0.085 HD
BRANCH  21  24
ATOM     24  C   UNL     1      -3.569  -2.497   7.268  0.00  0.00    -0.078 C 
ATOM     25  C   UNL     1      -4.170  -3.903   7.344  0.00  0.00    -0.014 C 
ATOM     26  C   UNL     1      -2.659  -2.265   8.476  0.00  0.00    -0.014 C 
ENDBRANCH  21  24
ENDBRANCH  20  21
ENDBRANCH   4  20
TORSDOF 6
