REMARK  Name = ZINC53859975
REMARK  9 active torsions:
REMARK  status: ('A' for Active; 'I' for Inactive)
REMARK    1  A    between atoms: C_1  and  C_2
REMARK    2  A    between atoms: C_2  and  C_3
REMARK    3  A    between atoms: C_3  and  C_4
REMARK    4  A    between atoms: C_8  and  N_22
REMARK    5  A    between atoms: C_10  and  C_13
REMARK    6  A    between atoms: C_13  and  N_14
REMARK    7  A    between atoms: C_18  and  C_20
REMARK    8  A    between atoms: C_20  and  C_21
REMARK    9  A    between atoms: N_22  and  C_23
REMARK                            x       y       z     vdW  Elec       q    Type
REMARK                         _______ _______ _______ _____ _____    ______ ____
ROOT
ATOM      1  C   UNL     1      -0.890  -2.966   0.376  0.00  0.00    -0.011 C 
ATOM      2  C   UNL     1      -0.291  -3.585  -0.889  0.00  0.00    +0.002 C 
ATOM      3  C   UNL     1      -0.580  -5.087  -0.907  0.00  0.00    -0.015 C 
ATOM      4  C   UNL     1      -2.093  -5.316  -0.895  0.00  0.00    -0.071 C 
ATOM      5  C   UNL     1      -2.692  -4.698   0.370  0.00  0.00    -0.042 C 
ATOM      6  C   UNL     1      -2.403  -3.195   0.389  0.00  0.00    +0.003 C 
ENDROOT
BRANCH   4   7
ATOM      7  N   UNL     1      -2.693  -4.687  -2.079  0.00  0.00    +0.379 N 
ATOM      8  C   UNL     1      -2.208  -5.362  -3.290  0.00  0.00    -0.100 C 
ATOM      9  H   UNL     1      -3.698  -4.767  -2.029  0.00  0.00    -0.086 HD
ATOM     10  H   UNL     1      -2.434  -3.713  -2.110  0.00  0.00    -0.086 HD
ENDBRANCH   4   7
BRANCH   1  11
ATOM     11  C   UNL     1      -0.602  -1.464   0.395  0.00  0.00    +0.003 C 
BRANCH  11  13
ATOM     12  C   UNL     1       1.196   0.267   0.527  0.00  0.00    +0.004 C 
ATOM     13  C   UNL     1       0.907  -1.236   0.508  0.00  0.00    -0.003 C 
ENDBRANCH  11  13
ENDBRANCH   1  11
BRANCH   5  14
ATOM     14  C   UNL     1      -4.204  -4.927   0.383  0.00  0.00    -0.077 C 
BRANCH  14  15
ATOM     15  N   UNL     1      -4.763  -4.440   1.652  0.00  0.00    +0.382 N 
ATOM     16  C   UNL     1      -4.234  -5.248   2.771  0.00  0.00    -0.078 C 
ATOM     17  C   UNL     1      -5.413  -5.361   3.769  0.00  0.00    -0.020 C 
ATOM     18  C   UNL     1      -6.626  -5.485   2.809  0.00  0.00    -0.017 C 
ATOM     19  C   UNL     1      -6.231  -4.571   1.630  0.00  0.00    -0.069 C 
ATOM     20  H   UNL     1      -4.510  -3.472   1.785  0.00  0.00    -0.081 HD
BRANCH  19  21
ATOM     21  C   UNL     1      -6.678  -5.201   0.310  0.00  0.00    -0.019 C 
ATOM     22  C   UNL     1      -8.206  -5.272   0.270  0.00  0.00    +0.002 C 
ENDBRANCH  19  21
ENDBRANCH  14  15
ENDBRANCH   5  14
TORSDOF 6
