REMARK  Name = ZINC36988720
REMARK  9 active torsions:
REMARK  status: ('A' for Active; 'I' for Inactive)
REMARK    1  A    between atoms: C_1  and  C_2
REMARK    2  A    between atoms: C_2  and  C_4
REMARK    3  A    between atoms: C_2  and  N_13
REMARK    4  A    between atoms: C_7  and  O_11
REMARK    5  A    between atoms: C_9  and  O_10
REMARK    6  A    between atoms: O_11  and  C_12
REMARK    7  A    between atoms: N_13  and  C_14
REMARK    8  A    between atoms: N_20  and  C_21
REMARK    9  A    between atoms: N_20  and  C_22
REMARK                            x       y       z     vdW  Elec       q    Type
REMARK                         _______ _______ _______ _____ _____    ______ ____
ROOT
ATOM      1  C   UNL     1       0.017   1.525   0.051  0.00  0.00    +0.033 C 
ATOM      2  C   UNL     1       0.002  -0.004   0.002  0.00  0.00    +0.101 C 
ENDROOT
BRANCH   2   3
ATOM      3  C   UNL     1      -1.417  -0.488  -0.153  0.00  0.00    +0.014 A 
ATOM      4  C   UNL     1      -1.931  -0.726  -1.414  0.00  0.00    +0.012 A 
ATOM      5  C   UNL     1      -3.231  -1.169  -1.560  0.00  0.00    +0.046 A 
ATOM      6  C   UNL     1      -4.024  -1.377  -0.440  0.00  0.00    +0.124 A 
ATOM      7  C   UNL     1      -3.511  -1.139   0.825  0.00  0.00    +0.091 A 
ATOM      8  C   UNL     1      -2.204  -0.700   0.969  0.00  0.00    +0.125 A 
BRANCH   8   9
ATOM      9  O   UNL     1      -1.696  -0.471   2.209  0.00  0.00    -0.506 OA
ATOM     10  H   UNL     1      -1.830   0.432   2.529  0.00  0.00    +0.292 HD
ENDBRANCH   8   9
BRANCH   6  11
ATOM     11  O   UNL     1      -5.303  -1.813  -0.584  0.00  0.00    -0.495 OA
ATOM     12  C   UNL     1      -5.766  -2.037  -1.918  0.00  0.00    +0.277 C 
ENDBRANCH   6  11
ENDBRANCH   2   3
BRANCH   2  13
ATOM     13  N   UNL     1       0.802  -0.464  -1.136  0.00  0.00    -0.336 N 
ATOM     14  H   UNL     1       0.374  -0.651  -1.986  0.00  0.00    +0.147 HD
BRANCH  13  15
ATOM     15  C   UNL     1       2.185  -0.633  -0.996  0.00  0.00    +0.044 A 
ATOM     16  C   UNL     1       2.809  -0.372   0.223  0.00  0.00    +0.027 A 
ATOM     17  C   UNL     1       4.177  -0.553   0.316  0.00  0.00    +0.043 A 
ATOM     18  C   UNL     1       4.880  -0.986  -0.803  0.00  0.00    +0.098 A 
ATOM     19  N   UNL     1       4.256  -1.224  -1.945  0.00  0.00    -0.348 N 
ATOM     20  C   UNL     1       2.951  -1.068  -2.067  0.00  0.00    +0.107 A 
ATOM     21  N   UNL     1       6.259  -1.171  -0.720  0.00  0.00    -0.323 N 
ATOM     22  C   UNL     1       6.959  -0.910   0.540  0.00  0.00    +0.130 C 
ATOM     23  C   UNL     1       7.008  -1.627  -1.894  0.00  0.00    +0.130 C 
ATOM     24  H   UNL     1       4.769  -1.524  -2.711  0.00  0.00    +0.167 HD
ENDBRANCH  13  15
ENDBRANCH   2  13
TORSDOF 5
