REMARK  Name = ZINC62296743
REMARK  8 active torsions:
REMARK  status: ('A' for Active; 'I' for Inactive)
REMARK    1  A    between atoms: C_1  and  C_2
REMARK    2  A    between atoms: C_2  and  C_3
REMARK    3  A    between atoms: C_2  and  N_4
REMARK    4  A    between atoms: C_5  and  C_11
REMARK    5  A    between atoms: C_6  and  C_9
REMARK    6  A    between atoms: C_9  and  N_10
REMARK    7  A    between atoms: C_11  and  O_12
REMARK    8  A    between atoms: O_12  and  C_13
REMARK                            x       y       z     vdW  Elec       q    Type
REMARK                         _______ _______ _______ _____ _____    ______ ____
ROOT
ATOM      1  N   UNL     1      -1.372  -0.511   0.012  0.00  0.00    -0.243 N 
ATOM      2  C   UNL     1      -1.934  -1.299  -0.933  0.00  0.00    +0.098 A 
ATOM      3  C   UNL     1      -3.205  -1.527  -0.529  0.00  0.00    +0.072 A 
ATOM      4  N   UNL     1      -3.357  -0.875   0.630  0.00  0.00    -0.136 NA
ATOM      5  N   UNL     1      -2.252  -0.288   0.926  0.00  0.00    -0.065 NA
ENDROOT
BRANCH   1   7
ATOM      6  C   UNL     1      -0.019   1.526   0.010  0.00  0.00    +0.032 C 
ATOM      7  C   UNL     1       0.002  -0.004   0.002  0.00  0.00    +0.103 C 
ATOM      8  C   UNL     1       0.742  -0.511   1.242  0.00  0.00    +0.032 C 
ENDBRANCH   1   7
BRANCH   3   9
ATOM      9  C   UNL     1      -4.245  -2.351  -1.243  0.00  0.00    -0.026 C 
BRANCH   9  10
ATOM     10  N   UNL     1      -4.162  -3.745  -0.787  0.00  0.00    +0.382 N 
ATOM     11  H   UNL     1      -3.245  -4.112  -0.990  0.00  0.00    -0.090 HD
ATOM     12  H   UNL     1      -4.327  -3.784   0.208  0.00  0.00    -0.090 HD
ATOM     13  H   UNL     1      -4.859  -4.297  -1.265  0.00  0.00    -0.090 HD
ENDBRANCH   9  10
ENDBRANCH   3   9
BRANCH   2  14
ATOM     14  C   UNL     1      -1.276  -1.819  -2.186  0.00  0.00    +0.285 C 
BRANCH  14  15
ATOM     15  O   UNL     1      -0.659  -3.078  -1.912  0.00  0.00    -0.486 OA
BRANCH  15  16
ATOM     16  C   UNL     1      -0.016  -3.688  -2.944  0.00  0.00    +0.121 A 
ATOM     17  C   UNL     1       0.024  -3.083  -4.191  0.00  0.00    +0.047 A 
ATOM     18  C   UNL     1       0.677  -3.704  -5.238  0.00  0.00    +0.023 A 
ATOM     19  C   UNL     1       1.291  -4.928  -5.043  0.00  0.00    +0.041 A 
ATOM     20  C   UNL     1       1.252  -5.533  -3.800  0.00  0.00    +0.023 A 
ATOM     21  C   UNL     1       0.605  -4.912  -2.748  0.00  0.00    +0.047 A 
ATOM     22 CL   UNL     1       2.110  -5.707  -6.361  0.00  0.00    -0.084 Cl
ENDBRANCH  15  16
ENDBRANCH  14  15
ENDBRANCH   2  14
TORSDOF 6
