REMARK  Name = ZINC46560573
REMARK  11 active torsions:
REMARK  status: ('A' for Active; 'I' for Inactive)
REMARK    1  A    between atoms: C_1  and  C_2
REMARK    2  A    between atoms: C_2  and  C_3
REMARK    3  A    between atoms: C_8  and  N_9
REMARK    4  A    between atoms: C_10  and  C_12
REMARK    5  A    between atoms: C_12  and  N_13
REMARK    6  A    between atoms: N_13  and  C_14
REMARK    7  A    between atoms: N_13  and  C_15
REMARK    8  A    between atoms: C_15  and  C_16
REMARK    9  A    between atoms: N_18  and  C_19
REMARK   10  A    between atoms: C_24  and  S_25
REMARK   11  A    between atoms: S_25  and  C_28
REMARK                            x       y       z     vdW  Elec       q    Type
REMARK                         _______ _______ _______ _____ _____    ______ ____
ROOT
ATOM      1  C   UNL     1      -1.632  -0.470  -7.247  0.00  0.00    +0.019 C 
ENDROOT
BRANCH   1   2
ATOM      2  C   UNL     1      -2.525  -0.906  -8.380  0.00  0.00    +0.201 C 
ATOM      3  O   UNL     1      -3.647  -1.307  -8.148  0.00  0.00    -0.278 OA
ATOM      4  N   UNL     1      -2.078  -0.852  -9.650  0.00  0.00    -0.285 N 
ATOM      5  H   UNL     1      -1.161  -0.593  -9.830  0.00  0.00    +0.155 HD
BRANCH   4   6
ATOM      6  C   UNL     1      -2.936  -1.169 -10.708  0.00  0.00    +0.059 A 
ATOM      7  C   UNL     1      -3.901  -2.156 -10.550  0.00  0.00    +0.025 A 
ATOM      8  C   UNL     1      -4.746  -2.467 -11.597  0.00  0.00    +0.002 A 
ATOM      9  C   UNL     1      -4.633  -1.797 -12.801  0.00  0.00    +0.002 A 
ATOM     10  C   UNL     1      -3.674  -0.815 -12.962  0.00  0.00    +0.029 A 
ATOM     11  C   UNL     1      -2.829  -0.494 -11.917  0.00  0.00    +0.116 A 
BRANCH  11  12
ATOM     12  S   UNL     1      -1.612   0.764 -12.120  0.00  0.00    +0.060 S 
ATOM     13  O   UNL     1      -0.396   0.163 -11.697  0.00  0.00    -0.164 OA
ATOM     14  O   UNL     1      -1.772   1.210 -13.460  0.00  0.00    -0.164 OA
BRANCH  12  15
ATOM     15  C   UNL     1      -2.098   2.073 -10.963  0.00  0.00    +0.485 C 
ATOM     16  F   UNL     1      -3.378   2.534 -11.290  0.00  0.00    -0.183 F 
ATOM     17  F   UNL     1      -2.105   1.565  -9.659  0.00  0.00    -0.183 F 
ENDBRANCH  12  15
ENDBRANCH  11  12
ENDBRANCH   4   6
ENDBRANCH   1   2
BRANCH   1  18
ATOM     18  N   UNL     1      -2.347  -0.625  -5.973  0.00  0.00    +0.389 N 
ATOM     19  C   UNL     1      -3.493   0.294  -5.940  0.00  0.00    -0.095 C 
ATOM     20  H   UNL     1      -2.675  -1.575  -5.884  0.00  0.00    -0.081 HD
BRANCH  18  21
ATOM     21  C   UNL     1      -1.439  -0.314  -4.861  0.00  0.00    +0.019 C 
BRANCH  21  23
ATOM     22  N   UNL     1      -1.488  -0.376  -2.389  0.00  0.00    -0.287 N 
ATOM     23  C   UNL     1      -2.133  -0.590  -3.552  0.00  0.00    +0.201 C 
ATOM     24  O   UNL     1      -3.273  -1.005  -3.546  0.00  0.00    -0.278 OA
ATOM     25  H   UNL     1      -0.601   0.017  -2.391  0.00  0.00    +0.155 HD
BRANCH  22  31
ATOM     26  C   UNL     1      -1.331  -1.198  -0.123  0.00  0.00    -0.026 A 
ATOM     27  C   UNL     1      -1.935  -1.531   1.074  0.00  0.00    +0.005 A 
ATOM     28  C   UNL     1      -3.303  -1.394   1.221  0.00  0.00    +0.000 A 
ATOM     29  C   UNL     1      -4.070  -0.923   0.171  0.00  0.00    +0.002 A 
ATOM     30  C   UNL     1      -3.472  -0.587  -1.028  0.00  0.00    +0.023 A 
ATOM     31  C   UNL     1      -2.098  -0.719  -1.177  0.00  0.00    +0.036 A 
BRANCH  26  33
ATOM     32  C   UNL     1       0.842  -0.012   0.020  0.00  0.00    +0.009 C 
ATOM     33  C   UNL     1       0.160  -1.347  -0.282  0.00  0.00    +0.033 C 
ENDBRANCH  26  33
ENDBRANCH  22  31
ENDBRANCH  21  23
ENDBRANCH  18  21
ENDBRANCH   1  18
TORSDOF 9
