REMARK  Name = ZINC61767534
REMARK  3 active torsions:
REMARK  status: ('A' for Active; 'I' for Inactive)
REMARK    1  A    between atoms: C_1  and  C_2
REMARK    2  A    between atoms: C_2  and  N_3
REMARK    3  A    between atoms: C_18  and  N_19
REMARK                            x       y       z     vdW  Elec       q    Type
REMARK                         _______ _______ _______ _____ _____    ______ ____
ROOT
ATOM      1  N   UNL     1       0.705  -0.526   1.178  0.00  0.00    -0.311 N 
ATOM      2  C   UNL     1       2.058  -0.696   1.153  0.00  0.00    +0.109 A 
ATOM      3  C   UNL     1       2.725  -1.108   2.252  0.00  0.00    +0.131 A 
ATOM      4  N   UNL     1       2.096  -1.365   3.398  0.00  0.00    -0.234 NA
ATOM      5  C   UNL     1       0.791  -1.223   3.496  0.00  0.00    +0.187 A 
ATOM      6  C   UNL     1       0.033  -0.771   2.324  0.00  0.00    +0.291 A 
ATOM      7  O   UNL     1      -1.177  -0.624   2.382  0.00  0.00    -0.264 OA
ATOM      8  N   UNL     1       0.142  -1.492   4.694  0.00  0.00    -0.306 N 
ATOM      9  C   UNL     1       0.860  -2.075   5.840  0.00  0.00    +0.112 C 
ATOM     10  C   UNL     1       0.848  -1.051   6.973  0.00  0.00    +0.056 C 
ATOM     11  C   UNL     1      -0.535  -0.489   7.173  0.00  0.00    -0.021 A 
ATOM     12  C   UNL     1      -1.512  -0.545   6.205  0.00  0.00    -0.025 A 
ATOM     13  C   UNL     1      -2.761   0.008   6.451  0.00  0.00    +0.005 A 
ATOM     14  C   UNL     1      -3.040   0.607   7.663  0.00  0.00    +0.002 A 
ATOM     15  C   UNL     1      -2.069   0.659   8.643  0.00  0.00    +0.023 A 
ATOM     16  C   UNL     1      -0.818   0.114   8.400  0.00  0.00    +0.028 A 
ATOM     17  C   UNL     1      -1.284  -1.201   4.871  0.00  0.00    +0.142 C 
ENDROOT
BRANCH  16  18
ATOM     18  N   UNL     1       0.166   0.167   9.390  0.00  0.00    -0.358 N 
ATOM     19  H   UNL     1       1.043  -0.214   9.223  0.00  0.00    +0.142 HD
ATOM     20  H   UNL     1      -0.027   0.585  10.244  0.00  0.00    +0.142 HD
ENDBRANCH  16  18
BRANCH   1  22
ATOM     21  C   UNL     1      -0.071   1.452  -0.034  0.00  0.00    +0.027 C 
ATOM     22  C   UNL     1      -0.009  -0.077  -0.020  0.00  0.00    +0.121 C 
ENDBRANCH   1  22
TORSDOF 2
