REMARK  Name = ZINC12402301
REMARK  8 active torsions:
REMARK  status: ('A' for Active; 'I' for Inactive)
REMARK    1  A    between atoms: C_1  and  C_2
REMARK    2  A    between atoms: C_2  and  C_33
REMARK    3  A    between atoms: C_6  and  C_22
REMARK    4  A    between atoms: C_8  and  C_20
REMARK    5  A    between atoms: C_9  and  N_19
REMARK    6  A    between atoms: N_10  and  C_11
REMARK    7  A    between atoms: C_14  and  C_17
REMARK    8  A    between atoms: C_25  and  N_27
REMARK                            x       y       z     vdW  Elec       q    Type
REMARK                         _______ _______ _______ _____ _____    ______ ____
ROOT
ATOM      1  C   UNL     1      -0.814   4.556  -1.758  0.00  0.00    +0.011 C 
ATOM      2  C   UNL     1      -1.752   5.234  -2.759  0.00  0.00    -0.023 C 
ATOM      3  C   UNL     1      -2.249   6.561  -2.179  0.00  0.00    +0.058 C 
ATOM      4  C   UNL     1      -3.026   6.301  -0.912  0.00  0.00    +0.025 C 
ATOM      5  C   UNL     1      -3.717   5.154  -0.742  0.00  0.00    +0.026 C 
ATOM      6  C   UNL     1      -4.494   4.899   0.525  0.00  0.00    +0.104 C 
ATOM      7  C   UNL     1      -4.732   6.173   1.280  0.00  0.00    +0.077 C 
ATOM      8  C   UNL     1      -3.997   7.286   1.032  0.00  0.00    +0.107 C 
ATOM      9  N   UNL     1      -3.016   7.263   0.065  0.00  0.00    -0.260 N 
ATOM     10  C   UNL     1      -3.732   4.163  -1.739  0.00  0.00    +0.162 C 
ATOM     11  O   UNL     1      -4.377   3.148  -1.561  0.00  0.00    -0.292 OA
ATOM     12  C   UNL     1      -2.964   4.335  -3.021  0.00  0.00    +0.086 C 
ATOM     13  C   UNL     1      -1.007   5.489  -4.071  0.00  0.00    +0.011 C 
ENDROOT
BRANCH   9  14
ATOM     14  C   UNL     1      -2.006   8.226   0.081  0.00  0.00    +0.040 A 
ATOM     15  C   UNL     1      -0.830   7.987   0.785  0.00  0.00    +0.025 A 
ATOM     16  C   UNL     1       0.171   8.932   0.797  0.00  0.00    +0.021 A 
ATOM     17  C   UNL     1       0.001  10.137   0.111  0.00  0.00    +0.052 A 
ATOM     18  C   UNL     1      -1.184  10.376  -0.591  0.00  0.00    +0.021 A 
ATOM     19  C   UNL     1      -2.179   9.424  -0.604  0.00  0.00    +0.025 A 
BRANCH  17  20
ATOM     20  C   UNL     1       1.037  11.125   0.127  0.00  0.00    +0.099 C 
ATOM     21  N   UNL     1       1.859  11.909   0.139  0.00  0.00    -0.191 NA
ENDBRANCH  17  20
ENDBRANCH   9  14
BRANCH   6  22
ATOM     22  C   UNL     1      -3.718   3.945   1.396  0.00  0.00    +0.005 A 
ATOM     23  C   UNL     1      -4.072   2.714   1.841  0.00  0.00    +0.014 A 
ATOM     24  C   UNL     1      -3.187   2.009   2.634  0.00  0.00    +0.041 A 
ATOM     25  C   UNL     1      -1.997   2.573   2.954  0.00  0.00    +0.164 A 
ATOM     26  S   UNL     1      -2.094   4.143   2.112  0.00  0.00    -0.068 S 
BRANCH  25  27
ATOM     27  N   UNL     1      -0.899   2.025   3.783  0.00  0.00    +0.063 N 
ATOM     28  O   UNL     1      -1.007   0.921   4.285  0.00  0.00    -0.126 OA
ATOM     29  O   UNL     1       0.115   2.677   3.957  0.00  0.00    -0.126 OA
ENDBRANCH  25  27
ENDBRANCH   6  22
BRANCH   8  30
ATOM     30  N   UNL     1      -4.231   8.437   1.745  0.00  0.00    -0.345 N 
ATOM     31  H   UNL     1      -3.768   9.256   1.509  0.00  0.00    +0.144 HD
ATOM     32  H   UNL     1      -4.859   8.430   2.484  0.00  0.00    +0.144 HD
ENDBRANCH   8  30
BRANCH   7  33
ATOM     33  C   UNL     1      -5.754   6.216   2.283  0.00  0.00    +0.099 C 
ATOM     34  N   UNL     1      -6.565   6.250   3.078  0.00  0.00    -0.191 NA
ENDBRANCH   7  33
TORSDOF 6
