REMARK  Name = ZINC13310268
REMARK  7 active torsions:
REMARK  status: ('A' for Active; 'I' for Inactive)
REMARK    1  A    between atoms: C_1  and  C_2
REMARK    2  A    between atoms: C_7  and  N_8
REMARK    3  A    between atoms: C_9  and  C_11
REMARK    4  A    between atoms: C_11  and  N_12
REMARK    5  A    between atoms: N_12  and  S_13
REMARK    6  A    between atoms: S_13  and  C_16
REMARK    7  A    between atoms: C_18  and  C_21
REMARK                            x       y       z     vdW  Elec       q    Type
REMARK                         _______ _______ _______ _____ _____    ______ ____
ROOT
ATOM      1  C   UNL     1      -5.892   2.454   2.477  0.00  0.00    +0.201 C 
ENDROOT
BRANCH   1   3
ATOM      2  N   UNL     1      -6.848   3.053   4.679  0.00  0.00    -0.284 N 
ATOM      3  C   UNL     1      -6.659   2.115   3.730  0.00  0.00    +0.233 C 
ATOM      4  O   UNL     1      -7.104   0.998   3.884  0.00  0.00    -0.274 OA
ATOM      5  H   UNL     1      -6.425   3.922   4.593  0.00  0.00    +0.155 HD
BRANCH   2  12
ATOM      6  C   UNL     1      -6.386   4.510   7.079  0.00  0.00    +0.046 C 
ATOM      7  C   UNL     1      -7.465   3.462   6.978  0.00  0.00    -0.028 A 
ATOM      8  C   UNL     1      -8.267   3.189   8.069  0.00  0.00    +0.020 A 
ATOM      9  C   UNL     1      -9.253   2.223   7.979  0.00  0.00    +0.018 A 
ATOM     10  C   UNL     1      -9.443   1.532   6.794  0.00  0.00    +0.017 A 
ATOM     11  C   UNL     1      -8.647   1.806   5.699  0.00  0.00    +0.024 A 
ATOM     12  C   UNL     1      -7.656   2.775   5.787  0.00  0.00    +0.036 A 
ATOM     13 BR   UNL     1     -10.345   1.846   9.476  0.00  0.00    -0.050 Br
ENDBRANCH   2  12
ENDBRANCH   1   3
BRANCH   1  14
ATOM     14  N   UNL     1      -5.825   1.274   1.612  0.00  0.00    -0.181 NA
ATOM     15  H   UNL     1      -6.042   0.399   1.968  0.00  0.00    +0.149 HD
BRANCH  14  16
ATOM     16  S   UNL     1      -5.378   1.436   0.025  0.00  0.00    +0.065 S 
ATOM     17  O   UNL     1      -6.159   2.496  -0.511  0.00  0.00    -0.153 OA
ATOM     18  O   UNL     1      -5.383   0.129  -0.533  0.00  0.00    -0.153 OA
BRANCH  16  19
ATOM     19  C   UNL     1      -3.704   1.985   0.009  0.00  0.00    +0.143 A 
ATOM     20  C   UNL     1      -2.580   1.243  -0.015  0.00  0.00    +0.051 A 
ATOM     21  C   UNL     1      -1.325   1.954  -0.020  0.00  0.00    +0.072 A 
ATOM     22  C   UNL     1      -1.386   3.333  -0.012  0.00  0.00    +0.062 A 
ATOM     23  S   UNL     1      -3.087   3.656   0.010  0.00  0.00    -0.076 S 
BRANCH  21  24
ATOM     24  C   UNL     1      -0.039   1.242  -0.039  0.00  0.00    +0.387 C 
ATOM     25  O   UNL     1      -0.018   0.026  -0.046  0.00  0.00    -0.241 OA
ATOM     26  O   UNL     1       1.116   1.936  -0.054  0.00  0.00    -0.241 OA
ENDBRANCH  21  24
ENDBRANCH  16  19
ENDBRANCH  14  16
ENDBRANCH   1  14
TORSDOF 6
