REMARK  Name = ZINC36077399
REMARK  6 active torsions:
REMARK  status: ('A' for Active; 'I' for Inactive)
REMARK    1  A    between atoms: C_6  and  C_7
REMARK    2  A    between atoms: N_9  and  C_10
REMARK    3  A    between atoms: C_10  and  C_11
REMARK    4  A    between atoms: N_13  and  N_14
REMARK    5  A    between atoms: C_15  and  C_16
REMARK    6  A    between atoms: C_21  and  O_22
REMARK                            x       y       z     vdW  Elec       q    Type
REMARK                         _______ _______ _______ _____ _____    ______ ____
ROOT
ATOM      1  C   UNL     1      -2.254  -4.503   1.177  0.00  0.00    +0.249 C 
ATOM      2  O   UNL     1      -1.112  -4.775   0.870  0.00  0.00    -0.272 OA
ATOM      3  N   UNL     1      -3.238  -5.400   0.968  0.00  0.00    -0.206 N 
ATOM      4  H   UNL     1      -4.152  -5.183   1.213  0.00  0.00    +0.177 HD
ENDROOT
BRANCH   3   5
ATOM      5  N   UNL     1      -2.943  -6.644   0.396  0.00  0.00    -0.188 NA
ATOM      6  C   UNL     1      -3.903  -7.465   0.096  0.00  0.00    +0.142 C 
BRANCH   6   7
ATOM      7  C   UNL     1      -5.302  -7.000   0.113  0.00  0.00    +0.037 A 
ATOM      8  C   UNL     1      -5.595  -5.649  -0.087  0.00  0.00    +0.028 A 
ATOM      9  C   UNL     1      -6.907  -5.221  -0.070  0.00  0.00    +0.019 A 
ATOM     10  C   UNL     1      -7.934  -6.125   0.144  0.00  0.00    +0.019 A 
ATOM     11  C   UNL     1      -7.656  -7.464   0.343  0.00  0.00    +0.047 A 
ATOM     12  C   UNL     1      -6.345  -7.912   0.323  0.00  0.00    +0.126 A 
ATOM     13 BR   UNL     1      -7.304  -3.392  -0.340  0.00  0.00    -0.050 Br
BRANCH  12  14
ATOM     14  O   UNL     1      -6.071  -9.229   0.513  0.00  0.00    -0.506 OA
ATOM     15  H   UNL     1      -5.862  -9.459   1.428  0.00  0.00    +0.292 HD
ENDBRANCH  12  14
ENDBRANCH   6   7
ENDBRANCH   3   5
BRANCH   1  16
ATOM     16  C   UNL     1      -2.571  -3.165   1.791  0.00  0.00    +0.202 C 
BRANCH  16  19
ATOM     17  C   UNL     1      -1.382  -1.139   2.439  0.00  0.00    +0.244 C 
ATOM     18  O   UNL     1      -2.441  -0.672   2.813  0.00  0.00    -0.270 OA
ATOM     19  N   UNL     1      -1.341  -2.379   1.913  0.00  0.00    -0.303 N 
ATOM     20  H   UNL     1      -0.496  -2.751   1.614  0.00  0.00    +0.150 HD
BRANCH  17  26
ATOM     21  C   UNL     1      -0.181   0.939   3.107  0.00  0.00    +0.014 A 
ATOM     22  C   UNL     1       0.981   1.673   3.219  0.00  0.00    +0.021 A 
ATOM     23  C   UNL     1       2.185   1.139   2.791  0.00  0.00    +0.041 A 
ATOM     24  C   UNL     1       2.231  -0.135   2.249  0.00  0.00    +0.021 A 
ATOM     25  C   UNL     1       1.076  -0.879   2.132  0.00  0.00    +0.014 A 
ATOM     26  C   UNL     1      -0.141  -0.346   2.562  0.00  0.00    +0.037 A 
ATOM     27 CL   UNL     1       3.643   2.070   2.935  0.00  0.00    -0.084 Cl
ENDBRANCH  17  26
ENDBRANCH  16  19
ENDBRANCH   1  16
TORSDOF 6
