REMARK  Name = ZINC05705904
REMARK  4 active torsions:
REMARK  status: ('A' for Active; 'I' for Inactive)
REMARK    1  A    between atoms: C_1  and  C_2
REMARK    2  A    between atoms: C_2  and  C_27
REMARK    3  A    between atoms: C_6  and  C_17
REMARK    4  A    between atoms: C_13  and  O_15
REMARK                            x       y       z     vdW  Elec       q    Type
REMARK                         _______ _______ _______ _____ _____    ______ ____
ROOT
ATOM      1  C   UNL     1       3.454   6.115  -0.589  0.00  0.00    +0.031 C 
ATOM      2  C   UNL     1       3.490   4.581  -0.641  0.00  0.00    +0.033 C 
ATOM      3  C   UNL     1       2.147   4.060  -1.127  0.00  0.00    +0.056 C 
ATOM      4  C   UNL     1       1.204   3.606  -0.020  0.00  0.00    +0.070 C 
ATOM      5  C   UNL     1      -0.200   4.147  -0.330  0.00  0.00    +0.080 C 
ATOM      6  C   UNL     1      -1.225   3.369   0.501  0.00  0.00    +0.206 C 
ATOM      7  O   UNL     1      -1.223   2.014   0.041  0.00  0.00    -0.484 OA
ATOM      8  C   UNL     1      -0.017   1.386   0.010  0.00  0.00    +0.130 A 
ATOM      9  C   UNL     1       1.170   2.094   0.002  0.00  0.00    +0.019 A 
ATOM     10  C   UNL     1       2.376   1.411   0.010  0.00  0.00    +0.033 A 
ATOM     11  C   UNL     1       2.400   0.030   0.011  0.00  0.00    +0.083 A 
ATOM     12  C   UNL     1       1.208  -0.683   0.002  0.00  0.00    +0.139 A 
ATOM     13  C   UNL     1       0.002  -0.004   0.002  0.00  0.00    +0.092 A 
ATOM     14 CL   UNL     1       3.917  -0.814   0.021  0.00  0.00    -0.080 Cl
ATOM     15  N   UNL     1       1.606   4.084   1.300  0.00  0.00    -0.290 N 
ATOM     16  C   UNL     1       2.899   4.106   1.655  0.00  0.00    +0.301 C 
ATOM     17  O   UNL     1       3.224   4.201   2.811  0.00  0.00    -0.253 OA
ATOM     18  N   UNL     1       3.832   4.070   0.687  0.00  0.00    -0.294 N 
ATOM     19  C   UNL     1       4.587   4.157  -1.630  0.00  0.00    +0.031 C 
ATOM     20  H   UNL     1       0.934   4.387   1.929  0.00  0.00    +0.151 HD
ATOM     21  H   UNL     1       4.718   3.749   0.871  0.00  0.00    +0.151 HD
ENDROOT
BRANCH   6  22
ATOM     22  C   UNL     1      -2.596   3.965   0.313  0.00  0.00    -0.007 A 
ATOM     23  C   UNL     1      -3.374   3.582  -0.763  0.00  0.00    +0.007 A 
ATOM     24  C   UNL     1      -4.634   4.125  -0.933  0.00  0.00    +0.000 A 
ATOM     25  C   UNL     1      -5.111   5.060  -0.033  0.00  0.00    +0.000 A 
ATOM     26  C   UNL     1      -4.330   5.447   1.040  0.00  0.00    +0.000 A 
ATOM     27  C   UNL     1      -3.073   4.899   1.213  0.00  0.00    +0.007 A 
ENDBRANCH   6  22
BRANCH  12  28
ATOM     28  O   UNL     1       1.226  -2.042  -0.008  0.00  0.00    -0.505 OA
ATOM     29  H   UNL     1       1.235  -2.429  -0.894  0.00  0.00    +0.292 HD
ENDBRANCH  12  28
TORSDOF 2
