REMARK  Name = ZINC39658920
REMARK  8 active torsions:
REMARK  status: ('A' for Active; 'I' for Inactive)
REMARK    1  A    between atoms: C_1  and  C_2
REMARK    2  A    between atoms: C_2  and  C_3
REMARK    3  A    between atoms: C_2  and  C_4
REMARK    4  A    between atoms: C_8  and  C_17
REMARK    5  A    between atoms: N_19  and  C_20
REMARK    6  A    between atoms: C_20  and  C_21
REMARK    7  A    between atoms: C_25  and  C_27
REMARK    8  A    between atoms: C_25  and  C_28
REMARK                            x       y       z     vdW  Elec       q    Type
REMARK                         _______ _______ _______ _____ _____    ______ ____
ROOT
ATOM      1  C   UNL     1      -1.563  -0.569   0.062  0.00  0.00    +0.218 C 
ATOM      2  O   UNL     1      -1.953  -1.321   0.929  0.00  0.00    -0.275 OA
ATOM      3  N   UNL     1      -2.370  -0.258  -0.972  0.00  0.00    -0.300 N 
ATOM      4  C   UNL     1      -2.072   0.630  -2.121  0.00  0.00    +0.121 C 
ATOM      5  C   UNL     1      -2.713  -0.077  -3.337  0.00  0.00    +0.100 C 
ATOM      6  C   UNL     1      -3.817  -0.964  -2.737  0.00  0.00    -0.004 C 
ATOM      7  C   UNL     1      -3.752  -0.732  -1.221  0.00  0.00    +0.115 C 
ATOM      8  C   UNL     1      -3.545  -2.432  -3.053  0.00  0.00    -0.010 C 
ATOM      9  C   UNL     1      -4.686  -3.289  -2.496  0.00  0.00    -0.082 C 
ATOM     10  N   UNL     1      -5.956  -2.866  -3.097  0.00  0.00    +0.379 N 
ATOM     11  C   UNL     1      -6.256  -1.481  -2.713  0.00  0.00    -0.082 C 
ATOM     12  C   UNL     1      -5.182  -0.548  -3.278  0.00  0.00    -0.010 C 
ATOM     13  H   UNL     1      -5.888  -2.927  -4.102  0.00  0.00    -0.086 HD
ATOM     14  H   UNL     1      -6.697  -3.471  -2.776  0.00  0.00    -0.086 HD
ENDROOT
BRANCH   5  15
ATOM     15  C   UNL     1      -3.307   0.937  -4.280  0.00  0.00    +0.218 C 
ATOM     16  O   UNL     1      -3.743   1.984  -3.850  0.00  0.00    -0.275 OA
ATOM     17  N   UNL     1      -3.352   0.681  -5.603  0.00  0.00    -0.312 N 
ATOM     18  H   UNL     1      -3.003  -0.156  -5.947  0.00  0.00    +0.149 HD
BRANCH  17  19
ATOM     19  C   UNL     1      -3.929   1.667  -6.521  0.00  0.00    +0.138 C 
BRANCH  19  20
ATOM     20  C   UNL     1      -3.858   1.133  -7.953  0.00  0.00    +0.164 C 
ATOM     21  C   UNL     1      -4.407   2.179  -8.954  0.00  0.00    +0.196 C 
ATOM     22  O   UNL     1      -3.707   1.819 -10.169  0.00  0.00    -0.347 OA
ATOM     23  C   UNL     1      -2.402   1.404  -9.733  0.00  0.00    +0.165 C 
ATOM     24  O   UNL     1      -2.487   0.966  -8.367  0.00  0.00    -0.342 OA
ATOM     25  C   UNL     1      -1.909   0.251 -10.609  0.00  0.00    +0.074 C 
ATOM     26  C   UNL     1      -1.428   2.579  -9.838  0.00  0.00    +0.074 C 
ENDBRANCH  19  20
ENDBRANCH  17  19
ENDBRANCH   5  15
BRANCH   1  28
ATOM     27  C   UNL     1      -0.274   1.545   0.192  0.00  0.00    +0.017 C 
ATOM     28  C   UNL     1      -0.178   0.019   0.140  0.00  0.00    +0.069 C 
ATOM     29  C   UNL     1       0.522  -0.491   1.401  0.00  0.00    +0.017 C 
ENDBRANCH   1  28
TORSDOF 4
