REMARK  Name = ZINC37820844
REMARK  8 active torsions:
REMARK  status: ('A' for Active; 'I' for Inactive)
REMARK    1  A    between atoms: C_1  and  C_2
REMARK    2  A    between atoms: C_2  and  O_3
REMARK    3  A    between atoms: O_3  and  C_4
REMARK    4  A    between atoms: N_6  and  C_7
REMARK    5  A    between atoms: C_14  and  C_16
REMARK    6  A    between atoms: C_16  and  N_17
REMARK    7  A    between atoms: C_18  and  C_20
REMARK    8  A    between atoms: C_20  and  N_21
REMARK                            x       y       z     vdW  Elec       q    Type
REMARK                         _______ _______ _______ _____ _____    ______ ____
ROOT
ATOM      1  C   UNL     1      -2.907  -3.823   0.009  0.00  0.00    +0.093 C 
ATOM      2  C   UNL     1      -4.261  -4.179   0.628  0.00  0.00    +0.025 C 
ATOM      3  C   UNL     1      -4.427  -5.700   0.652  0.00  0.00    +0.021 C 
ATOM      4  C   UNL     1      -4.396  -6.236  -0.782  0.00  0.00    +0.108 C 
ATOM      5  N   UNL     1      -3.162  -5.775  -1.433  0.00  0.00    -0.298 N 
ATOM      6  C   UNL     1      -2.858  -4.337  -1.433  0.00  0.00    +0.130 C 
ATOM      7  C   UNL     1      -2.324  -6.653  -2.017  0.00  0.00    +0.233 C 
ATOM      8  O   UNL     1      -1.308  -6.260  -2.551  0.00  0.00    -0.274 OA
ENDROOT
BRANCH   1  11
ATOM      9  C   UNL     1      -1.497  -1.836   0.006  0.00  0.00    +0.401 C 
ATOM     10  O   UNL     1      -0.523  -2.563  -0.007  0.00  0.00    -0.226 OA
ATOM     11  N   UNL     1      -2.735  -2.368   0.015  0.00  0.00    -0.277 N 
ATOM     12  H   UNL     1      -3.512  -1.787   0.026  0.00  0.00    +0.152 HD
BRANCH   9  13
ATOM     13  O   UNL     1      -1.339  -0.499   0.012  0.00  0.00    -0.451 OA
BRANCH  13  15
ATOM     14  C   UNL     1      -0.019   1.526   0.010  0.00  0.00    +0.048 C 
ATOM     15  C   UNL     1       0.002  -0.004   0.002  0.00  0.00    +0.230 C 
ENDBRANCH  13  15
ENDBRANCH   9  13
ENDBRANCH   1  11
BRANCH   7  16
ATOM     16  C   UNL     1      -2.649  -8.125  -2.009  0.00  0.00    +0.200 C 
BRANCH  16  17
ATOM     17  N   UNL     1      -1.591  -8.863  -2.703  0.00  0.00    -0.308 N 
ATOM     18  C   UNL     1      -1.669 -10.203  -2.819  0.00  0.00    +0.196 C 
ATOM     19  O   UNL     1      -2.615 -10.799  -2.350  0.00  0.00    -0.278 OA
ATOM     20  H   UNL     1      -0.834  -8.387  -3.078  0.00  0.00    +0.149 HD
BRANCH  18  21
ATOM     21  C   UNL     1      -0.580 -10.962  -3.533  0.00  0.00    +0.011 C 
BRANCH  21  22
ATOM     22  N   UNL     1      -0.897 -12.397  -3.525  0.00  0.00    +0.384 N 
ATOM     23  H   UNL     1      -0.168 -12.905  -4.003  0.00  0.00    -0.089 HD
ATOM     24  H   UNL     1      -0.964 -12.721  -2.571  0.00  0.00    -0.089 HD
ATOM     25  H   UNL     1      -1.777 -12.550  -3.994  0.00  0.00    -0.089 HD
ENDBRANCH  21  22
ENDBRANCH  18  21
ENDBRANCH  16  17
ENDBRANCH   7  16
TORSDOF 7
