REMARK  Name = ZINC58990094
REMARK  14 active torsions:
REMARK  status: ('A' for Active; 'I' for Inactive)
REMARK    1  A    between atoms: C_1  and  O_2
REMARK    2  A    between atoms: O_2  and  C_3
REMARK    3  A    between atoms: C_7  and  C_10
REMARK    4  A    between atoms: C_8  and  O_9
REMARK    5  A    between atoms: N_11  and  N_12
REMARK    6  A    between atoms: C_13  and  C_15
REMARK    7  A    between atoms: C_15  and  C_16
REMARK    8  A    between atoms: C_16  and  C_17
REMARK    9  A    between atoms: C_17  and  S_18
REMARK   10  A    between atoms: S_18  and  C_19
REMARK   11  A    between atoms: C_22  and  C_25
REMARK   12  A    between atoms: N_23  and  N_24
REMARK   13  A    between atoms: C_27  and  N_34
REMARK   14  A    between atoms: C_29  and  N_31
REMARK                            x       y       z     vdW  Elec       q    Type
REMARK                         _______ _______ _______ _____ _____    ______ ____
ROOT
ATOM      1  S   UNL     1      -1.067 -11.329   1.997  0.00  0.00    -0.084 S 
ENDROOT
BRANCH   1   2
ATOM      2  C   UNL     1      -0.916 -13.066   1.745  0.00  0.00    +0.209 A 
ATOM      3  N   UNL     1      -0.330 -13.658   0.728  0.00  0.00    -0.121 NA
ATOM      4  N   UNL     1      -0.401 -14.934   0.860  0.00  0.00    -0.127 NA
ATOM      5  C   UNL     1      -1.036 -15.236   1.969  0.00  0.00    +0.182 A 
ATOM      6  N   UNL     1      -1.380 -14.048   2.572  0.00  0.00    -0.224 N 
BRANCH   5   7
ATOM      7  C   UNL     1      -1.321 -16.594   2.476  0.00  0.00    +0.025 A 
ATOM      8  C   UNL     1      -2.267 -16.781   3.486  0.00  0.00    +0.044 A 
ATOM      9  C   UNL     1      -2.529 -18.051   3.955  0.00  0.00    +0.129 A 
ATOM     10  C   UNL     1      -1.857 -19.140   3.427  0.00  0.00    +0.065 A 
ATOM     11  C   UNL     1      -0.919 -18.961   2.426  0.00  0.00    +0.129 A 
ATOM     12  C   UNL     1      -0.651 -17.697   1.944  0.00  0.00    +0.044 A 
BRANCH  11  13
ATOM     13  N   UNL     1      -0.204 -20.131   1.867  0.00  0.00    +0.057 N 
ATOM     14  O   UNL     1      -0.441 -21.241   2.286  0.00  0.00    -0.126 OA
ATOM     15  O   UNL     1       0.616 -19.977   0.993  0.00  0.00    -0.126 OA
ENDBRANCH  11  13
BRANCH   9  16
ATOM     16  N   UNL     1      -3.532 -18.251   5.026  0.00  0.00    +0.057 N 
ATOM     17  O   UNL     1      -4.119 -17.301   5.488  0.00  0.00    -0.126 OA
ATOM     18  O   UNL     1      -3.762 -19.364   5.438  0.00  0.00    -0.126 OA
ENDBRANCH   9  16
ENDBRANCH   5   7
BRANCH   6  19
ATOM     19  N   UNL     1      -2.049 -13.885   3.752  0.00  0.00    -0.295 N 
ATOM     20  H   UNL     1      -3.046 -13.847   3.600  0.00  0.00    +0.163 HD
ATOM     21  H   UNL     1      -1.811 -14.615   4.407  0.00  0.00    +0.163 HD
ENDBRANCH   6  19
ENDBRANCH   1   2
BRANCH   1  22
ATOM     22  C   UNL     1      -0.251 -10.602   0.549  0.00  0.00    +0.078 C 
BRANCH  22  23
ATOM     23  C   UNL     1      -0.311  -9.076   0.641  0.00  0.00    +0.020 C 
BRANCH  23  24
ATOM     24  C   UNL     1       0.378  -8.464  -0.580  0.00  0.00    +0.098 C 
BRANCH  24  26
ATOM     25  N   UNL     1       0.866  -6.204  -1.461  0.00  0.00    -0.207 N 
ATOM     26  C   UNL     1       0.318  -6.960  -0.488  0.00  0.00    +0.232 C 
ATOM     27  O   UNL     1      -0.222  -6.431   0.460  0.00  0.00    -0.274 OA
ATOM     28  H   UNL     1       1.298  -6.628  -2.219  0.00  0.00    +0.177 HD
BRANCH  25  30
ATOM     29  C   UNL     1       1.337  -4.079  -2.312  0.00  0.00    +0.142 C 
ATOM     30  N   UNL     1       0.810  -4.807  -1.376  0.00  0.00    -0.188 NA
BRANCH  29  35
ATOM     31  C   UNL     1       0.606  -0.608  -1.056  0.00  0.00    +0.162 A 
ATOM     32  C   UNL     1       1.173   0.161  -2.062  0.00  0.00    +0.049 A 
ATOM     33  C   UNL     1       1.789  -0.446  -3.142  0.00  0.00    +0.004 A 
ATOM     34  C   UNL     1       1.845  -1.821  -3.229  0.00  0.00    +0.013 A 
ATOM     35  C   UNL     1       1.279  -2.609  -2.223  0.00  0.00    +0.040 A 
ATOM     36  C   UNL     1       0.661  -1.994  -1.127  0.00  0.00    +0.167 A 
BRANCH  31  38
ATOM     37  C   UNL     1      -0.017   1.425   0.010  0.00  0.00    +0.277 C 
ATOM     38  O   UNL     1       0.002  -0.004   0.002  0.00  0.00    -0.491 OA
ENDBRANCH  31  38
BRANCH  36  39
ATOM     39  O   UNL     1       0.112  -2.750  -0.141  0.00  0.00    -0.503 OA
ATOM     40  H   UNL     1      -0.817  -2.977  -0.290  0.00  0.00    +0.292 HD
ENDBRANCH  36  39
ENDBRANCH  29  35
ENDBRANCH  25  30
ENDBRANCH  24  26
ENDBRANCH  23  24
ENDBRANCH  22  23
ENDBRANCH   1  22
TORSDOF 13
