REMARK  Name = ZINC46342406
REMARK  13 active torsions:
REMARK  status: ('A' for Active; 'I' for Inactive)
REMARK    1  A    between atoms: C_1  and  C_2
REMARK    2  A    between atoms: C_3  and  C_4
REMARK    3  A    between atoms: C_7  and  O_12
REMARK    4  A    between atoms: C_8  and  O_10
REMARK    5  A    between atoms: O_10  and  C_11
REMARK    6  A    between atoms: O_12  and  C_13
REMARK    7  A    between atoms: C_13  and  C_14
REMARK    8  A    between atoms: C_14  and  C_16
REMARK    9  A    between atoms: C_14  and  O_30
REMARK   10  A    between atoms: C_16  and  N_17
REMARK   11  A    between atoms: N_26  and  C_27
REMARK   12  A    between atoms: C_27  and  C_28
REMARK   13  A    between atoms: C_28  and  O_29
REMARK                            x       y       z     vdW  Elec       q    Type
REMARK                         _______ _______ _______ _____ _____    ______ ____
ROOT
ATOM      1  C   UNL     1      -0.634  -9.135  -1.109  0.00  0.00    +0.159 C 
ENDROOT
BRANCH   1   2
ATOM      2  N   UNL     1      -0.620 -10.583  -0.887  0.00  0.00    -0.311 N 
ATOM      3  C   UNL     1       0.325 -11.478  -1.363  0.00  0.00    +0.068 A 
ATOM      4  C   UNL     1       1.469 -11.348  -2.135  0.00  0.00    +0.028 A 
ATOM      5  C   UNL     1       2.217 -12.464  -2.447  0.00  0.00    +0.002 A 
ATOM      6  C   UNL     1       1.832 -13.717  -1.994  0.00  0.00    +0.002 A 
ATOM      7  C   UNL     1       0.698 -13.865  -1.227  0.00  0.00    +0.028 A 
ATOM      8  C   UNL     1      -0.070 -12.744  -0.901  0.00  0.00    +0.065 A 
ATOM      9  N   UNL     1      -1.210 -12.570  -0.182  0.00  0.00    -0.327 N 
ATOM     10  C   UNL     1      -1.531 -11.301  -0.167  0.00  0.00    +0.174 A 
ATOM     11  N   UNL     1      -2.628 -10.769   0.476  0.00  0.00    -0.314 N 
ATOM     12  H   UNL     1      -2.799  -9.815   0.437  0.00  0.00    +0.149 HD
ATOM     13  H   UNL     1      -1.707 -13.278   0.257  0.00  0.00    +0.169 HD
BRANCH  11  14
ATOM     14  C   UNL     1      -3.538 -11.645   1.220  0.00  0.00    +0.132 C 
BRANCH  14  15
ATOM     15  C   UNL     1      -4.663 -10.809   1.833  0.00  0.00    +0.174 C 
BRANCH  15  16
ATOM     16  O   UNL     1      -5.456 -10.239   0.790  0.00  0.00    -0.393 OA
ATOM     17  H   UNL     1      -6.190  -9.695   1.107  0.00  0.00    +0.209 HD
ENDBRANCH  15  16
ENDBRANCH  14  15
ENDBRANCH  11  14
ENDBRANCH   1   2
BRANCH   1  18
ATOM     18  C   UNL     1       0.151  -8.440   0.005  0.00  0.00    +0.172 C 
BRANCH  18  19
ATOM     19  O   UNL     1       1.526  -8.820  -0.072  0.00  0.00    -0.387 OA
ATOM     20  H   UNL     1       1.952  -8.588  -0.908  0.00  0.00    +0.210 HD
ENDBRANCH  18  19
BRANCH  18  21
ATOM     21  C   UNL     1       0.032  -6.923  -0.156  0.00  0.00    +0.262 C 
BRANCH  21  22
ATOM     22  O   UNL     1       0.666  -6.275   0.948  0.00  0.00    -0.486 OA
BRANCH  22  26
ATOM     23  C   UNL     1       0.615  -2.142   0.979  0.00  0.00    -0.022 A 
ATOM     24  C   UNL     1       0.015  -2.844  -0.068  0.00  0.00    +0.012 A 
ATOM     25  C   UNL     1       0.035  -4.223  -0.074  0.00  0.00    +0.050 A 
ATOM     26  C   UNL     1       0.650  -4.916   0.958  0.00  0.00    +0.162 A 
ATOM     27  C   UNL     1       1.250  -4.221   2.006  0.00  0.00    +0.162 A 
ATOM     28  C   UNL     1       1.238  -2.839   2.016  0.00  0.00    +0.057 A 
BRANCH  23  31
ATOM     29  C   UNL     1      -0.018   1.503   0.010  0.00  0.00    +0.035 C 
ATOM     30  C   UNL     1       0.002  -0.004   0.002  0.00  0.00    -0.030 C 
ATOM     31  C   UNL     1       0.595  -0.664   0.987  0.00  0.00    +0.003 C 
ENDBRANCH  23  31
BRANCH  27  32
ATOM     32  O   UNL     1       1.851  -4.903   3.018  0.00  0.00    -0.491 OA
ATOM     33  C   UNL     1       2.446  -4.127   4.059  0.00  0.00    +0.277 C 
ENDBRANCH  27  32
ENDBRANCH  22  26
ENDBRANCH  21  22
ENDBRANCH  18  21
ENDBRANCH   1  18
TORSDOF 11
