REMARK  Name = ZINC18143952
REMARK  4 active torsions:
REMARK  status: ('A' for Active; 'I' for Inactive)
REMARK    1  A    between atoms: C_1  and  C_2
REMARK    2  A    between atoms: N_5  and  C_7
REMARK    3  A    between atoms: C_16  and  N_19
REMARK    4  A    between atoms: C_20  and  C_22
REMARK                            x       y       z     vdW  Elec       q    Type
REMARK                         _______ _______ _______ _____ _____    ______ ____
ROOT
ATOM      1  C   UNL     1       0.053  -3.309   1.425  0.00  0.00    +0.068 C 
ATOM      2  C   UNL     1       1.084  -4.290   0.863  0.00  0.00    +0.034 C 
ATOM      3  C   UNL     1       1.105  -5.556   1.721  0.00  0.00    -0.006 C 
ATOM      4  C   UNL     1      -0.280  -6.207   1.704  0.00  0.00    +0.007 C 
ATOM      5  C   UNL     1      -1.311  -5.226   2.266  0.00  0.00    -0.006 C 
ATOM      6  C   UNL     1      -1.332  -3.960   1.408  0.00  0.00    +0.034 C 
ATOM      7  C   UNL     1      -0.937  -4.862   3.704  0.00  0.00    +0.029 C 
ATOM      8  C   UNL     1       0.448  -4.211   3.721  0.00  0.00    +0.037 C 
ATOM      9  C   UNL     1       1.479  -5.192   3.159  0.00  0.00    +0.029 C 
ATOM     10  C   UNL     1       0.427  -2.945   2.863  0.00  0.00    +0.056 C 
ENDROOT
BRANCH   1  15
ATOM     11  C   UNL     1      -0.018   1.503   0.010  0.00  0.00    +0.090 C 
ATOM     12  C   UNL     1       0.002  -0.004   0.002  0.00  0.00    +0.148 A 
ATOM     13  N   UNL     1       0.008  -0.772  -1.087  0.00  0.00    -0.220 NA
ATOM     14  C   UNL     1       0.027  -2.034  -0.740  0.00  0.00    +0.220 A 
ATOM     15  N   UNL     1       0.033  -2.097   0.603  0.00  0.00    -0.246 N 
ATOM     16  N   UNL     1       0.022  -0.769   1.062  0.00  0.00    -0.155 NA
ENDBRANCH   1  15
BRANCH   8  17
ATOM     17  N   UNL     1       0.806  -3.862   5.098  0.00  0.00    -0.310 N 
ATOM     18  C   UNL     1       0.887  -4.824   6.038  0.00  0.00    +0.210 C 
ATOM     19  O   UNL     1       0.663  -5.979   5.745  0.00  0.00    -0.276 OA
ATOM     20  C   UNL     1       1.256  -4.465   7.455  0.00  0.00    +0.109 C 
ATOM     21  H   UNL     1       0.986  -2.938   5.333  0.00  0.00    +0.149 HD
ENDBRANCH   8  17
TORSDOF 2
