REMARK  Name = ZINC51363421
REMARK  7 active torsions:
REMARK  status: ('A' for Active; 'I' for Inactive)
REMARK    1  A    between atoms: C_1  and  C_2
REMARK    2  A    between atoms: C_2  and  N_3
REMARK    3  A    between atoms: N_3  and  C_4
REMARK    4  A    between atoms: C_4  and  C_6
REMARK    5  A    between atoms: C_4  and  C_18
REMARK    6  A    between atoms: N_15  and  C_16
REMARK    7  A    between atoms: C_16  and  C_17
REMARK                            x       y       z     vdW  Elec       q    Type
REMARK                         _______ _______ _______ _____ _____    ______ ____
ROOT
ATOM      1  C   UNL     1      -2.897  -2.417  -0.144  0.00  0.00    -0.058 A 
ATOM      2  C   UNL     1      -3.922  -1.715   0.468  0.00  0.00    +0.004 A 
ATOM      3  C   UNL     1      -5.234  -2.111   0.296  0.00  0.00    +0.030 A 
ATOM      4  C   UNL     1      -5.524  -3.214  -0.491  0.00  0.00    +0.090 A 
ATOM      5  C   UNL     1      -4.492  -3.921  -1.109  0.00  0.00    +0.157 A 
ATOM      6  C   UNL     1      -3.179  -3.514  -0.935  0.00  0.00    +0.050 A 
ATOM      7  O   UNL     1      -5.061  -4.936  -1.806  0.00  0.00    -0.407 OA
ATOM      8  C   UNL     1      -6.393  -4.888  -1.647  0.00  0.00    +0.421 A 
ATOM      9  O   UNL     1      -7.188  -5.662  -2.144  0.00  0.00    -0.223 OA
ATOM     10  N   UNL     1      -6.713  -3.849  -0.850  0.00  0.00    -0.274 N 
ENDROOT
BRANCH  10  11
ATOM     11  C   UNL     1      -8.063  -3.457  -0.437  0.00  0.00    +0.125 C 
ATOM     12  C   UNL     1      -8.639  -2.467  -1.451  0.00  0.00    +0.027 C 
ENDBRANCH  10  11
BRANCH   1  13
ATOM     13  C   UNL     1      -1.469  -1.978   0.048  0.00  0.00    -0.038 C 
BRANCH  13  14
ATOM     14  C   UNL     1      -0.956  -2.489   1.396  0.00  0.00    -0.021 C 
ATOM     15  C   UNL     1       0.498  -2.022   1.619  0.00  0.00    +0.002 C 
ATOM     16  C   UNL     1       1.175  -3.219   2.333  0.00  0.00    +0.000 C 
ATOM     17  C   UNL     1       0.539  -4.442   1.628  0.00  0.00    +0.000 C 
ATOM     18  C   UNL     1      -0.929  -4.027   1.402  0.00  0.00    +0.002 C 
ENDBRANCH  13  14
BRANCH  13  19
ATOM     19  N   UNL     1      -1.399  -0.511   0.022  0.00  0.00    +0.384 N 
ATOM     20  H   UNL     1      -0.460  -0.215   0.243  0.00  0.00    -0.085 HD
ATOM     21  H   UNL     1      -2.041  -0.132   0.702  0.00  0.00    -0.085 HD
BRANCH  19  23
ATOM     22  C   UNL     1      -1.791   1.502  -1.317  0.00  0.00    -0.017 C 
ATOM     23  C   UNL     1      -1.762  -0.028  -1.317  0.00  0.00    -0.085 C 
ENDBRANCH  19  23
ENDBRANCH  13  19
ENDBRANCH   1  13
TORSDOF 5
