REMARK  Name = ZINC38019235
REMARK  5 active torsions:
REMARK  status: ('A' for Active; 'I' for Inactive)
REMARK    1  A    between atoms: C_1  and  N_2
REMARK    2  A    between atoms: C_10  and  C_12
REMARK    3  A    between atoms: C_12  and  N_13
REMARK    4  A    between atoms: N_13  and  C_14
REMARK    5  A    between atoms: C_23  and  O_24
REMARK                            x       y       z     vdW  Elec       q    Type
REMARK                         _______ _______ _______ _____ _____    ______ ____
ROOT
ATOM      1  N   UNL     1      -1.518  -4.897   0.612  0.00  0.00    +0.384 N 
ATOM      2  H   UNL     1      -1.894  -4.830   1.546  0.00  0.00    -0.085 HD
ATOM      3  H   UNL     1      -2.160  -4.472  -0.040  0.00  0.00    -0.085 HD
ENDROOT
BRANCH   1   4
ATOM      4  C   UNL     1      -1.328  -6.311   0.261  0.00  0.00    -0.040 C 
ATOM      5  C   UNL     1      -2.687  -7.042   0.230  0.00  0.00    -0.006 C 
ATOM      6  C   UNL     1      -2.797  -7.598   1.665  0.00  0.00    +0.038 C 
ATOM      7  C   UNL     1      -1.369  -7.754   2.140  0.00  0.00    -0.004 A 
ATOM      8  C   UNL     1      -0.522  -7.014   1.333  0.00  0.00    -0.055 A 
ATOM      9  C   UNL     1       0.840  -7.006   1.580  0.00  0.00    +0.002 A 
ATOM     10  C   UNL     1       1.363  -7.735   2.631  0.00  0.00    +0.004 A 
ATOM     11  C   UNL     1       0.525  -8.477   3.441  0.00  0.00    +0.046 A 
ATOM     12  C   UNL     1      -0.846  -8.488   3.198  0.00  0.00    +0.120 A 
BRANCH  12  13
ATOM     13  O   UNL     1      -1.674  -9.217   3.992  0.00  0.00    -0.506 OA
ATOM     14  H   UNL     1      -1.812 -10.124   3.688  0.00  0.00    +0.292 HD
ENDBRANCH  12  13
ENDBRANCH   1   4
BRANCH   1  15
ATOM     15  C   UNL     1      -0.227  -4.200   0.552  0.00  0.00    -0.078 C 
BRANCH  15  23
ATOM     16  C   UNL     1      -0.018   1.465   0.010  0.00  0.00    -0.095 C 
ATOM     17  N   UNL     1       0.002  -0.004   0.002  0.00  0.00    +0.382 N 
ATOM     18  C   UNL     1      -1.374  -0.547   0.157  0.00  0.00    -0.068 C 
ATOM     19  C   UNL     1      -1.682  -0.375   1.663  0.00  0.00    -0.017 C 
ATOM     20  C   UNL     1      -0.301  -0.360   2.350  0.00  0.00    -0.017 C 
ATOM     21  C   UNL     1       0.717  -0.525   1.198  0.00  0.00    -0.068 C 
ATOM     22  C   UNL     1       0.938  -2.030   0.977  0.00  0.00    -0.014 C 
ATOM     23  C   UNL     1      -0.424  -2.727   0.918  0.00  0.00    -0.031 C 
ATOM     24  C   UNL     1      -1.308  -2.051  -0.154  0.00  0.00    -0.014 C 
ATOM     25  H   UNL     1       0.429  -0.349  -0.845  0.00  0.00    -0.081 HD
ENDBRANCH  15  23
ENDBRANCH   1  15
TORSDOF 4
