REMARK  Name = ZINC64609804
REMARK  8 active torsions:
REMARK  status: ('A' for Active; 'I' for Inactive)
REMARK    1  A    between atoms: C_1  and  C_2
REMARK    2  A    between atoms: C_5  and  N_8
REMARK    3  A    between atoms: C_12  and  C_31
REMARK    4  A    between atoms: C_12  and  C_32
REMARK    5  A    between atoms: C_14  and  N_19
REMARK    6  A    between atoms: C_20  and  C_22
REMARK    7  A    between atoms: C_23  and  C_30
REMARK    8  A    between atoms: C_25  and  C_29
REMARK                            x       y       z     vdW  Elec       q    Type
REMARK                         _______ _______ _______ _____ _____    ______ ____
ROOT
ATOM      1  N   UNL     1       0.436  -5.543  -1.501  0.00  0.00    -0.246 N 
ATOM      2  C   UNL     1       0.454  -6.044  -0.123  0.00  0.00    +0.124 C 
ATOM      3  C   UNL     1      -0.655  -5.415   0.723  0.00  0.00    +0.035 C 
ATOM      4  C   UNL     1      -0.787  -6.211   2.025  0.00  0.00    -0.031 C 
ATOM      5  C   UNL     1      -1.265  -7.636   1.751  0.00  0.00    +0.033 C 
ATOM      6  C   UNL     1      -0.212  -8.392   0.923  0.00  0.00    +0.103 C 
ATOM      7  C   UNL     1       0.136  -7.524  -0.267  0.00  0.00    -0.013 C 
ATOM      8  C   UNL     1       0.134  -7.810  -1.540  0.00  0.00    +0.091 C 
ATOM      9  N   UNL     1       0.358  -6.685  -2.316  0.00  0.00    -0.271 N 
ATOM     10  C   UNL     1      -1.793  -5.512   2.942  0.00  0.00    +0.011 C 
ATOM     11  C   UNL     1       0.574  -6.263   2.722  0.00  0.00    +0.011 C 
ATOM     12  H   UNL     1       0.450  -6.686  -3.281  0.00  0.00    +0.169 HD
ENDROOT
BRANCH   1  17
ATOM     13  C   UNL     1       0.617  -0.131  -3.187  0.00  0.00    +0.044 C 
ATOM     14  C   UNL     1       0.569  -1.569  -2.739  0.00  0.00    -0.050 A 
ATOM     15  C   UNL     1       0.368  -2.574  -3.667  0.00  0.00    +0.005 A 
ATOM     16  C   UNL     1       0.324  -3.893  -3.260  0.00  0.00    +0.025 A 
ATOM     17  C   UNL     1       0.481  -4.210  -1.916  0.00  0.00    +0.048 A 
ATOM     18  C   UNL     1       0.682  -3.197  -0.987  0.00  0.00    +0.025 A 
ATOM     19  C   UNL     1       0.731  -1.881  -1.401  0.00  0.00    +0.005 A 
ENDBRANCH   1  17
BRANCH   6  20
ATOM     20  N   UNL     1       0.990  -8.619   1.728  0.00  0.00    -0.305 N 
ATOM     21  C   UNL     1       0.973  -9.528   2.724  0.00  0.00    +0.250 C 
ATOM     22  O   UNL     1      -0.066 -10.090   3.016  0.00  0.00    -0.270 OA
ATOM     23  H   UNL     1       1.799  -8.116   1.545  0.00  0.00    +0.150 HD
BRANCH  21  24
ATOM     24  C   UNL     1       2.209  -9.839   3.456  0.00  0.00    +0.104 A 
ATOM     25  C   UNL     1       2.225 -10.837   4.429  0.00  0.00    -0.031 A 
ATOM     26  C   UNL     1       3.416 -11.104   5.103  0.00  0.00    +0.025 A 
ATOM     27  C   UNL     1       4.538 -10.399   4.810  0.00  0.00    +0.016 A 
ATOM     28  N   UNL     1       4.530  -9.427   3.866  0.00  0.00    -0.326 N 
ATOM     29  C   UNL     1       3.409  -9.133   3.181  0.00  0.00    +0.261 A 
ATOM     30  O   UNL     1       3.423  -8.260   2.331  0.00  0.00    -0.267 OA
ATOM     31  C   UNL     1       5.816 -10.701   5.548  0.00  0.00    +0.063 C 
ATOM     32  C   UNL     1       0.974 -11.614   4.748  0.00  0.00    +0.045 C 
ATOM     33  H   UNL     1       5.347  -8.939   3.677  0.00  0.00    +0.169 HD
ENDBRANCH  21  24
ENDBRANCH   6  20
TORSDOF 3
