REMARK  Name = ZINC66120312
REMARK  5 active torsions:
REMARK  status: ('A' for Active; 'I' for Inactive)
REMARK    1  A    between atoms: C_6  and  C_7
REMARK    2  A    between atoms: C_7  and  N_8
REMARK    3  A    between atoms: C_15  and  C_18
REMARK    4  A    between atoms: C_18  and  C_19
REMARK    5  A    between atoms: C_19  and  C_20
REMARK                            x       y       z     vdW  Elec       q    Type
REMARK                         _______ _______ _______ _____ _____    ______ ____
ROOT
ATOM      1  N   UNL     1      -1.728  -1.015  -1.367  0.00  0.00    -0.295 N 
ATOM      2  C   UNL     1      -2.866  -1.696  -1.606  0.00  0.00    +0.302 C 
ATOM      3  O   UNL     1      -3.485  -2.188  -0.683  0.00  0.00    -0.253 OA
ATOM      4  N   UNL     1      -3.317  -1.833  -2.869  0.00  0.00    -0.285 N 
ATOM      5  C   UNL     1      -2.520  -1.350  -4.005  0.00  0.00    +0.109 C 
ATOM      6  C   UNL     1      -2.340  -2.497  -5.004  0.00  0.00    +0.019 C 
ATOM      7  C   UNL     1      -3.713  -3.052  -5.390  0.00  0.00    +0.006 C 
ATOM      8  C   UNL     1      -4.412  -3.602  -4.144  0.00  0.00    +0.007 C 
ATOM      9  C   UNL     1      -4.612  -2.472  -3.136  0.00  0.00    +0.112 C 
ATOM     10  H   UNL     1      -1.196  -0.684  -2.108  0.00  0.00    +0.151 HD
ENDROOT
BRANCH   1  11
ATOM     11  C   UNL     1      -1.295  -0.773   0.011  0.00  0.00    +0.141 C 
BRANCH  11  17
ATOM     12  C   UNL     1      -0.028   1.386   0.013  0.00  0.00    +0.005 A 
ATOM     13  C   UNL     1       1.157   2.096   0.006  0.00  0.00    +0.004 A 
ATOM     14  C   UNL     1       2.370   1.429  -0.011  0.00  0.00    -0.044 A 
ATOM     15  C   UNL     1       2.394   0.046  -0.021  0.00  0.00    -0.044 A 
ATOM     16  C   UNL     1       1.205  -0.664  -0.014  0.00  0.00    +0.009 A 
ATOM     17  C   UNL     1      -0.004   0.004   0.003  0.00  0.00    -0.030 A 
ATOM     18  C   UNL     1       3.827  -0.440  -0.040  0.00  0.00    +0.036 C 
ATOM     19  C   UNL     1       4.662   0.781  -0.481  0.00  0.00    +0.009 C 
ATOM     20  C   UNL     1       3.785   1.965  -0.023  0.00  0.00    +0.036 C 
ENDBRANCH  11  17
ENDBRANCH   1  11
BRANCH   8  21
ATOM     21  C   UNL     1      -5.770  -4.187  -4.537  0.00  0.00    +0.014 C 
BRANCH  21  22
ATOM     22  C   UNL     1      -6.413  -4.846  -3.315  0.00  0.00    +0.096 C 
BRANCH  22  23
ATOM     23  C   UNL     1      -7.751  -5.423  -3.702  0.00  0.00    +0.210 C 
ATOM     24  O   UNL     1      -8.150  -5.316  -4.842  0.00  0.00    -0.276 OA
ATOM     25  N   UNL     1      -8.503  -6.056  -2.781  0.00  0.00    -0.329 N 
ATOM     26  H   UNL     1      -8.184  -6.142  -1.869  0.00  0.00    +0.145 HD
ATOM     27  H   UNL     1      -9.364  -6.427  -3.029  0.00  0.00    +0.145 HD
ENDBRANCH  22  23
ENDBRANCH  21  22
ENDBRANCH   8  21
TORSDOF 5
