REMARK  Name = ZINC63428302
REMARK  5 active torsions:
REMARK  status: ('A' for Active; 'I' for Inactive)
REMARK    1  A    between atoms: C_1  and  C_2
REMARK    2  A    between atoms: C_7  and  S_12
REMARK    3  A    between atoms: S_12  and  C_13
REMARK    4  A    between atoms: C_13  and  C_14
REMARK    5  A    between atoms: C_16  and  C_19
REMARK                            x       y       z     vdW  Elec       q    Type
REMARK                         _______ _______ _______ _____ _____    ______ ____
ROOT
ATOM      1  S   UNL     1       1.567  -5.231   2.029  0.00  0.00    -0.105 S 
ENDROOT
BRANCH   1   8
ATOM      2  C   UNL     1      -0.018   1.503   0.010  0.00  0.00    +0.044 C 
ATOM      3  C   UNL     1       0.002  -0.004   0.002  0.00  0.00    -0.048 A 
ATOM      4  C   UNL     1       0.005  -0.672  -1.235  0.00  0.00    +0.005 A 
ATOM      5  C   UNL     1       0.022  -2.017  -1.335  0.00  0.00    +0.028 A 
ATOM      6  C   UNL     1       0.040  -2.834  -0.114  0.00  0.00    +0.061 A 
ATOM      7  N   UNL     1       0.057  -4.120   0.090  0.00  0.00    -0.355 N 
ATOM      8  C   UNL     1       0.067  -4.335   1.542  0.00  0.00    +0.236 C 
ATOM      9  N   UNL     1       0.053  -3.002   2.159  0.00  0.00    -0.355 N 
ATOM     10  C   UNL     1       0.037  -2.127   1.195  0.00  0.00    +0.061 A 
ATOM     11  C   UNL     1       0.022  -0.657   1.181  0.00  0.00    +0.030 A 
ATOM     12  H   UNL     1       0.062  -4.809  -0.593  0.00  0.00    +0.162 HD
ATOM     13  H   UNL     1       0.055  -2.810   3.109  0.00  0.00    +0.162 HD
ENDBRANCH   1   8
BRANCH   1  14
ATOM     14  C   UNL     1       2.920  -4.166   1.458  0.00  0.00    +0.171 C 
BRANCH  14  15
ATOM     15  C   UNL     1       4.241  -4.802   1.804  0.00  0.00    +0.238 A 
ATOM     16  N   UNL     1       4.913  -5.621   1.046  0.00  0.00    -0.191 NA
ATOM     17  C   UNL     1       6.047  -5.996   1.664  0.00  0.00    +0.202 A 
ATOM     18  N   UNL     1       6.100  -5.408   2.834  0.00  0.00    -0.056 NA
ATOM     19  O   UNL     1       4.925  -4.617   2.940  0.00  0.00    -0.337 OA
BRANCH  17  20
ATOM     20  C   UNL     1       7.068  -6.922   1.114  0.00  0.00    +0.023 A 
ATOM     21  C   UNL     1       6.896  -7.480  -0.151  0.00  0.00    +0.013 A 
ATOM     22  C   UNL     1       7.849  -8.340  -0.658  0.00  0.00    +0.016 A 
ATOM     23  C   UNL     1       8.973  -8.649   0.088  0.00  0.00    +0.018 A 
ATOM     24  C   UNL     1       9.148  -8.098   1.345  0.00  0.00    +0.016 A 
ATOM     25  C   UNL     1       8.204  -7.231   1.859  0.00  0.00    +0.013 A 
ATOM     26 BR   UNL     1      10.274  -9.829  -0.613  0.00  0.00    -0.050 Br
ENDBRANCH  17  20
ENDBRANCH  14  15
ENDBRANCH   1  14
TORSDOF 4
