REMARK  Name = ZINC40145388
REMARK  11 active torsions:
REMARK  status: ('A' for Active; 'I' for Inactive)
REMARK    1  A    between atoms: C_1  and  C_2
REMARK    2  A    between atoms: C_2  and  C_3
REMARK    3  A    between atoms: C_2  and  C_4
REMARK    4  A    between atoms: C_2  and  C_5
REMARK    5  A    between atoms: C_5  and  C_7
REMARK    6  A    between atoms: C_5  and  N_13
REMARK    7  A    between atoms: C_7  and  N_8
REMARK    8  A    between atoms: N_16  and  C_17
REMARK    9  A    between atoms: C_19  and  C_25
REMARK   10  A    between atoms: C_22  and  O_23
REMARK   11  A    between atoms: O_23  and  C_24
REMARK                            x       y       z     vdW  Elec       q    Type
REMARK                         _______ _______ _______ _____ _____    ______ ____
ROOT
ATOM      1  N   UNL     1       0.020  -0.021  -2.454  0.00  0.00    -0.294 N 
ATOM      2  C   UNL     1      -1.040  -0.703  -2.931  0.00  0.00    +0.304 C 
ATOM      3  O   UNL     1      -1.405  -1.722  -2.379  0.00  0.00    -0.252 OA
ATOM      4  N   UNL     1      -1.694  -0.254  -4.021  0.00  0.00    -0.266 N 
ATOM      5  H   UNL     1       0.312   0.793  -2.894  0.00  0.00    +0.151 HD
ATOM      6  H   UNL     1      -1.455   0.600  -4.413  0.00  0.00    +0.156 HD
ENDROOT
BRANCH   4   7
ATOM      7  C   UNL     1      -2.721  -1.023  -4.587  0.00  0.00    +0.077 A 
ATOM      8  C   UNL     1      -2.742  -2.393  -4.402  0.00  0.00    +0.040 A 
ATOM      9  C   UNL     1      -3.767  -3.155  -4.968  0.00  0.00    +0.038 A 
ATOM     10  C   UNL     1      -4.766  -2.530  -5.719  0.00  0.00    +0.017 A 
ATOM     11  C   UNL     1      -4.739  -1.164  -5.900  0.00  0.00    +0.048 A 
ATOM     12  C   UNL     1      -3.724  -0.405  -5.334  0.00  0.00    +0.141 A 
BRANCH   9  13
ATOM     13  C   UNL     1      -3.795  -4.618  -4.773  0.00  0.00    +0.242 C 
ATOM     14  O   UNL     1      -2.925  -5.161  -4.120  0.00  0.00    -0.270 OA
ATOM     15  N   UNL     1      -4.784  -5.352  -5.320  0.00  0.00    -0.325 N 
ATOM     16  H   UNL     1      -5.478  -4.919  -5.841  0.00  0.00    +0.145 HD
ATOM     17  H   UNL     1      -4.802  -6.313  -5.192  0.00  0.00    +0.145 HD
ENDBRANCH   9  13
BRANCH  12  18
ATOM     18  O   UNL     1      -3.706   0.941  -5.511  0.00  0.00    -0.493 OA
ATOM     19  C   UNL     1      -4.764   1.508  -6.287  0.00  0.00    +0.277 C 
ENDBRANCH  12  18
ENDBRANCH   4   7
BRANCH   1  20
ATOM     20  C   UNL     1       0.732  -0.508  -1.270  0.00  0.00    +0.099 C 
BRANCH  20  22
ATOM     21  C   UNL     1       0.017   1.524  -0.004  0.00  0.00    +0.012 C 
ATOM     22  C   UNL     1       0.026  -0.006  -0.008  0.00  0.00    -0.018 C 
ATOM     23  C   UNL     1       0.770  -0.515   1.228  0.00  0.00    +0.012 C 
ATOM     24  C   UNL     1      -1.413  -0.525   0.012  0.00  0.00    +0.012 C 
ENDBRANCH  20  22
BRANCH  20  25
ATOM     25  C   UNL     1       2.171   0.011  -1.290  0.00  0.00    +0.145 C 
BRANCH  25  26
ATOM     26  N   UNL     1       2.882  -0.566  -2.434  0.00  0.00    -0.337 N 
ATOM     27  C   UNL     1       3.587  -1.739  -2.445  0.00  0.00    +0.104 A 
ATOM     28  C   UNL     1       4.074  -1.890  -3.691  0.00  0.00    +0.101 A 
ATOM     29  N   UNL     1       3.678  -0.837  -4.421  0.00  0.00    -0.352 N 
ATOM     30  C   UNL     1       2.959  -0.042  -3.676  0.00  0.00    +0.173 A 
ATOM     31  H   UNL     1       3.890  -0.690  -5.356  0.00  0.00    +0.166 HD
ENDBRANCH  25  26
ENDBRANCH  20  25
ENDBRANCH   1  20
TORSDOF 7
