REMARK  Name = ZINC58213432
REMARK  6 active torsions:
REMARK  status: ('A' for Active; 'I' for Inactive)
REMARK    1  A    between atoms: C_1  and  C_2
REMARK    2  A    between atoms: C_2  and  C_3
REMARK    3  A    between atoms: C_6  and  C_9
REMARK    4  A    between atoms: C_12  and  S_15
REMARK    5  A    between atoms: S_15  and  C_16
REMARK    6  A    between atoms: C_16  and  C_17
REMARK                            x       y       z     vdW  Elec       q    Type
REMARK                         _______ _______ _______ _____ _____    ______ ____
ROOT
ATOM      1  S   UNL     1       5.885  -2.961  -6.662  0.00  0.00    -0.080 S 
ENDROOT
BRANCH   1   5
ATOM      2  C   UNL     1       2.698  -1.862  -4.736  0.00  0.00    +0.182 A 
ATOM      3  N   UNL     1       4.012  -2.108  -4.840  0.00  0.00    -0.201 NA
ATOM      4  H   UNL     1       3.032  -2.802  -7.694  0.00  0.00    +0.191 HD
ATOM      5  C   UNL     1       4.290  -2.519  -6.058  0.00  0.00    +0.185 A 
ATOM      6  N   UNL     1       3.138  -2.542  -6.765  0.00  0.00    -0.253 N 
ATOM      7  N   UNL     1       2.124  -2.119  -5.890  0.00  0.00    -0.152 NA
BRANCH   2  11
ATOM      8  C   UNL     1       0.707  -0.490  -1.238  0.00  0.00    -0.048 A 
ATOM      9  C   UNL     1      -0.013  -0.718  -2.396  0.00  0.00    +0.004 A 
ATOM     10  C   UNL     1       0.627  -1.163  -3.535  0.00  0.00    +0.012 A 
ATOM     11  C   UNL     1       2.003  -1.383  -3.516  0.00  0.00    +0.021 A 
ATOM     12  C   UNL     1       2.724  -1.152  -2.346  0.00  0.00    +0.012 A 
ATOM     13  C   UNL     1       2.074  -0.701  -1.215  0.00  0.00    +0.004 A 
BRANCH   8  15
ATOM     14  C   UNL     1      -0.019   1.526   0.010  0.00  0.00    +0.009 C 
ATOM     15  C   UNL     1       0.002  -0.004   0.002  0.00  0.00    +0.032 C 
ENDBRANCH   8  15
ENDBRANCH   2  11
ENDBRANCH   1   5
BRANCH   1  16
ATOM     16  C   UNL     1       6.979  -2.713  -5.237  0.00  0.00    +0.133 C 
BRANCH  16  17
ATOM     17  C   UNL     1       8.393  -3.061  -5.623  0.00  0.00    +0.061 A 
ATOM     18  C   UNL     1       9.415  -2.952  -4.681  0.00  0.00    +0.096 A 
ATOM     19  C   UNL     1      10.695  -3.271  -5.046  0.00  0.00    +0.276 A 
ATOM     20  O   UNL     1      11.708  -3.176  -4.154  0.00  0.00    -0.266 OA
ATOM     21  N   UNL     1      10.932  -3.685  -6.321  0.00  0.00    -0.158 N 
ATOM     22  C   UNL     1       9.904  -3.779  -7.216  0.00  0.00    +0.258 A 
ATOM     23  N   UNL     1       8.656  -3.470  -6.846  0.00  0.00    -0.214 NA
ATOM     24  N   UNL     1      10.418  -4.202  -8.367  0.00  0.00    -0.176 NA
ATOM     25  C   UNL     1      11.731  -4.379  -8.233  0.00  0.00    +0.234 A 
ATOM     26  N   UNL     1      12.092  -4.077  -7.003  0.00  0.00    -0.125 NA
ATOM     27  N   UNL     1      12.590  -4.816  -9.239  0.00  0.00    -0.326 N 
ATOM     28  H   UNL     1      12.241  -5.017 -10.121  0.00  0.00    +0.145 HD
ATOM     29  H   UNL     1      13.537  -4.919  -9.056  0.00  0.00    +0.145 HD
ENDBRANCH  16  17
ENDBRANCH   1  16
TORSDOF 5
