REMARK  Name = ZINC37649355
REMARK  6 active torsions:
REMARK  status: ('A' for Active; 'I' for Inactive)
REMARK    1  A    between atoms: C_1  and  C_2
REMARK    2  A    between atoms: C_7  and  C_21
REMARK    3  A    between atoms: C_9  and  N_10
REMARK    4  A    between atoms: N_10  and  C_11
REMARK    5  A    between atoms: C_11  and  C_12
REMARK    6  A    between atoms: N_16  and  C_18
REMARK                            x       y       z     vdW  Elec       q    Type
REMARK                         _______ _______ _______ _____ _____    ______ ____
ROOT
ATOM      1  N   UNL     1       2.129   0.394   1.408  0.00  0.00    +0.381 N 
ATOM      2  H   UNL     1       2.643   0.191   0.564  0.00  0.00    -0.085 HD
ATOM      3  H   UNL     1       1.966   1.388   1.473  0.00  0.00    -0.085 HD
ENDROOT
BRANCH   1  10
ATOM      4  C   UNL     1       1.800  -1.996  -0.199  0.00  0.00    +0.006 C 
ATOM      5  C   UNL     1       1.082  -1.803   1.138  0.00  0.00    -0.028 C 
ATOM      6  C   UNL     1      -0.260  -2.538   1.107  0.00  0.00    +0.002 C 
ATOM      7  C   UNL     1      -1.124  -1.974  -0.022  0.00  0.00    +0.000 C 
ATOM      8  C   UNL     1      -1.365  -0.482   0.218  0.00  0.00    +0.002 C 
ATOM      9  C   UNL     1      -0.024   0.253   0.249  0.00  0.00    -0.028 C 
ATOM     10  C   UNL     1       0.841  -0.312   1.378  0.00  0.00    -0.066 C 
ATOM     11  C   UNL     1      -0.265   1.745   0.489  0.00  0.00    +0.006 C 
ENDBRANCH   1  10
BRANCH   1  12
ATOM     12  C   UNL     1       2.904  -0.052   2.574  0.00  0.00    -0.081 C 
BRANCH  12  13
ATOM     13  C   UNL     1       4.209   0.743   2.653  0.00  0.00    -0.047 C 
ATOM     14  C   UNL     1       5.168   0.354   1.497  0.00  0.00    -0.019 C 
ATOM     15  C   UNL     1       6.561   0.672   2.079  0.00  0.00    -0.078 C 
ATOM     16  N   UNL     1       6.433   0.663   3.548  0.00  0.00    +0.382 N 
ATOM     17  C   UNL     1       5.035   0.333   3.897  0.00  0.00    -0.077 C 
ATOM     18  H   UNL     1       6.668   1.573   3.915  0.00  0.00    -0.081 HD
BRANCH  16  19
ATOM     19  C   UNL     1       7.337  -0.345   4.117  0.00  0.00    -0.069 C 
ATOM     20  C   UNL     1       8.251   0.092   5.264  0.00  0.00    -0.017 C 
ATOM     21  C   UNL     1       8.837  -0.167   3.874  0.00  0.00    -0.017 C 
ENDBRANCH  16  19
ENDBRANCH  12  13
ENDBRANCH   1  12
TORSDOF 4
