REMARK  Name = ZINC36876618
REMARK  3 active torsions:
REMARK  status: ('A' for Active; 'I' for Inactive)
REMARK    1  A    between atoms: C_4  and  N_20
REMARK    2  A    between atoms: C_6  and  C_7
REMARK    3  A    between atoms: C_10  and  C_13
REMARK                            x       y       z     vdW  Elec       q    Type
REMARK                         _______ _______ _______ _____ _____    ______ ____
ROOT
ATOM      1  C   UNL     1      -1.267  -0.764   0.011  0.00  0.00    +0.066 A 
ATOM      2  C   UNL     1      -1.406  -2.117   0.011  0.00  0.00    +0.139 A 
ATOM      3  N   UNL     1      -2.714  -2.396   0.020  0.00  0.00    -0.242 NA
ATOM      4  C   UNL     1      -3.398  -1.284   0.025  0.00  0.00    +0.093 A 
ATOM      5  N   UNL     1      -2.540  -0.241   0.026  0.00  0.00    -0.343 N 
ATOM      6  H   UNL     1      -2.777   0.700   0.034  0.00  0.00    +0.167 HD
ENDROOT
BRANCH   4   7
ATOM      7  C   UNL     1      -4.902  -1.181   0.036  0.00  0.00    -0.004 C 
ATOM      8  C   UNL     1      -5.411  -1.018  -1.398  0.00  0.00    -0.008 C 
ATOM      9  C   UNL     1      -6.939  -0.914  -1.383  0.00  0.00    -0.003 C 
ATOM     10  C   UNL     1      -7.519  -2.155  -0.698  0.00  0.00    -0.019 C 
ATOM     11  C   UNL     1      -6.931  -2.275   0.710  0.00  0.00    -0.082 C 
ATOM     12  N   UNL     1      -5.471  -2.399   0.625  0.00  0.00    +0.386 N 
ATOM     13  H   UNL     1      -5.234  -3.192   0.049  0.00  0.00    -0.085 HD
ATOM     14  H   UNL     1      -5.092  -2.532   1.551  0.00  0.00    -0.085 HD
ENDBRANCH   4   7
BRANCH   1  20
ATOM     15  C   UNL     1      -0.017   1.391   0.010  0.00  0.00    +0.011 A 
ATOM     16  C   UNL     1       1.170   2.094   0.002  0.00  0.00    +0.023 A 
ATOM     17  C   UNL     1       2.378   1.419  -0.013  0.00  0.00    +0.071 A 
ATOM     18  C   UNL     1       2.403   0.034  -0.021  0.00  0.00    +0.145 A 
ATOM     19  C   UNL     1       1.223  -0.680  -0.014  0.00  0.00    +0.044 A 
ATOM     20  C   UNL     1       0.002  -0.004   0.002  0.00  0.00    +0.002 A 
ATOM     21 CL   UNL     1       3.868   2.310  -0.023  0.00  0.00    -0.081 Cl
BRANCH  18  22
ATOM     22  N   UNL     1       3.699  -0.681  -0.037  0.00  0.00    +0.058 N 
ATOM     23  O   UNL     1       3.722  -1.890  -0.044  0.00  0.00    -0.126 OA
ATOM     24  O   UNL     1       4.734  -0.057  -0.043  0.00  0.00    -0.126 OA
ENDBRANCH  18  22
ENDBRANCH   1  20
TORSDOF 3
