REMARK  Name = ZINC52306618
REMARK  7 active torsions:
REMARK  status: ('A' for Active; 'I' for Inactive)
REMARK    1  A    between atoms: C_1  and  C_2
REMARK    2  A    between atoms: C_2  and  N_9
REMARK    3  A    between atoms: C_10  and  S_17
REMARK    4  A    between atoms: C_12  and  C_14
REMARK    5  A    between atoms: C_14  and  O_15
REMARK    6  A    between atoms: O_15  and  C_16
REMARK    7  A    between atoms: S_17  and  N_20
REMARK                            x       y       z     vdW  Elec       q    Type
REMARK                         _______ _______ _______ _____ _____    ______ ____
ROOT
ATOM      1  N   UNL     1       0.688  -0.651  -1.135  0.00  0.00    -0.238 N 
ATOM      2  C   UNL     1       0.544  -0.300  -2.429  0.00  0.00    +0.193 A 
ATOM      3  C   UNL     1       1.534  -0.897  -3.132  0.00  0.00    +0.076 A 
ATOM      4  C   UNL     1       2.311  -1.639  -2.235  0.00  0.00    +0.090 A 
ATOM      5  N   UNL     1       1.808  -1.488  -1.037  0.00  0.00    -0.172 NA
ENDROOT
BRANCH   1   7
ATOM      6  C   UNL     1      -1.623  -0.557  -0.379  0.00  0.00    +0.038 C 
ATOM      7  C   UNL     1      -0.171  -0.228  -0.026  0.00  0.00    +0.084 C 
ATOM      8  C   UNL     1       0.221  -1.019   1.222  0.00  0.00    +0.054 C 
ATOM      9  C   UNL     1       1.321  -0.262   2.017  0.00  0.00    +0.168 C 
ATOM     10  S   UNL     1       0.705   1.468   1.823  0.00  0.00    -0.029 S 
ATOM     11  O   UNL     1      -0.328   1.705   2.770  0.00  0.00    -0.174 OA
ATOM     12  O   UNL     1       1.813   2.354   1.756  0.00  0.00    -0.174 OA
ATOM     13  C   UNL     1      -0.038   1.297   0.147  0.00  0.00    +0.195 C 
ENDBRANCH   1   7
BRANCH   2  14
ATOM     14  S   UNL     1      -0.710   0.748  -3.088  0.00  0.00    +0.073 S 
ATOM     15  O   UNL     1      -1.844  -0.075  -3.326  0.00  0.00    -0.152 OA
ATOM     16  O   UNL     1      -0.763   1.894  -2.249  0.00  0.00    -0.152 OA
BRANCH  14  17
ATOM     17  N   UNL     1      -0.184   1.270  -4.569  0.00  0.00    -0.202 NA
ATOM     18  H   UNL     1       0.678   0.981  -4.907  0.00  0.00    +0.144 HD
ATOM     19  H   UNL     1      -0.739   1.864  -5.099  0.00  0.00    +0.144 HD
ENDBRANCH  14  17
ENDBRANCH   2  14
BRANCH   4  20
ATOM     20  C   UNL     1       3.521  -2.465  -2.588  0.00  0.00    +0.216 C 
BRANCH  20  21
ATOM     21  O   UNL     1       3.764  -2.378  -3.993  0.00  0.00    -0.377 OA
ATOM     22  C   UNL     1       4.897  -3.129  -4.435  0.00  0.00    +0.194 C 
ENDBRANCH  20  21
ENDBRANCH   4  20
TORSDOF 5
