REMARK  Name = ZINC36244990
REMARK  5 active torsions:
REMARK  status: ('A' for Active; 'I' for Inactive)
REMARK    1  A    between atoms: C_1  and  C_2
REMARK    2  A    between atoms: C_4  and  N_9
REMARK    3  A    between atoms: C_7  and  N_8
REMARK    4  A    between atoms: N_9  and  C_10
REMARK    5  A    between atoms: C_10  and  C_11
REMARK                            x       y       z     vdW  Elec       q    Type
REMARK                         _______ _______ _______ _____ _____    ______ ____
ROOT
ATOM      1  N   UNL     1       0.029  -2.811  -2.354  0.00  0.00    -0.326 N 
ATOM      2  H   UNL     1       0.043  -3.781  -2.339  0.00  0.00    +0.148 HD
ENDROOT
BRANCH   1   6
ATOM      3  C   UNL     1      -0.018   1.503   0.010  0.00  0.00    +0.046 C 
ATOM      4  C   UNL     1       0.002  -0.004   0.002  0.00  0.00    -0.025 A 
ATOM      5  C   UNL     1       0.006  -0.705  -1.190  0.00  0.00    +0.046 A 
ATOM      6  C   UNL     1       0.026  -2.095  -1.159  0.00  0.00    +0.097 A 
ATOM      7  N   UNL     1       0.040  -2.746  -0.007  0.00  0.00    -0.348 N 
ATOM      8  C   UNL     1       0.036  -2.110   1.149  0.00  0.00    +0.107 A 
ATOM      9  C   UNL     1       0.023  -0.724   1.195  0.00  0.00    +0.044 A 
ATOM     10  H   UNL     1       0.054  -3.716  -0.012  0.00  0.00    +0.167 HD
BRANCH   9  11
ATOM     11  N   UNL     1       0.026  -0.055   2.426  0.00  0.00    -0.357 N 
ATOM     12  H   UNL     1       0.013   0.914   2.452  0.00  0.00    +0.142 HD
ATOM     13  H   UNL     1       0.040  -0.562   3.253  0.00  0.00    +0.142 HD
ENDBRANCH   9  11
ENDBRANCH   1   6
BRANCH   1  14
ATOM     14  C   UNL     1       0.013  -2.099  -3.635  0.00  0.00    +0.138 C 
BRANCH  14  15
ATOM     15  C   UNL     1       0.021  -3.096  -4.764  0.00  0.00    -0.027 A 
ATOM     16  C   UNL     1       1.223  -3.541  -5.284  0.00  0.00    +0.009 A 
ATOM     17  C   UNL     1       1.235  -4.456  -6.319  0.00  0.00    +0.050 A 
ATOM     18  C   UNL     1       0.042  -4.930  -6.840  0.00  0.00    +0.166 A 
ATOM     19  C   UNL     1      -1.168  -4.483  -6.317  0.00  0.00    +0.167 A 
ATOM     20  C   UNL     1      -1.173  -3.570  -5.275  0.00  0.00    +0.054 A 
ATOM     21  O   UNL     1      -2.187  -5.091  -6.992  0.00  0.00    -0.453 OA
ATOM     22  C   UNL     1      -1.595  -5.602  -8.201  0.00  0.00    +0.466 C 
ATOM     23  O   UNL     1      -0.218  -5.819  -7.843  0.00  0.00    -0.453 OA
ENDBRANCH  14  15
ENDBRANCH   1  14
TORSDOF 4
