REMARK  Name = ZINC42455601
REMARK  8 active torsions:
REMARK  status: ('A' for Active; 'I' for Inactive)
REMARK    1  A    between atoms: C_1  and  C_2
REMARK    2  A    between atoms: C_2  and  C_4
REMARK    3  A    between atoms: C_2  and  C_6
REMARK    4  A    between atoms: C_4  and  N_5
REMARK    5  A    between atoms: C_6  and  N_7
REMARK    6  A    between atoms: N_7  and  C_8
REMARK    7  A    between atoms: N_15  and  C_22
REMARK    8  A    between atoms: N_18  and  C_21
REMARK                            x       y       z     vdW  Elec       q    Type
REMARK                         _______ _______ _______ _____ _____    ______ ____
ROOT
ATOM      1  N   UNL     1      -2.082  -0.162   1.273  0.00  0.00    -0.304 N 
ATOM      2  C   UNL     1      -2.809   1.106   1.376  0.00  0.00    +0.132 C 
ATOM      3  C   UNL     1      -2.007  -1.003   2.359  0.00  0.00    +0.198 A 
ATOM      4  N   UNL     1      -2.571  -0.769   3.574  0.00  0.00    -0.320 N 
ATOM      5  H   UNL     1      -3.091   0.009   3.831  0.00  0.00    +0.169 HD
ATOM      6  C   UNL     1      -2.258  -1.858   4.376  0.00  0.00    +0.150 A 
ATOM      7  C   UNL     1      -1.502  -2.720   3.589  0.00  0.00    +0.170 A 
ATOM      8  N   UNL     1      -1.384  -2.163   2.382  0.00  0.00    -0.196 NA
ATOM      9  N   UNL     1      -1.048  -3.906   4.144  0.00  0.00    -0.280 N 
ATOM     10  C   UNL     1      -1.341  -4.207   5.423  0.00  0.00    +0.333 A 
ATOM     11  O   UNL     1      -0.934  -5.252   5.894  0.00  0.00    -0.246 OA
ATOM     12  N   UNL     1      -2.070  -3.381   6.192  0.00  0.00    -0.262 N 
ATOM     13  C   UNL     1      -2.540  -2.213   5.707  0.00  0.00    +0.282 A 
ATOM     14  O   UNL     1      -3.200  -1.473   6.415  0.00  0.00    -0.265 OA
ATOM     15  C   UNL     1      -2.361  -3.755   7.579  0.00  0.00    +0.157 C 
ATOM     16  C   UNL     1      -0.250  -4.833   3.337  0.00  0.00    +0.155 C 
ENDROOT
BRANCH   1  17
ATOM     17  C   UNL     1      -1.433  -0.534   0.013  0.00  0.00    +0.109 C 
BRANCH  17  19
ATOM     18  C   UNL     1      -0.019   1.526   0.010  0.00  0.00    +0.007 C 
ATOM     19  C   UNL     1       0.002  -0.004   0.002  0.00  0.00    -0.014 C 
BRANCH  19  20
ATOM     20  C   UNL     1       0.718  -0.497  -1.257  0.00  0.00    -0.082 C 
BRANCH  20  21
ATOM     21  N   UNL     1       2.129  -0.090  -1.209  0.00  0.00    +0.378 N 
ATOM     22  H   UNL     1       2.187   0.916  -1.162  0.00  0.00    -0.090 HD
ATOM     23  H   UNL     1       2.567  -0.491  -0.394  0.00  0.00    -0.090 HD
ATOM     24  H   UNL     1       2.601  -0.415  -2.039  0.00  0.00    -0.090 HD
ENDBRANCH  20  21
ENDBRANCH  19  20
ENDBRANCH  17  19
ENDBRANCH   1  17
TORSDOF 4
