REMARK  Name = ZINC50401495
REMARK  8 active torsions:
REMARK  status: ('A' for Active; 'I' for Inactive)
REMARK    1  A    between atoms: C_1  and  C_2
REMARK    2  A    between atoms: C_2  and  C_3
REMARK    3  A    between atoms: C_3  and  C_4
REMARK    4  A    between atoms: C_4  and  C_6
REMARK    5  A    between atoms: C_4  and  N_8
REMARK    6  A    between atoms: C_6  and  C_7
REMARK    7  A    between atoms: N_8  and  C_9
REMARK    8  A    between atoms: C_9  and  C_10
REMARK                            x       y       z     vdW  Elec       q    Type
REMARK                         _______ _______ _______ _____ _____    ______ ____
ROOT
ATOM      1  C   UNL     1      -0.222  -4.053   0.932  0.00  0.00    -0.045 C 
ENDROOT
BRANCH   1   2
ATOM      2  C   UNL     1       0.637  -4.594   2.046  0.00  0.00    -0.047 A 
ATOM      3  C   UNL     1       0.107  -5.497   2.949  0.00  0.00    +0.052 A 
ATOM      4  C   UNL     1       0.894  -5.996   3.974  0.00  0.00    +0.166 A 
ATOM      5  C   UNL     1       2.220  -5.586   4.092  0.00  0.00    +0.167 A 
ATOM      6  C   UNL     1       2.745  -4.681   3.184  0.00  0.00    +0.065 A 
ATOM      7  C   UNL     1       1.955  -4.191   2.159  0.00  0.00    +0.023 A 
ATOM      8 BR   UNL     1       2.677  -2.962   0.916  0.00  0.00    -0.050 Br
ATOM      9  O   UNL     1       2.776  -6.213   5.169  0.00  0.00    -0.453 OA
ATOM     10  C   UNL     1       1.665  -6.694   5.949  0.00  0.00    +0.466 C 
ATOM     11  O   UNL     1       0.619  -6.880   4.977  0.00  0.00    -0.453 OA
ENDBRANCH   1   2
BRANCH   1  12
ATOM     12  N   UNL     1      -0.602  -2.667   1.236  0.00  0.00    +0.384 N 
ATOM     13  H   UNL     1       0.229  -2.121   1.412  0.00  0.00    -0.085 HD
ATOM     14  H   UNL     1      -1.193  -2.652   2.053  0.00  0.00    -0.085 HD
BRANCH  12  15
ATOM     15  C   UNL     1      -1.329  -2.096   0.095  0.00  0.00    -0.072 C 
BRANCH  15  16
ATOM     16  C   UNL     1      -2.659  -2.833  -0.082  0.00  0.00    -0.019 C 
ATOM     17  C   UNL     1      -3.349  -2.341  -1.356  0.00  0.00    +0.002 C 
ENDBRANCH  15  16
BRANCH  15  18
ATOM     18  C   UNL     1      -1.599  -0.612   0.351  0.00  0.00    -0.016 C 
BRANCH  18  20
ATOM     19  C   UNL     1      -0.541   1.630   0.661  0.00  0.00    +0.004 C 
ATOM     20  C   UNL     1      -0.271   0.146   0.404  0.00  0.00    -0.005 C 
ENDBRANCH  18  20
ENDBRANCH  15  18
ENDBRANCH  12  15
ENDBRANCH   1  12
TORSDOF 6
