REMARK  Name = ZINC44179770
REMARK  8 active torsions:
REMARK  status: ('A' for Active; 'I' for Inactive)
REMARK    1  A    between atoms: C_1  and  N_2
REMARK    2  A    between atoms: C_3  and  C_5
REMARK    3  A    between atoms: C_5  and  C_6
REMARK    4  A    between atoms: C_11  and  N_12
REMARK    5  A    between atoms: N_15  and  C_16
REMARK    6  A    between atoms: C_16  and  C_17
REMARK    7  A    between atoms: C_17  and  C_19
REMARK    8  A    between atoms: C_17  and  N_24
REMARK                            x       y       z     vdW  Elec       q    Type
REMARK                         _______ _______ _______ _____ _____    ______ ____
ROOT
ATOM      1  N   UNL     1      -0.665  -2.209   3.579  0.00  0.00    -0.269 N 
ATOM      2  C   UNL     1      -1.352  -2.558   4.685  0.00  0.00    +0.304 C 
ATOM      3  O   UNL     1      -0.765  -3.016   5.646  0.00  0.00    -0.253 OA
ATOM      4  N   UNL     1      -2.689  -2.398   4.725  0.00  0.00    -0.300 N 
ATOM      5  H   UNL     1      -1.122  -1.778   2.840  0.00  0.00    +0.156 HD
ATOM      6  H   UNL     1      -3.158  -2.032   3.959  0.00  0.00    +0.150 HD
ENDROOT
BRANCH   1  12
ATOM      7  C   UNL     1       1.283  -2.790   2.274  0.00  0.00    -0.017 A 
ATOM      8  C   UNL     1       2.639  -3.041   2.195  0.00  0.00    +0.006 A 
ATOM      9  C   UNL     1       3.423  -2.979   3.333  0.00  0.00    +0.000 A 
ATOM     10  C   UNL     1       2.851  -2.666   4.553  0.00  0.00    +0.002 A 
ATOM     11  C   UNL     1       1.496  -2.414   4.638  0.00  0.00    +0.023 A 
ATOM     12  C   UNL     1       0.708  -2.470   3.496  0.00  0.00    +0.038 A 
BRANCH   7  13
ATOM     13  C   UNL     1       0.430  -2.858   1.034  0.00  0.00    +0.132 C 
BRANCH  13  16
ATOM     14  C   UNL     1      -0.568   0.045  -1.253  0.00  0.00    +0.128 C 
ATOM     15  N   UNL     1      -0.433  -1.296  -0.679  0.00  0.00    -0.318 N 
ATOM     16  C   UNL     1       0.292  -1.479   0.443  0.00  0.00    +0.217 C 
ATOM     17  O   UNL     1       0.832  -0.534   0.976  0.00  0.00    -0.275 OA
ATOM     18  H   UNL     1      -0.866  -2.052  -1.105  0.00  0.00    +0.148 HD
ENDBRANCH  13  16
ENDBRANCH   7  13
ENDBRANCH   1  12
BRANCH   4  19
ATOM     19  C   UNL     1      -3.436  -2.777   5.928  0.00  0.00    +0.095 C 
BRANCH  19  20
ATOM     20  C   UNL     1      -4.935  -2.616   5.668  0.00  0.00    -0.013 C 
BRANCH  20  21
ATOM     21  N   UNL     1      -5.677  -2.878   6.909  0.00  0.00    +0.386 N 
ATOM     22  C   UNL     1      -5.393  -1.817   7.909  0.00  0.00    -0.078 C 
ATOM     23  C   UNL     1      -6.607  -1.898   8.867  0.00  0.00    -0.020 C 
ATOM     24  C   UNL     1      -7.783  -2.201   7.910  0.00  0.00    -0.020 C 
ATOM     25  C   UNL     1      -7.133  -2.813   6.656  0.00  0.00    -0.078 C 
ATOM     26  H   UNL     1      -5.429  -3.782   7.280  0.00  0.00    -0.081 HD
ENDBRANCH  20  21
BRANCH  20  27
ATOM     27  C   UNL     1      -5.369  -3.596   4.608  0.00  0.00    -0.022 A 
ATOM     28  C   UNL     1      -5.579  -3.384   3.285  0.00  0.00    +0.009 A 
ATOM     29  C   UNL     1      -5.978  -4.444   2.493  0.00  0.00    +0.008 A 
ATOM     30  C   UNL     1      -6.148  -5.663   3.061  0.00  0.00    +0.045 A 
ATOM     31  S   UNL     1      -5.733  -5.336   4.766  0.00  0.00    -0.103 S 
ENDBRANCH  20  27
ENDBRANCH  19  20
ENDBRANCH   4  19
TORSDOF 7
