REMARK  Name = ZINC50829775
REMARK  3 active torsions:
REMARK  status: ('A' for Active; 'I' for Inactive)
REMARK    1  A    between atoms: N_4  and  C_6
REMARK    2  A    between atoms: C_6  and  C_7
REMARK    3  A    between atoms: C_8  and  N_12
REMARK                            x       y       z     vdW  Elec       q    Type
REMARK                         _______ _______ _______ _____ _____    ______ ____
ROOT
ATOM      1  C   UNL     1       1.204  -2.555   1.141  0.00  0.00    +0.114 A 
ATOM      2  C   UNL     1       1.821  -2.606   2.358  0.00  0.00    +0.108 A 
ATOM      3  S   UNL     1       0.745  -3.534   3.256  0.00  0.00    +0.051 S 
ATOM      4  N   UNL     1      -0.410  -3.808   2.073  0.00  0.00    -0.108 NA
ATOM      5  N   UNL     1       0.055  -3.184   1.044  0.00  0.00    -0.142 NA
ENDROOT
BRANCH   2   6
ATOM      6  N   UNL     1       3.029  -2.037   2.753  0.00  0.00    -0.350 N 
ATOM      7  H   UNL     1       3.552  -1.520   2.120  0.00  0.00    +0.143 HD
ATOM      8  H   UNL     1       3.348  -2.157   3.662  0.00  0.00    +0.143 HD
ENDBRANCH   2   6
BRANCH   1   9
ATOM      9  C   UNL     1       1.806  -1.812  -0.025  0.00  0.00    +0.203 C 
BRANCH   9  13
ATOM     10  C   UNL     1      -0.016   1.304   0.009  0.00  0.00    +0.149 A 
ATOM     11  C   UNL     1       1.307   1.760  -0.001  0.00  0.00    +0.055 A 
ATOM     12  C   UNL     1       2.120   0.677  -0.015  0.00  0.00    +0.124 A 
ATOM     13  N   UNL     1       1.338  -0.424  -0.013  0.00  0.00    -0.264 N 
ATOM     14  N   UNL     1       0.002  -0.004   0.002  0.00  0.00    -0.178 NA
ATOM     15 BR   UNL     1       1.862   3.567   0.003  0.00  0.00    -0.047 Br
ENDBRANCH   9  13
ENDBRANCH   1   9
TORSDOF 3
