REMARK  Name = ZINC39593395
REMARK  4 active torsions:
REMARK  status: ('A' for Active; 'I' for Inactive)
REMARK    1  A    between atoms: C_5  and  O_25
REMARK    2  A    between atoms: C_6  and  C_7
REMARK    3  A    between atoms: N_8  and  N_9
REMARK    4  A    between atoms: C_10  and  C_16
REMARK                            x       y       z     vdW  Elec       q    Type
REMARK                         _______ _______ _______ _____ _____    ______ ____
ROOT
ATOM      1  N   UNL     1      -2.440  -2.777  -0.094  0.00  0.00    -0.175 N 
ATOM      2  C   UNL     1      -2.592  -4.241  -0.110  0.00  0.00    +0.230 C 
ATOM      3  N   UNL     1      -4.047  -4.445  -0.227  0.00  0.00    -0.242 N 
ATOM      4  N   UNL     1      -4.617  -3.166  -0.269  0.00  0.00    -0.160 NA
ATOM      5  C   UNL     1      -3.716  -2.245  -0.189  0.00  0.00    +0.206 C 
ATOM      6  S   UNL     1      -4.067  -0.518  -0.204  0.00  0.00    -0.011 SA
ATOM      7  H   UNL     1      -4.515  -5.293  -0.266  0.00  0.00    +0.170 HD
ENDROOT
BRANCH   2   8
ATOM      8  C   UNL     1      -2.065  -4.850   1.191  0.00  0.00    +0.197 C 
ATOM      9  C   UNL     1      -2.163  -6.361   1.155  0.00  0.00    -0.017 C 
ATOM     10  C   UNL     1      -2.984  -6.671   2.157  0.00  0.00    +0.065 C 
ATOM     11  C   UNL     1      -3.164  -8.177   2.227  0.00  0.00    +0.057 C 
ATOM     12  C   UNL     1      -2.677  -8.705   0.860  0.00  0.00    +0.011 C 
ATOM     13  C   UNL     1      -1.692  -7.594   0.429  0.00  0.00    +0.035 C 
ATOM     14  N   UNL     1      -3.392  -5.538   2.789  0.00  0.00    -0.158 NA
ATOM     15  N   UNL     1      -2.933  -4.489   2.325  0.00  0.00    -0.176 NA
ENDBRANCH   2   8
BRANCH   1  17
ATOM     16  C   UNL     1      -0.104  -2.690  -0.020  0.00  0.00    +0.142 C 
ATOM     17  N   UNL     1      -1.240  -2.061   0.003  0.00  0.00    -0.184 NA
BRANCH  16  23
ATOM     18  C   UNL     1       2.375  -2.627   0.182  0.00  0.00    +0.028 A 
ATOM     19  C   UNL     1       3.548  -1.931   0.393  0.00  0.00    +0.020 A 
ATOM     20  C   UNL     1       3.517  -0.567   0.629  0.00  0.00    +0.034 A 
ATOM     21  C   UNL     1       2.311   0.111   0.655  0.00  0.00    +0.061 A 
ATOM     22  C   UNL     1       1.125  -0.573   0.444  0.00  0.00    +0.139 A 
ATOM     23  C   UNL     1       1.152  -1.953   0.205  0.00  0.00    +0.038 A 
ATOM     24 BR   UNL     1       2.282   1.974   0.979  0.00  0.00    -0.046 Br
ATOM     25 BR   UNL     1       5.204  -2.844   0.360  0.00  0.00    -0.050 Br
BRANCH  22  26
ATOM     26  O   UNL     1      -0.059   0.093   0.470  0.00  0.00    -0.505 OA
ATOM     27  H   UNL     1      -0.336   0.437  -0.391  0.00  0.00    +0.292 HD
ENDBRANCH  22  26
ENDBRANCH  16  23
ENDBRANCH   1  17
TORSDOF 4
