REMARK  Name = ZINC36769007
REMARK  6 active torsions:
REMARK  status: ('A' for Active; 'I' for Inactive)
REMARK    1  A    between atoms: C_1  and  C_2
REMARK    2  A    between atoms: C_2  and  C_3
REMARK    3  A    between atoms: N_6  and  C_10
REMARK    4  A    between atoms: C_10  and  C_11
REMARK    5  A    between atoms: N_13  and  C_14
REMARK    6  A    between atoms: C_17  and  N_21
REMARK                            x       y       z     vdW  Elec       q    Type
REMARK                         _______ _______ _______ _____ _____    ______ ____
ROOT
ATOM      1  C   UNL     1       2.671  -5.294   3.166  0.00  0.00    +0.231 C 
ATOM      2  O   UNL     1       3.875  -5.179   3.263  0.00  0.00    -0.274 OA
ATOM      3  N   UNL     1       1.948  -5.726   4.218  0.00  0.00    -0.282 N 
ATOM      4  H   UNL     1       0.980  -5.748   4.165  0.00  0.00    +0.155 HD
ENDROOT
BRANCH   3   5
ATOM      5  C   UNL     1       2.596  -6.142   5.390  0.00  0.00    +0.071 A 
ATOM      6  C   UNL     1       2.846  -5.230   6.407  0.00  0.00    +0.065 A 
ATOM      7  C   UNL     1       3.484  -5.640   7.562  0.00  0.00    +0.044 A 
ATOM      8  C   UNL     1       3.876  -6.965   7.706  0.00  0.00    +0.027 A 
ATOM      9  C   UNL     1       3.627  -7.877   6.689  0.00  0.00    +0.044 A 
ATOM     10  C   UNL     1       2.983  -7.468   5.537  0.00  0.00    +0.065 A 
ATOM     11 CL   UNL     1       2.664  -8.611   4.268  0.00  0.00    -0.082 Cl
ATOM     12 CL   UNL     1       2.357  -3.574   6.228  0.00  0.00    -0.082 Cl
BRANCH   8  13
ATOM     13  N   UNL     1       4.522  -7.380   8.875  0.00  0.00    -0.358 N 
ATOM     14  H   UNL     1       4.696  -6.743   9.585  0.00  0.00    +0.142 HD
ATOM     15  H   UNL     1       4.795  -8.305   8.976  0.00  0.00    +0.142 HD
ENDBRANCH   8  13
ENDBRANCH   3   5
BRANCH   1  16
ATOM     16  C   UNL     1       1.984  -4.955   1.868  0.00  0.00    +0.181 C 
BRANCH  16  19
ATOM     17  C   UNL     1       3.410  -3.448  -1.276  0.00  0.00    +0.132 C 
ATOM     18  C   UNL     1       2.335  -3.950  -0.308  0.00  0.00    +0.116 C 
ATOM     19  N   UNL     1       2.983  -4.513   0.886  0.00  0.00    -0.289 NA
ATOM     20  C   UNL     1       3.885  -5.614   0.519  0.00  0.00    +0.113 C 
ATOM     21  C   UNL     1       4.943  -5.096  -0.458  0.00  0.00    +0.175 C 
ATOM     22  O   UNL     1       4.296  -4.524  -1.597  0.00  0.00    -0.374 OA
BRANCH  17  24
ATOM     23  C   UNL     1       3.807  -2.322  -3.471  0.00  0.00    +0.006 C 
ATOM     24  C   UNL     1       2.745  -2.934  -2.555  0.00  0.00    +0.029 C 
ENDBRANCH  17  24
ENDBRANCH  16  19
ENDBRANCH   1  16
TORSDOF 5
