REMARK  Name = ZINC62285342
REMARK  5 active torsions:
REMARK  status: ('A' for Active; 'I' for Inactive)
REMARK    1  A    between atoms: C_5  and  C_7
REMARK    2  A    between atoms: C_8  and  C_20
REMARK    3  A    between atoms: N_11  and  C_12
REMARK    4  A    between atoms: C_12  and  C_13
REMARK    5  A    between atoms: C_20  and  N_21
REMARK                            x       y       z     vdW  Elec       q    Type
REMARK                         _______ _______ _______ _____ _____    ______ ____
ROOT
ATOM      1  C   UNL     1       1.248  -2.162  -0.022  0.00  0.00    +0.092 A 
ATOM      2  C   UNL     1       1.267  -2.993   1.063  0.00  0.00    +0.073 A 
ATOM      3  N   UNL     1       1.287  -4.239   0.583  0.00  0.00    -0.136 NA
ATOM      4  N   UNL     1       1.281  -4.199  -0.702  0.00  0.00    -0.065 NA
ATOM      5  N   UNL     1       1.252  -2.981  -1.116  0.00  0.00    -0.239 N 
ENDROOT
BRANCH   1  10
ATOM      6  C   UNL     1      -0.017   1.375   0.010  0.00  0.00    +0.001 A 
ATOM      7  C   UNL     1       1.170   2.087   0.002  0.00  0.00    +0.001 A 
ATOM      8  C   UNL     1       2.382   1.421  -0.013  0.00  0.00    +0.020 A 
ATOM      9  C   UNL     1       2.415   0.040  -0.021  0.00  0.00    +0.050 A 
ATOM     10  C   UNL     1       1.221  -0.682  -0.013  0.00  0.00    +0.020 A 
ATOM     11  C   UNL     1       0.002  -0.004   0.002  0.00  0.00    +0.011 A 
ATOM     12 CL   UNL     1       3.937  -0.794  -0.040  0.00  0.00    -0.083 Cl
ENDBRANCH   1  10
BRANCH   5  13
ATOM     13  C   UNL     1       1.231  -2.547  -2.515  0.00  0.00    +0.181 C 
BRANCH  13  14
ATOM     14  C   UNL     1       2.644  -2.373  -3.009  0.00  0.00    -0.026 A 
ATOM     15  C   UNL     1       3.276  -1.151  -2.875  0.00  0.00    +0.008 A 
ATOM     16  C   UNL     1       4.572  -0.990  -3.327  0.00  0.00    +0.038 A 
ATOM     17  C   UNL     1       5.238  -2.053  -3.913  0.00  0.00    +0.123 A 
ATOM     18  C   UNL     1       4.604  -3.276  -4.047  0.00  0.00    +0.038 A 
ATOM     19  C   UNL     1       3.309  -3.437  -3.589  0.00  0.00    +0.008 A 
ATOM     20  F   UNL     1       6.505  -1.896  -4.356  0.00  0.00    -0.205 F 
ENDBRANCH  13  14
ENDBRANCH   5  13
BRANCH   2  21
ATOM     21  C   UNL     1       1.267  -2.585   2.514  0.00  0.00    -0.026 C 
BRANCH  21  22
ATOM     22  N   UNL     1      -0.118  -2.476   2.991  0.00  0.00    +0.382 N 
ATOM     23  H   UNL     1      -0.578  -3.368   2.893  0.00  0.00    -0.090 HD
ATOM     24  H   UNL     1      -0.118  -2.203   3.963  0.00  0.00    -0.090 HD
ATOM     25  H   UNL     1      -0.608  -1.783   2.447  0.00  0.00    -0.090 HD
ENDBRANCH  21  22
ENDBRANCH   2  21
TORSDOF 5
