REMARK  Name = ZINC63855522
REMARK  5 active torsions:
REMARK  status: ('A' for Active; 'I' for Inactive)
REMARK    1  A    between atoms: C_1  and  C_2
REMARK    2  A    between atoms: C_4  and  C_11
REMARK    3  A    between atoms: N_6  and  C_8
REMARK    4  A    between atoms: C_8  and  C_9
REMARK    5  A    between atoms: C_11  and  N_12
REMARK                            x       y       z     vdW  Elec       q    Type
REMARK                         _______ _______ _______ _____ _____    ______ ____
ROOT
ATOM      1  N   UNL     1      -0.599  -1.279  -3.073  0.00  0.00    -0.287 NA
ATOM      2  C   UNL     1      -0.107  -2.649  -2.887  0.00  0.00    +0.092 C 
ATOM      3  C   UNL     1      -1.306  -3.589  -2.675  0.00  0.00    +0.070 C 
ATOM      4  C   UNL     1      -2.305  -3.287  -3.766  0.00  0.00    +0.039 A 
ATOM      5  H   UNL     1      -3.556  -1.574  -6.055  0.00  0.00    +0.166 HD
ATOM      6  C   UNL     1      -2.275  -2.169  -4.516  0.00  0.00    +0.057 A 
ATOM      7  N   UNL     1      -3.315  -2.233  -5.385  0.00  0.00    -0.348 N 
ATOM      8  C   UNL     1      -3.959  -3.400  -5.140  0.00  0.00    +0.171 A 
ATOM      9  N   UNL     1      -3.343  -4.024  -4.168  0.00  0.00    -0.349 N 
ATOM     10  C   UNL     1      -1.231  -1.063  -4.372  0.00  0.00    +0.064 C 
ATOM     11  C   UNL     1      -0.259  -1.243  -5.526  0.00  0.00    +0.029 C 
ATOM     12  C   UNL     1       0.535   0.009  -5.872  0.00  0.00    +0.002 C 
ATOM     13  C   UNL     1      -0.430   1.167  -6.136  0.00  0.00    +0.000 C 
ATOM     14  C   UNL     1      -1.188   1.459  -4.841  0.00  0.00    +0.002 C 
ATOM     15  C   UNL     1      -1.998   0.249  -4.410  0.00  0.00    +0.029 C 
ATOM     16  H   UNL     1      -3.598  -4.883  -3.798  0.00  0.00    +0.166 HD
ENDROOT
BRANCH   1  17
ATOM     17  C   UNL     1       0.377  -0.284  -2.656  0.00  0.00    +0.119 C 
BRANCH  17  20
ATOM     18  C   UNL     1      -0.019   1.526   0.010  0.00  0.00    +0.030 C 
ATOM     19  C   UNL     1       0.002  -0.004   0.002  0.00  0.00    +0.098 C 
ATOM     20  C   UNL     1       0.745  -0.517  -1.213  0.00  0.00    -0.023 C 
ATOM     21  C   UNL     1       1.776  -1.206  -0.766  0.00  0.00    +0.090 C 
ATOM     22  N   UNL     1       1.821  -1.222   0.614  0.00  0.00    -0.270 N 
ATOM     23  N   UNL     1       0.778  -0.516   1.149  0.00  0.00    -0.233 NA
ATOM     24  H   UNL     1       0.207  -1.103   1.739  0.00  0.00    +0.145 HD
BRANCH  22  25
ATOM     25  C   UNL     1       2.849  -1.907   1.401  0.00  0.00    +0.150 C 
BRANCH  25  26
ATOM     26  C   UNL     1       2.465  -3.353   1.579  0.00  0.00    -0.014 C 
ATOM     27  C   UNL     1       3.296  -4.300   1.219  0.00  0.00    +0.005 C 
ENDBRANCH  25  26
ENDBRANCH  22  25
ENDBRANCH  17  20
ENDBRANCH   1  17
TORSDOF 4
