REMARK  Name = ZINC24230696
REMARK  8 active torsions:
REMARK  status: ('A' for Active; 'I' for Inactive)
REMARK    1  A    between atoms: C_1  and  C_2
REMARK    2  A    between atoms: C_5  and  N_8
REMARK    3  A    between atoms: C_12  and  C_14
REMARK    4  A    between atoms: C_14  and  C_16
REMARK    5  A    between atoms: C_14  and  N_17
REMARK    6  A    between atoms: N_20  and  C_23
REMARK    7  A    between atoms: C_28  and  O_29
REMARK    8  A    between atoms: O_29  and  C_30
REMARK                            x       y       z     vdW  Elec       q    Type
REMARK                         _______ _______ _______ _____ _____    ______ ____
ROOT
ATOM      1  C   UNL     1       3.618  -6.213  -0.496  0.00  0.00    +0.017 C 
ATOM      2  C   UNL     1       2.827  -6.658  -1.728  0.00  0.00    -0.004 C 
ENDROOT
BRANCH   1   7
ATOM      3  N   UNL     1       1.239  -2.053  -0.102  0.00  0.00    -0.269 N 
ATOM      4  C   UNL     1       2.412  -2.708  -0.213  0.00  0.00    +0.310 C 
ATOM      5  O   UNL     1       3.456  -2.086  -0.241  0.00  0.00    -0.252 OA
ATOM      6  N   UNL     1       2.428  -4.053  -0.294  0.00  0.00    -0.241 N 
ATOM      7  C   UNL     1       3.600  -4.708  -0.406  0.00  0.00    +0.207 C 
ATOM      8  O   UNL     1       4.641  -4.087  -0.433  0.00  0.00    -0.277 OA
ATOM      9  H   UNL     1       0.302  -2.618   0.010  0.00  0.00    +0.156 HD
ATOM     10  H   UNL     1       1.483  -4.617  -0.270  0.00  0.00    +0.159 HD
BRANCH   3  15
ATOM     11  C   UNL     1       1.135   3.618  -0.216  0.00  0.00    +0.044 C 
ATOM     12  C   UNL     1       1.163   2.111  -0.186  0.00  0.00    -0.050 A 
ATOM     13  C   UNL     1       2.104   1.424  -0.930  0.00  0.00    +0.005 A 
ATOM     14  C   UNL     1       2.132   0.043  -0.904  0.00  0.00    +0.023 A 
ATOM     15  C   UNL     1       1.214  -0.654  -0.130  0.00  0.00    +0.035 A 
ATOM     16  C   UNL     1       0.270   0.039   0.616  0.00  0.00    +0.023 A 
ATOM     17  C   UNL     1       0.247   1.420   0.586  0.00  0.00    +0.005 A 
ENDBRANCH   3  15
ENDBRANCH   1   7
BRANCH   1  18
ATOM     18  N   UNL     1       5.005  -6.680  -0.609  0.00  0.00    +0.389 N 
ATOM     19  C   UNL     1       5.642  -6.151  -1.824  0.00  0.00    -0.059 C 
ATOM     20  C   UNL     1       7.106  -6.595  -1.864  0.00  0.00    +0.086 C 
ATOM     21  N   UNL     1       7.171  -8.063  -1.835  0.00  0.00    -0.331 N 
ATOM     22  C   UNL     1       6.535  -8.592  -0.621  0.00  0.00    +0.086 C 
ATOM     23  C   UNL     1       5.071  -8.148  -0.581  0.00  0.00    -0.059 C 
ATOM     24  H   UNL     1       5.561  -6.298   0.260  0.00  0.00    -0.081 HD
BRANCH  21  25
ATOM     25  C   UNL     1       8.494  -8.509  -1.943  0.00  0.00    +0.072 A 
ATOM     26  C   UNL     1       9.542  -7.606  -1.848  0.00  0.00    +0.027 A 
ATOM     27  C   UNL     1      10.847  -8.049  -1.950  0.00  0.00    +0.002 A 
ATOM     28  C   UNL     1      11.111  -9.390  -2.156  0.00  0.00    +0.004 A 
ATOM     29  C   UNL     1      10.071 -10.296  -2.258  0.00  0.00    +0.047 A 
ATOM     30  C   UNL     1       8.760  -9.860  -2.152  0.00  0.00    +0.141 A 
BRANCH  30  31
ATOM     31  O   UNL     1       7.736 -10.750  -2.252  0.00  0.00    -0.493 OA
ATOM     32  C   UNL     1       8.085 -12.119  -2.466  0.00  0.00    +0.277 C 
ENDBRANCH  30  31
ENDBRANCH  21  25
ENDBRANCH   1  18
TORSDOF 5
