REMARK  Name = ZINC31935041
REMARK  5 active torsions:
REMARK  status: ('A' for Active; 'I' for Inactive)
REMARK    1  A    between atoms: C_1  and  C_2
REMARK    2  A    between atoms: C_2  and  C_4
REMARK    3  A    between atoms: C_2  and  C_6
REMARK    4  A    between atoms: C_4  and  N_5
REMARK    5  A    between atoms: C_7  and  C_16
REMARK                            x       y       z     vdW  Elec       q    Type
REMARK                         _______ _______ _______ _____ _____    ______ ____
ROOT
ATOM      1  C   UNL     1      -2.227  -0.432  -1.314  0.00  0.00    +0.052 A 
ATOM      2  C   UNL     1      -1.682  -0.709  -2.532  0.00  0.00    +0.093 A 
ATOM      3  N   UNL     1      -2.374  -0.038  -3.466  0.00  0.00    -0.228 NA
ATOM      4  C   UNL     1      -3.338   0.654  -2.878  0.00  0.00    +0.139 A 
ATOM      5  N   UNL     1      -3.274   0.421  -1.528  0.00  0.00    -0.301 N 
ATOM      6  C   UNL     1      -4.167   1.013  -0.680  0.00  0.00    +0.113 A 
ATOM      7  C   UNL     1      -5.127   1.833  -1.157  0.00  0.00    +0.058 A 
ATOM      8  C   UNL     1      -5.221   2.089  -2.536  0.00  0.00    +0.025 A 
ATOM      9  C   UNL     1      -4.334   1.512  -3.390  0.00  0.00    +0.048 A 
ATOM     10 CL   UNL     1      -6.252   2.575  -0.062  0.00  0.00    -0.082 Cl
ENDROOT
BRANCH   2  11
ATOM     11  C   UNL     1      -0.522  -1.600  -2.782  0.00  0.00    +0.006 A 
ATOM     12  C   UNL     1       0.591  -1.549  -1.945  0.00  0.00    +0.014 A 
ATOM     13  C   UNL     1       1.669  -2.378  -2.178  0.00  0.00    +0.050 A 
ATOM     14  C   UNL     1       1.650  -3.264  -3.244  0.00  0.00    +0.166 A 
ATOM     15  C   UNL     1       0.539  -3.320  -4.085  0.00  0.00    +0.167 A 
ATOM     16  C   UNL     1      -0.546  -2.493  -3.851  0.00  0.00    +0.059 A 
ATOM     17  O   UNL     1       0.766  -4.261  -5.046  0.00  0.00    -0.453 OA
ATOM     18  C   UNL     1       1.850  -5.068  -4.546  0.00  0.00    +0.466 C 
ATOM     19  O   UNL     1       2.572  -4.172  -3.681  0.00  0.00    -0.453 OA
ENDBRANCH   2  11
BRANCH   1  21
ATOM     20  C   UNL     1      -1.342   0.192   0.916  0.00  0.00    +0.012 C 
ATOM     21  C   UNL     1      -1.767  -0.970   0.016  0.00  0.00    +0.018 C 
BRANCH  21  22
ATOM     22  C   UNL     1      -2.913  -1.736   0.680  0.00  0.00    -0.077 C 
BRANCH  22  23
ATOM     23  N   UNL     1      -3.239  -2.922  -0.122  0.00  0.00    +0.379 N 
ATOM     24  H   UNL     1      -4.063  -3.473   0.355  0.00  0.00    -0.090 HD
ATOM     25  H   UNL     1      -2.355  -3.572  -0.192  0.00  0.00    -0.090 HD
ATOM     26  H   UNL     1      -3.544  -2.609  -1.132  0.00  0.00    -0.090 HD
ENDBRANCH  22  23
ENDBRANCH  21  22
ENDBRANCH   1  21
TORSDOF 4
