REMARK  Name = ZINC40509573
REMARK  7 active torsions:
REMARK  status: ('A' for Active; 'I' for Inactive)
REMARK    1  A    between atoms: C_1  and  C_2
REMARK    2  A    between atoms: C_4  and  C_21
REMARK    3  A    between atoms: C_6  and  O_10
REMARK    4  A    between atoms: C_7  and  C_8
REMARK    5  A    between atoms: C_8  and  N_9
REMARK    6  A    between atoms: O_10  and  C_11
REMARK    7  A    between atoms: C_16  and  C_17
REMARK                            x       y       z     vdW  Elec       q    Type
REMARK                         _______ _______ _______ _____ _____    ______ ____
ROOT
ATOM      1  C   UNL     1       0.104   1.496  -0.002  0.00  0.00    +0.044 C 
ATOM      2  C   UNL     1       0.116  -0.011  -0.005  0.00  0.00    -0.042 A 
ATOM      3  C   UNL     1       0.166  -0.718  -1.199  0.00  0.00    +0.026 A 
ATOM      4  C   UNL     1       0.176  -2.098  -1.167  0.00  0.00    +0.042 A 
ATOM      5  N   UNL     1       0.138  -2.748  -0.019  0.00  0.00    -0.218 NA
ATOM      6  C   UNL     1       0.089  -2.110   1.138  0.00  0.00    +0.222 A 
ATOM      7  C   UNL     1       0.082  -0.721   1.181  0.00  0.00    +0.000 A 
ATOM      8  C   UNL     1       0.230  -2.872  -2.459  0.00  0.00    +0.066 C 
ENDROOT
BRANCH   7   9
ATOM      9  C   UNL     1       0.033   0.002   2.503  0.00  0.00    -0.045 C 
BRANCH   9  10
ATOM     10  N   UNL     1      -1.367   0.225   2.887  0.00  0.00    +0.381 N 
ATOM     11  H   UNL     1      -1.839  -0.663   2.971  0.00  0.00    -0.090 HD
ATOM     12  H   UNL     1      -1.400   0.709   3.772  0.00  0.00    -0.090 HD
ATOM     13  H   UNL     1      -1.824   0.783   2.181  0.00  0.00    -0.090 HD
ENDBRANCH   9  10
ENDBRANCH   7   9
BRANCH   6  14
ATOM     14  O   UNL     1       0.051  -2.818   2.295  0.00  0.00    -0.437 OA
BRANCH  14  15
ATOM     15  C   UNL     1      -0.036  -4.172   2.211  0.00  0.00    +0.142 A 
ATOM     16  C   UNL     1      -1.278  -4.791   2.228  0.00  0.00    +0.047 A 
ATOM     17  C   UNL     1      -1.364  -6.167   2.143  0.00  0.00    +0.004 A 
ATOM     18  C   UNL     1      -0.213  -6.927   2.040  0.00  0.00    +0.001 A 
ATOM     19  C   UNL     1       1.025  -6.313   2.023  0.00  0.00    +0.016 A 
ATOM     20  C   UNL     1       1.116  -4.937   2.102  0.00  0.00    +0.097 A 
BRANCH  20  21
ATOM     21  C   UNL     1       2.466  -4.268   2.077  0.00  0.00    +0.421 C 
ATOM     22  F   UNL     1       3.466  -5.239   1.962  0.00  0.00    -0.166 F 
ATOM     23  F   UNL     1       2.534  -3.397   0.984  0.00  0.00    -0.166 F 
ATOM     24  F   UNL     1       2.651  -3.545   3.261  0.00  0.00    -0.166 F 
ENDBRANCH  20  21
ENDBRANCH  14  15
ENDBRANCH   6  14
TORSDOF 5
