REMARK  Name = ZINC05034471
REMARK  4 active torsions:
REMARK  status: ('A' for Active; 'I' for Inactive)
REMARK    1  A    between atoms: C_4  and  C_7
REMARK    2  A    between atoms: C_7  and  O_9
REMARK    3  A    between atoms: O_9  and  C_10
REMARK    4  A    between atoms: C_10  and  O_21
REMARK                            x       y       z     vdW  Elec       q    Type
REMARK                         _______ _______ _______ _____ _____    ______ ____
ROOT
ATOM      1  C   UNL     1      -0.025   1.107  -2.489  0.00  0.00    +0.213 C 
ATOM      2  C   UNL     1       1.390   1.691  -2.507  0.00  0.00    +0.060 C 
ATOM      3  C   UNL     1       1.308   3.218  -2.458  0.00  0.00    -0.076 C 
ATOM      4  C   UNL     1      -0.774   3.123  -1.222  0.00  0.00    -0.063 C 
ATOM      5  C   UNL     1      -0.752   1.593  -1.232  0.00  0.00    +0.047 C 
ATOM      6  C   UNL     1      -0.013   1.086   0.008  0.00  0.00    +0.008 C 
ATOM      7  C   UNL     1      -0.729   1.579   1.267  0.00  0.00    +0.000 C 
ATOM      8  C   UNL     1      -0.748   3.109   1.276  0.00  0.00    -0.002 C 
ATOM      9  C   UNL     1      -1.489   3.616   0.037  0.00  0.00    -0.015 C 
ATOM     10  N   UNL     1       0.607   3.640  -1.230  0.00  0.00    +0.381 N 
ATOM     11  H   UNL     1       0.585   4.665  -1.188  0.00  0.00    -0.086 HD
ATOM     12  H   UNL     1       1.109   3.275  -0.411  0.00  0.00    -0.086 HD
ENDROOT
BRANCH   1  13
ATOM     13  O   UNL     1      -0.736   1.542  -3.650  0.00  0.00    -0.355 OA
ATOM     14  H   UNL     1      -0.331   1.269  -4.485  0.00  0.00    +0.214 HD
ENDBRANCH   1  13
BRANCH   1  15
ATOM     15  O   UNL     1       0.047  -0.343  -2.478  0.00  0.00    -0.429 OA
BRANCH  15  16
ATOM     16  C   UNL     1       0.661  -0.932  -3.523  0.00  0.00    +0.342 C 
ATOM     17  O   UNL     1       1.123  -0.254  -4.418  0.00  0.00    -0.245 OA
BRANCH  16  21
ATOM     18  C   UNL     1       0.984  -5.164  -3.684  0.00  0.00    +0.000 A 
ATOM     19  C   UNL     1       1.510  -4.394  -4.706  0.00  0.00    +0.001 A 
ATOM     20  C   UNL     1       1.409  -3.019  -4.660  0.00  0.00    +0.015 A 
ATOM     21  C   UNL     1       0.773  -2.405  -3.579  0.00  0.00    +0.059 A 
ATOM     22  C   UNL     1       0.248  -3.188  -2.549  0.00  0.00    +0.015 A 
ATOM     23  C   UNL     1       0.352  -4.562  -2.610  0.00  0.00    +0.001 A 
ENDBRANCH  16  21
ENDBRANCH  15  16
ENDBRANCH   1  15
TORSDOF 4
