REMARK  Name = ZINC12498360
REMARK  12 active torsions:
REMARK  status: ('A' for Active; 'I' for Inactive)
REMARK    1  A    between atoms: C_1  and  C_2
REMARK    2  A    between atoms: C_2  and  C_3
REMARK    3  A    between atoms: C_3  and  C_4
REMARK    4  A    between atoms: C_4  and  C_35
REMARK    5  A    between atoms: C_9  and  C_11
REMARK    6  A    between atoms: C_14  and  O_19
REMARK    7  A    between atoms: C_16  and  O_17
REMARK    8  A    between atoms: O_17  and  C_18
REMARK    9  A    between atoms: O_19  and  C_20
REMARK   10  A    between atoms: N_23  and  C_26
REMARK   11  A    between atoms: C_35  and  O_37
REMARK   12  A    between atoms: O_37  and  C_38
REMARK                            x       y       z     vdW  Elec       q    Type
REMARK                         _______ _______ _______ _____ _____    ______ ____
ROOT
ATOM      1  C   UNL     1       4.481  -2.950  -0.558  0.00  0.00    +0.044 C 
ATOM      2  C   UNL     1       5.333  -1.917  -1.199  0.00  0.00    +0.086 C 
ATOM      3  C   UNL     1       4.284  -0.759  -1.433  0.00  0.00    +0.077 C 
ATOM      4  C   UNL     1       3.709  -0.716  -0.037  0.00  0.00    -0.023 C 
ATOM      5  C   UNL     1       5.199   0.235  -2.037  0.00  0.00    +0.229 C 
ATOM      6  O   UNL     1       5.170   1.440  -1.901  0.00  0.00    -0.275 OA
ATOM      7  N   UNL     1       6.088  -0.496  -2.781  0.00  0.00    -0.210 N 
ATOM      8  C   UNL     1       6.069  -1.830  -2.461  0.00  0.00    +0.229 C 
ATOM      9  O   UNL     1       6.548  -2.748  -3.092  0.00  0.00    -0.275 OA
ATOM     10  N   UNL     1       3.515  -2.166   0.264  0.00  0.00    +0.395 N 
ATOM     11  H   UNL     1       3.687  -2.340   1.261  0.00  0.00    -0.083 HD
ATOM     12  H   UNL     1       2.554  -2.444   0.029  0.00  0.00    -0.083 HD
ENDROOT
BRANCH   7  13
ATOM     13  C   UNL     1       6.924   0.059  -3.761  0.00  0.00    +0.048 A 
ATOM     14  C   UNL     1       7.801  -0.754  -4.467  0.00  0.00    +0.028 A 
ATOM     15  C   UNL     1       8.622  -0.210  -5.436  0.00  0.00    +0.051 A 
ATOM     16  C   UNL     1       8.580   1.149  -5.700  0.00  0.00    +0.166 A 
ATOM     17  C   UNL     1       7.705   1.969  -4.990  0.00  0.00    +0.168 A 
ATOM     18  C   UNL     1       6.879   1.421  -4.022  0.00  0.00    +0.073 A 
ATOM     19  O   UNL     1       7.854   3.252  -5.431  0.00  0.00    -0.453 OA
ATOM     20  C   UNL     1       8.531   3.147  -6.697  0.00  0.00    +0.466 C 
ATOM     21  O   UNL     1       9.277   1.921  -6.586  0.00  0.00    -0.453 OA
ENDBRANCH   7  13
BRANCH   4  22
ATOM     22  C   UNL     1       2.396   0.024  -0.021  0.00  0.00    -0.019 A 
ATOM     23  C   UNL     1       1.207  -0.680  -0.013  0.00  0.00    +0.009 A 
ATOM     24  C   UNL     1       0.002  -0.004   0.002  0.00  0.00    +0.046 A 
ATOM     25  C   UNL     1      -0.017   1.384   0.010  0.00  0.00    +0.124 A 
ATOM     26  C   UNL     1       1.175   2.092   0.002  0.00  0.00    +0.091 A 
ATOM     27  C   UNL     1       2.383   1.412  -0.013  0.00  0.00    +0.125 A 
BRANCH  27  28
ATOM     28  O   UNL     1       3.553   2.103  -0.020  0.00  0.00    -0.495 OA
ATOM     29  C   UNL     1       3.463   3.529  -0.012  0.00  0.00    +0.277 C 
ENDBRANCH  27  28
BRANCH  25  30
ATOM     30  O   UNL     1      -1.202   2.048   0.019  0.00  0.00    -0.495 OA
ATOM     31  C   UNL     1      -2.391   1.254   0.020  0.00  0.00    +0.277 C 
ENDBRANCH  25  30
ENDBRANCH   4  22
BRANCH   1  32
ATOM     32  C   UNL     1       3.757  -3.758  -1.604  0.00  0.00    +0.297 C 
ATOM     33  O   UNL     1       4.215  -3.853  -2.718  0.00  0.00    -0.252 OA
BRANCH  32  34
ATOM     34  O   UNL     1       2.603  -4.372  -1.298  0.00  0.00    -0.469 OA
ATOM     35  C   UNL     1       1.961  -5.133  -2.355  0.00  0.00    +0.280 C 
ENDBRANCH  32  34
ENDBRANCH   1  32
BRANCH   1  36
ATOM     36  C   UNL     1       5.328  -3.865   0.330  0.00  0.00    -0.001 C 
BRANCH  36  38
ATOM     37  C   UNL     1       5.276  -5.834   1.866  0.00  0.00    +0.004 C 
ATOM     38  C   UNL     1       4.429  -4.920   0.979  0.00  0.00    -0.004 C 
ENDBRANCH  36  38
ENDBRANCH   1  36
TORSDOF 8
