REMARK  Name = ZINC35501382
REMARK  4 active torsions:
REMARK  status: ('A' for Active; 'I' for Inactive)
REMARK    1  A    between atoms: C_1  and  N_2
REMARK    2  A    between atoms: N_2  and  C_3
REMARK    3  A    between atoms: C_3  and  C_5
REMARK    4  A    between atoms: C_3  and  C_16
REMARK                            x       y       z     vdW  Elec       q    Type
REMARK                         _______ _______ _______ _____ _____    ______ ____
ROOT
ATOM      1  C   UNL     1       0.713  -0.491   1.192  0.00  0.00    -0.037 C 
ENDROOT
BRANCH   1   2
ATOM      2  C   UNL     1      -0.059  -0.109   2.429  0.00  0.00    -0.039 A 
ATOM      3  C   UNL     1      -1.423   0.102   2.353  0.00  0.00    +0.052 A 
ATOM      4  C   UNL     1      -2.136   0.452   3.490  0.00  0.00    +0.162 A 
ATOM      5  C   UNL     1      -1.477   0.588   4.706  0.00  0.00    +0.163 A 
ATOM      6  C   UNL     1      -0.108   0.376   4.776  0.00  0.00    +0.069 A 
ATOM      7  C   UNL     1       0.597   0.023   3.639  0.00  0.00    +0.046 A 
ATOM      8 CL   UNL     1       2.309  -0.249   3.731  0.00  0.00    -0.083 Cl
ATOM      9  O   UNL     1      -2.159   0.923   5.835  0.00  0.00    -0.485 OA
ATOM     10  C   UNL     1      -3.461   1.490   5.655  0.00  0.00    +0.270 C 
ATOM     11  C   UNL     1      -4.218   0.641   4.624  0.00  0.00    +0.270 C 
ATOM     12  O   UNL     1      -3.478   0.661   3.398  0.00  0.00    -0.485 OA
ENDBRANCH   1   2
BRANCH   1  13
ATOM     13  C   UNL     1       0.842  -2.014   1.121  0.00  0.00    -0.021 C 
ATOM     14  C   UNL     1      -0.551  -2.642   1.067  0.00  0.00    +0.002 C 
ATOM     15  C   UNL     1      -0.421  -4.165   0.996  0.00  0.00    +0.000 C 
ATOM     16  C   UNL     1       0.319  -4.672   2.236  0.00  0.00    +0.000 C 
ATOM     17  C   UNL     1       1.712  -4.043   2.290  0.00  0.00    +0.000 C 
ATOM     18  C   UNL     1       1.582  -2.520   2.361  0.00  0.00    +0.002 C 
ENDBRANCH   1  13
BRANCH   1  20
ATOM     19  C   UNL     1      -0.018   1.465   0.010  0.00  0.00    -0.100 C 
ATOM     20  N   UNL     1       0.002  -0.004   0.002  0.00  0.00    +0.382 N 
ATOM     21  H   UNL     1      -0.945  -0.353   0.009  0.00  0.00    -0.085 HD
ATOM     22  H   UNL     1       0.474  -0.330  -0.828  0.00  0.00    -0.085 HD
ENDBRANCH   1  20
TORSDOF 3
