REMARK  Name = ZINC43090603
REMARK  6 active torsions:
REMARK  status: ('A' for Active; 'I' for Inactive)
REMARK    1  A    between atoms: C_1  and  C_2
REMARK    2  A    between atoms: C_2  and  C_3
REMARK    3  A    between atoms: C_3  and  C_5
REMARK    4  A    between atoms: C_3  and  N_21
REMARK    5  A    between atoms: C_5  and  C_7
REMARK    6  A    between atoms: C_5  and  N_14
REMARK                            x       y       z     vdW  Elec       q    Type
REMARK                         _______ _______ _______ _____ _____    ______ ____
ROOT
ATOM      1  C   UNL     1      -1.423  -2.042  -0.246  0.00  0.00    +0.074 C 
ENDROOT
BRANCH   1   2
ATOM      2  N   UNL     1      -0.770  -2.272  -1.542  0.00  0.00    -0.287 NA
ATOM      3  C   UNL     1      -1.482  -1.572  -2.623  0.00  0.00    +0.104 C 
ATOM      4  C   UNL     1      -0.606  -1.585  -3.877  0.00  0.00    +0.119 C 
ATOM      5  N   UNL     1      -0.141  -2.942  -4.150  0.00  0.00    -0.313 N 
ATOM      6  C   UNL     1      -0.154  -3.913  -3.231  0.00  0.00    +0.227 C 
ATOM      7  O   UNL     1       0.279  -5.005  -3.533  0.00  0.00    -0.274 OA
ATOM      8  C   UNL     1      -0.682  -3.708  -1.839  0.00  0.00    +0.181 C 
ATOM      9  H   UNL     1       0.191  -3.148  -5.037  0.00  0.00    +0.149 HD
ENDBRANCH   1   2
BRANCH   1  10
ATOM     10  C   UNL     1      -0.654  -2.753   0.838  0.00  0.00    -0.018 A 
ATOM     11  C   UNL     1       0.720  -2.878   0.742  0.00  0.00    +0.006 A 
ATOM     12  C   UNL     1       1.425  -3.530   1.736  0.00  0.00    +0.000 A 
ATOM     13  C   UNL     1       0.758  -4.057   2.826  0.00  0.00    +0.001 A 
ATOM     14  C   UNL     1      -0.615  -3.932   2.923  0.00  0.00    +0.015 A 
ATOM     15  C   UNL     1      -1.321  -3.275   1.931  0.00  0.00    +0.022 A 
ATOM     16 BR   UNL     1      -3.199  -3.097   2.066  0.00  0.00    -0.050 Br
ENDBRANCH   1  10
BRANCH   1  17
ATOM     17  C   UNL     1      -1.452  -0.541   0.051  0.00  0.00    -0.053 C 
BRANCH  17  18
ATOM     18  N   UNL     1      -2.024  -0.316   1.385  0.00  0.00    +0.381 N 
ATOM     19  H   UNL     1      -1.458  -0.785   2.077  0.00  0.00    -0.090 HD
ATOM     20  H   UNL     1      -2.043   0.673   1.580  0.00  0.00    -0.090 HD
ATOM     21  H   UNL     1      -2.963  -0.683   1.414  0.00  0.00    -0.090 HD
ENDBRANCH  17  18
BRANCH  17  23
ATOM     22  C   UNL     1      -0.069   1.537   0.163  0.00  0.00    +0.002 C 
ATOM     23  C   UNL     1      -0.027   0.016   0.006  0.00  0.00    -0.018 C 
ENDBRANCH  17  23
ENDBRANCH   1  17
TORSDOF 5
