REMARK  Name = ZINC13756013
REMARK  8 active torsions:
REMARK  status: ('A' for Active; 'I' for Inactive)
REMARK    1  A    between atoms: C_4  and  C_7
REMARK    2  A    between atoms: C_7  and  N_8
REMARK    3  A    between atoms: C_15  and  C_27
REMARK    4  A    between atoms: C_17  and  C_23
REMARK    5  A    between atoms: C_17  and  C_25
REMARK    6  A    between atoms: C_18  and  N_22
REMARK    7  A    between atoms: C_19  and  C_20
REMARK    8  A    between atoms: C_29  and  N_32
REMARK                            x       y       z     vdW  Elec       q    Type
REMARK                         _______ _______ _______ _____ _____    ______ ____
ROOT
ATOM      1  N   UNL     1       3.305   3.756  -0.878  0.00  0.00    -0.294 NA
ATOM      2  C   UNL     1       3.659   2.402  -0.415  0.00  0.00    +0.112 C 
ATOM      3  C   UNL     1       2.385   1.597  -0.312  0.00  0.00    -0.006 C 
ATOM      4  C   UNL     1       1.252   2.197   0.002  0.00  0.00    -0.026 C 
ATOM      5  C   UNL     1       1.170   3.654   0.358  0.00  0.00    +0.045 C 
ATOM      6  C   UNL     1       2.448   4.420   0.108  0.00  0.00    +0.094 C 
ATOM      7  C   UNL     1      -0.006   4.264  -0.406  0.00  0.00    +0.074 C 
ATOM      8  C   UNL     1      -1.300   3.594   0.060  0.00  0.00    +0.189 C 
ATOM      9  C   UNL     1      -1.197   2.099   0.019  0.00  0.00    +0.054 C 
ATOM     10  C   UNL     1      -0.017   1.428   0.010  0.00  0.00    +0.074 C 
ENDROOT
BRANCH   7  11
ATOM     11  C   UNL     1       0.179   4.036  -1.884  0.00  0.00    -0.001 A 
ATOM     12  C   UNL     1       0.278   4.947  -2.882  0.00  0.00    +0.044 A 
ATOM     13  C   UNL     1       0.452   4.503  -4.180  0.00  0.00    +0.133 A 
ATOM     14  C   UNL     1       0.507   3.170  -4.417  0.00  0.00    +0.078 A 
ATOM     15  S   UNL     1       0.318   2.495  -2.775  0.00  0.00    -0.099 S 
BRANCH  13  16
ATOM     16  N   UNL     1       0.570   5.470  -5.295  0.00  0.00    +0.057 N 
ATOM     17  O   UNL     1       0.717   5.069  -6.436  0.00  0.00    -0.126 OA
ATOM     18  O   UNL     1       0.519   6.666  -5.072  0.00  0.00    -0.126 OA
ENDBRANCH  13  16
ENDBRANCH   7  11
BRANCH   9  19
ATOM     19  N   UNL     1      -2.354   1.373  -0.004  0.00  0.00    -0.358 N 
ATOM     20  H   UNL     1      -2.313   0.274  -0.034  0.00  0.00    +0.142 HD
ATOM     21  H   UNL     1      -3.327   1.887   0.007  0.00  0.00    +0.142 HD
ENDBRANCH   9  19
BRANCH  10  22
ATOM     22  C   UNL     1       0.002  -0.004   0.002  0.00  0.00    +0.101 C 
ATOM     23  N   UNL     1       0.018  -1.140  -0.004  0.00  0.00    -0.191 NA
ENDBRANCH  10  22
BRANCH   8  24
ATOM     24  C   UNL     1      -1.592   4.023   1.437  0.00  0.00    +0.091 C 
ATOM     25  N   UNL     1      -1.818   4.353   2.500  0.00  0.00    -0.194 NA
ENDBRANCH   8  24
BRANCH   8  26
ATOM     26  C   UNL     1      -2.402   4.018  -0.818  0.00  0.00    +0.091 C 
ATOM     27  N   UNL     1      -3.253   4.346  -1.496  0.00  0.00    -0.194 NA
ENDBRANCH   8  26
BRANCH   1  28
ATOM     28  C   UNL     1       4.509   4.551  -1.150  0.00  0.00    +0.120 C 
BRANCH  28  32
ATOM     29  C   UNL     1       7.247   2.240  -3.477  0.00  0.00    +0.000 A 
ATOM     30  C   UNL     1       6.302   3.030  -4.104  0.00  0.00    +0.000 A 
ATOM     31  C   UNL     1       5.416   3.778  -3.352  0.00  0.00    +0.005 A 
ATOM     32  C   UNL     1       5.475   3.736  -1.971  0.00  0.00    -0.033 A 
ATOM     33  C   UNL     1       6.423   2.950  -1.344  0.00  0.00    +0.005 A 
ATOM     34  C   UNL     1       7.306   2.198  -2.096  0.00  0.00    +0.000 A 
ENDBRANCH  28  32
ENDBRANCH   1  28
TORSDOF 8
