REMARK  Name = ZINC12348033
REMARK  5 active torsions:
REMARK  status: ('A' for Active; 'I' for Inactive)
REMARK    1  A    between atoms: C_4  and  N_7
REMARK    2  A    between atoms: C_17  and  C_19
REMARK    3  A    between atoms: C_22  and  O_25
REMARK    4  A    between atoms: O_25  and  C_26
REMARK    5  A    between atoms: C_26  and  C_27
REMARK                            x       y       z     vdW  Elec       q    Type
REMARK                         _______ _______ _______ _____ _____    ______ ____
ROOT
ATOM      1  N   UNL     1       3.621  -0.650  -0.037  0.00  0.00    -0.218 N 
ATOM      2  C   UNL     1       3.782  -1.992  -0.051  0.00  0.00    +0.278 A 
ATOM      3  O   UNL     1       2.889  -2.821  -0.053  0.00  0.00    -0.265 OA
ATOM      4  C   UNL     1       5.151  -2.258  -0.065  0.00  0.00    +0.070 A 
ATOM      5  C   UNL     1       5.818  -1.059  -0.061  0.00  0.00    +0.125 A 
ATOM      6  N   UNL     1       4.895  -0.060  -0.048  0.00  0.00    -0.277 N 
ATOM      7  H   UNL     1       5.084   0.892  -0.043  0.00  0.00    +0.189 HD
ATOM      8  N   UNL     1       7.191  -1.002  -0.079  0.00  0.00    -0.303 N 
ATOM      9  C   UNL     1       7.896  -2.139  -0.400  0.00  0.00    +0.017 C 
ATOM     10  C   UNL     1       7.326  -3.361  -0.423  0.00  0.00    +0.024 C 
ATOM     11  C   UNL     1       5.868  -3.579  -0.079  0.00  0.00    +0.092 C 
ATOM     12  C   UNL     1       8.072  -4.501  -0.778  0.00  0.00    +0.162 C 
ATOM     13  O   UNL     1       7.531  -5.589  -0.774  0.00  0.00    -0.292 OA
ATOM     14  C   UNL     1       9.522  -4.404  -1.160  0.00  0.00    +0.080 C 
ATOM     15  C   UNL     1       9.788  -3.017  -1.753  0.00  0.00    +0.014 C 
ATOM     16  C   UNL     1       9.362  -1.966  -0.727  0.00  0.00    +0.051 C 
ATOM     17  H   UNL     1       7.654  -0.176   0.131  0.00  0.00    +0.153 HD
ENDROOT
BRANCH   1  21
ATOM     18  C   UNL     1      -0.017   1.379   0.010  0.00  0.00    +0.000 A 
ATOM     19  C   UNL     1       1.170   2.089   0.002  0.00  0.00    +0.002 A 
ATOM     20  C   UNL     1       2.377   1.420  -0.013  0.00  0.00    +0.028 A 
ATOM     21  C   UNL     1       2.400   0.031  -0.021  0.00  0.00    +0.067 A 
ATOM     22  C   UNL     1       1.206  -0.680  -0.013  0.00  0.00    +0.028 A 
ATOM     23  C   UNL     1       0.002  -0.004   0.002  0.00  0.00    +0.002 A 
ENDBRANCH   1  21
BRANCH  11  24
ATOM     24  C   UNL     1       5.764  -4.221   1.281  0.00  0.00    -0.035 A 
ATOM     25  C   UNL     1       6.271  -3.571   2.391  0.00  0.00    +0.008 A 
ATOM     26  C   UNL     1       6.178  -4.158   3.638  0.00  0.00    +0.046 A 
ATOM     27  C   UNL     1       5.574  -5.399   3.776  0.00  0.00    +0.121 A 
ATOM     28  C   UNL     1       5.066  -6.049   2.661  0.00  0.00    +0.046 A 
ATOM     29  C   UNL     1       5.157  -5.456   1.417  0.00  0.00    +0.008 A 
BRANCH  27  30
ATOM     30  O   UNL     1       5.482  -5.979   5.002  0.00  0.00    -0.481 OA
BRANCH  30  31
ATOM     31  C   UNL     1       4.848  -7.258   5.069  0.00  0.00    +0.353 C 
BRANCH  31  32
ATOM     32  C   UNL     1       4.837  -7.739   6.497  0.00  0.00    +0.393 C 
ATOM     33  O   UNL     1       5.327  -7.050   7.376  0.00  0.00    -0.243 OA
ATOM     34  O   UNL     1       4.339  -8.817   6.774  0.00  0.00    -0.243 OA
ENDBRANCH  31  32
ENDBRANCH  30  31
ENDBRANCH  27  30
ENDBRANCH  11  24
TORSDOF 5
