REMARK  Name = ZINC04227428
REMARK  5 active torsions:
REMARK  status: ('A' for Active; 'I' for Inactive)
REMARK    1  A    between atoms: C_1  and  C_2
REMARK    2  A    between atoms: C_5  and  C_8
REMARK    3  A    between atoms: C_11  and  O_14
REMARK    4  A    between atoms: O_14  and  C_15
REMARK    5  A    between atoms: C_15  and  C_16
REMARK                            x       y       z     vdW  Elec       q    Type
REMARK                         _______ _______ _______ _____ _____    ______ ____
ROOT
ATOM      1  C   UNL     1      -4.714   5.145   1.942  0.00  0.00    -0.018 A 
ATOM      2  C   UNL     1      -4.049   4.602   3.040  0.00  0.00    +0.012 A 
ATOM      3  C   UNL     1      -2.991   3.739   2.846  0.00  0.00    +0.046 A 
ATOM      4  C   UNL     1      -2.588   3.411   1.559  0.00  0.00    +0.121 A 
ATOM      5  C   UNL     1      -3.245   3.954   0.463  0.00  0.00    +0.046 A 
ATOM      6  C   UNL     1      -4.307   4.814   0.651  0.00  0.00    +0.012 A 
ENDROOT
BRANCH   1  11
ATOM      7  C   UNL     1      -9.132   8.753   2.738  0.00  0.00    +0.044 C 
ATOM      8  C   UNL     1      -7.975   7.809   2.530  0.00  0.00    -0.050 A 
ATOM      9  C   UNL     1      -7.575   7.483   1.247  0.00  0.00    +0.004 A 
ATOM     10  C   UNL     1      -6.517   6.619   1.050  0.00  0.00    +0.009 A 
ATOM     11  C   UNL     1      -5.852   6.075   2.147  0.00  0.00    -0.018 A 
ATOM     12  C   UNL     1      -6.263   6.402   3.438  0.00  0.00    +0.009 A 
ATOM     13  C   UNL     1      -7.319   7.272   3.623  0.00  0.00    +0.004 A 
ENDBRANCH   1  11
BRANCH   4  14
ATOM     14  O   UNL     1      -1.546   2.560   1.371  0.00  0.00    -0.485 OA
BRANCH  14  15
ATOM     15  C   UNL     1      -1.183   2.266   0.020  0.00  0.00    +0.293 C 
BRANCH  15  16
ATOM     16  C   UNL     1      -0.016   1.313   0.009  0.00  0.00    +0.141 A 
ATOM     17  N   UNL     1       0.002  -0.004   0.002  0.00  0.00    -0.141 NA
ATOM     18  N   UNL     1       1.078  -0.662  -0.012  0.00  0.00    -0.126 NA
ATOM     19  C   UNL     1       2.263  -0.064  -0.020  0.00  0.00    +0.179 A 
ATOM     20  S   UNL     1       1.743   1.649  -0.006  0.00  0.00    -0.033 S 
ATOM     21  N   UNL     1       3.537  -0.610  -0.035  0.00  0.00    -0.336 N 
ATOM     22  H   UNL     1       3.653  -1.573  -0.041  0.00  0.00    +0.144 HD
ATOM     23  H   UNL     1       4.314  -0.029  -0.040  0.00  0.00    +0.144 HD
ENDBRANCH  15  16
ENDBRANCH  14  15
ENDBRANCH   4  14
TORSDOF 4
