REMARK  Name = ZINC01793909
REMARK  4 active torsions:
REMARK  status: ('A' for Active; 'I' for Inactive)
REMARK    1  A    between atoms: C_1  and  C_2
REMARK    2  A    between atoms: C_5  and  S_8
REMARK    3  A    between atoms: S_8  and  N_11
REMARK    4  A    between atoms: N_11  and  N_12
REMARK                            x       y       z     vdW  Elec       q    Type
REMARK                         _______ _______ _______ _____ _____    ______ ____
ROOT
ATOM      1  N   UNL     1       1.651  -4.999  -0.034  0.00  0.00    -0.109 NA
ATOM      2  H   UNL     1       1.993  -5.536  -0.767  0.00  0.00    +0.172 HD
ENDROOT
BRANCH   1   3
ATOM      3  N   UNL     1       2.500  -4.622   1.014  0.00  0.00    -0.251 N 
ATOM      4  C   UNL     1       3.195  -5.575   1.710  0.00  0.00    +0.083 C 
ATOM      5  N   UNL     1       3.069  -6.808   1.396  0.00  0.00    -0.376 N 
ATOM      6  C   UNL     1       3.805  -7.847   2.134  0.00  0.00    +0.113 C 
ATOM      7  C   UNL     1       5.283  -7.774   1.744  0.00  0.00    +0.021 C 
ATOM      8  C   UNL     1       6.019  -6.768   2.613  0.00  0.00    +0.002 C 
ATOM      9  C   UNL     1       5.559  -5.336   2.393  0.00  0.00    +0.007 C 
ATOM     10  C   UNL     1       4.111  -5.162   2.841  0.00  0.00    +0.070 C 
ATOM     11  H   UNL     1       2.596  -3.685   1.247  0.00  0.00    +0.169 HD
ATOM     12  H   UNL     1       2.483  -7.061   0.665  0.00  0.00    +0.161 HD
ENDBRANCH   1   3
BRANCH   1  13
ATOM     13  S   UNL     1       0.063  -4.530  -0.023  0.00  0.00    +0.074 S 
ATOM     14  O   UNL     1      -0.476  -4.950   1.223  0.00  0.00    -0.152 OA
ATOM     15  O   UNL     1      -0.490  -4.937  -1.267  0.00  0.00    -0.152 OA
BRANCH  13  20
ATOM     16  C   UNL     1      -0.018   1.503   0.010  0.00  0.00    +0.044 C 
ATOM     17  C   UNL     1       0.002  -0.004   0.002  0.00  0.00    -0.050 A 
ATOM     18  C   UNL     1       0.006  -0.689  -1.199  0.00  0.00    +0.005 A 
ATOM     19  C   UNL     1       0.025  -2.071  -1.206  0.00  0.00    +0.029 A 
ATOM     20  C   UNL     1       0.040  -2.768  -0.013  0.00  0.00    +0.107 A 
ATOM     21  C   UNL     1       0.037  -2.084   1.188  0.00  0.00    +0.029 A 
ATOM     22  C   UNL     1       0.023  -0.702   1.195  0.00  0.00    +0.005 A 
ENDBRANCH  13  20
ENDBRANCH   1  13
TORSDOF 3
