REMARK  Name = ZINC20558368
REMARK  5 active torsions:
REMARK  status: ('A' for Active; 'I' for Inactive)
REMARK    1  A    between atoms: C_1  and  C_2
REMARK    2  A    between atoms: C_2  and  N_3
REMARK    3  A    between atoms: C_15  and  C_23
REMARK    4  A    between atoms: C_17  and  C_21
REMARK    5  A    between atoms: C_18  and  N_20
REMARK                            x       y       z     vdW  Elec       q    Type
REMARK                         _______ _______ _______ _____ _____    ______ ____
ROOT
ATOM      1  N   UNL     1       2.329   3.943   0.015  0.00  0.00    -0.203 N 
ATOM      2  C   UNL     1       1.152   3.184   0.009  0.00  0.00    +0.062 A 
ATOM      3  C   UNL     1      -0.068   3.848   0.020  0.00  0.00    +0.025 A 
ATOM      4  C   UNL     1      -1.248   3.129   0.027  0.00  0.00    +0.002 A 
ATOM      5  C   UNL     1      -1.216   1.745   0.017  0.00  0.00    +0.001 A 
ATOM      6  C   UNL     1      -0.013   1.076   0.008  0.00  0.00    +0.013 A 
ATOM      7  C   UNL     1       1.193   1.790   0.000  0.00  0.00    +0.042 A 
ATOM      8  C   UNL     1       2.456   1.014  -0.024  0.00  0.00    +0.162 C 
ATOM      9  C   UNL     1       3.621   1.567   0.300  0.00  0.00    +0.141 C 
ATOM     10  S   UNL     1       3.656   3.273   0.767  0.00  0.00    +0.075 S 
ATOM     11  O   UNL     1       3.412   3.327   2.166  0.00  0.00    -0.150 OA
ATOM     12  O   UNL     1       4.809   3.845   0.165  0.00  0.00    -0.150 OA
ATOM     13  C   UNL     1       4.903   0.782   0.278  0.00  0.00    +0.118 C 
ATOM     14  C   UNL     1       4.731  -0.469  -0.539  0.00  0.00    +0.099 C 
ATOM     15  C   UNL     1       3.488  -0.932  -0.826  0.00  0.00    +0.199 C 
ATOM     16  O   UNL     1       2.390  -0.294  -0.390  0.00  0.00    -0.439 OA
ENDROOT
BRANCH  13  17
ATOM     17  C   UNL     1       5.285   0.410   1.688  0.00  0.00    -0.033 A 
ATOM     18  C   UNL     1       4.429  -0.357   2.456  0.00  0.00    +0.006 A 
ATOM     19  C   UNL     1       4.782  -0.704   3.747  0.00  0.00    +0.020 A 
ATOM     20  C   UNL     1       5.986  -0.273   4.274  0.00  0.00    +0.041 A 
ATOM     21  C   UNL     1       6.840   0.500   3.506  0.00  0.00    +0.020 A 
ATOM     22  C   UNL     1       6.489   0.841   2.214  0.00  0.00    +0.006 A 
ATOM     23 CL   UNL     1       6.426  -0.701   5.898  0.00  0.00    -0.084 Cl
ENDBRANCH  13  17
BRANCH  15  24
ATOM     24  N   UNL     1       3.351  -2.074  -1.575  0.00  0.00    -0.328 N 
ATOM     25  H   UNL     1       2.348  -2.457  -1.814  0.00  0.00    +0.145 HD
ATOM     26  H   UNL     1       4.244  -2.605  -1.937  0.00  0.00    +0.145 HD
ENDBRANCH  15  24
BRANCH   1  28
ATOM     27  C   UNL     1       2.688   5.108  -2.105  0.00  0.00    +0.026 C 
ATOM     28  C   UNL     1       2.391   5.265  -0.612  0.00  0.00    +0.128 C 
ENDBRANCH   1  28
BRANCH  14  29
ATOM     29  C   UNL     1       5.883  -1.175  -1.015  0.00  0.00    +0.101 C 
ATOM     30  N   UNL     1       6.797  -1.734  -1.393  0.00  0.00    -0.191 NA
ENDBRANCH  14  29
TORSDOF 4
