REMARK  Name = ZINC32386853
REMARK  4 active torsions:
REMARK  status: ('A' for Active; 'I' for Inactive)
REMARK    1  A    between atoms: C_6  and  N_7
REMARK    2  A    between atoms: C_10  and  C_15
REMARK    3  A    between atoms: C_15  and  O_16
REMARK    4  A    between atoms: O_16  and  C_17
REMARK                            x       y       z     vdW  Elec       q    Type
REMARK                         _______ _______ _______ _____ _____    ______ ____
ROOT
ATOM      1  N   UNL     1       1.107   3.381   0.009  0.00  0.00    -0.284 N 
ATOM      2  C   UNL     1       1.134   2.011  -0.167  0.00  0.00    +0.224 A 
ATOM      3  N   UNL     1      -0.001   1.315  -0.151  0.00  0.00    -0.196 NA
ATOM      4  C   UNL     1       0.024   0.005  -0.320  0.00  0.00    +0.173 A 
ATOM      5  N   UNL     1       1.174  -0.620  -0.506  0.00  0.00    -0.196 NA
ATOM      6  C   UNL     1       2.312   0.070  -0.524  0.00  0.00    +0.217 A 
ATOM      7  N   UNL     1       2.292   1.387  -0.354  0.00  0.00    -0.181 NA
ATOM      8  N   UNL     1       3.513  -0.583  -0.718  0.00  0.00    -0.327 N 
ATOM      9  H   UNL     1       0.144   3.909   0.073  0.00  0.00    +0.155 HD
ATOM     10  H   UNL     1       4.453  -0.013  -0.732  0.00  0.00    +0.145 HD
ATOM     11  H   UNL     1       3.529  -1.674  -0.858  0.00  0.00    +0.145 HD
ENDROOT
BRANCH   1  17
ATOM     12  C   UNL     1       3.416   3.517   0.705  0.00  0.00    +0.026 A 
ATOM     13  C   UNL     1       4.599   4.223   0.795  0.00  0.00    +0.040 A 
ATOM     14  C   UNL     1       4.675   5.514   0.301  0.00  0.00    +0.124 A 
ATOM     15  C   UNL     1       3.567   6.098  -0.290  0.00  0.00    +0.040 A 
ATOM     16  C   UNL     1       2.384   5.393  -0.388  0.00  0.00    +0.026 A 
ATOM     17  C   UNL     1       2.305   4.098   0.107  0.00  0.00    +0.034 A 
ATOM     18  F   UNL     1       5.832   6.206   0.395  0.00  0.00    -0.205 F 
ENDBRANCH   1  17
BRANCH   4  19
ATOM     19  C   UNL     1      -1.262  -0.780  -0.301  0.00  0.00    +0.305 C 
BRANCH  19  20
ATOM     20  O   UNL     1      -1.792  -0.858  -1.625  0.00  0.00    -0.483 OA
BRANCH  20  21
ATOM     21  C   UNL     1      -2.959  -1.538  -1.784  0.00  0.00    +0.135 A 
ATOM     22  C   UNL     1      -3.581  -2.116  -0.687  0.00  0.00    +0.049 A 
ATOM     23  C   UNL     1      -4.767  -2.805  -0.850  0.00  0.00    +0.042 A 
ATOM     24  C   UNL     1      -5.336  -2.920  -2.107  0.00  0.00    +0.125 A 
ATOM     25  C   UNL     1      -4.717  -2.343  -3.203  0.00  0.00    +0.057 A 
ATOM     26  C   UNL     1      -3.533  -1.648  -3.043  0.00  0.00    +0.062 A 
ATOM     27 BR   UNL     1      -2.692  -0.854  -4.539  0.00  0.00    -0.046 Br
ATOM     28  F   UNL     1      -6.495  -3.595  -2.264  0.00  0.00    -0.205 F 
ENDBRANCH  20  21
ENDBRANCH  19  20
ENDBRANCH   4  19
TORSDOF 4
