REMARK  Name = ZINC00508084
REMARK  7 active torsions:
REMARK  status: ('A' for Active; 'I' for Inactive)
REMARK    1  A    between atoms: C_1  and  C_2
REMARK    2  A    between atoms: C_2  and  O_3
REMARK    3  A    between atoms: O_3  and  C_4
REMARK    4  A    between atoms: C_4  and  C_6
REMARK    5  A    between atoms: C_6  and  C_8
REMARK    6  A    between atoms: C_6  and  O_25
REMARK    7  A    between atoms: C_15  and  C_24
REMARK                            x       y       z     vdW  Elec       q    Type
REMARK                         _______ _______ _______ _____ _____    ______ ____
ROOT
ATOM      1  C   UNL     1      -3.578  -2.075   1.333  0.00  0.00    +0.101 C 
ATOM      2  C   UNL     1      -4.981  -2.689   1.354  0.00  0.00    +0.019 C 
ATOM      3  C   UNL     1      -5.730  -2.263   2.620  0.00  0.00    +0.039 C 
ATOM      4  C   UNL     1      -4.881  -2.563   3.829  0.00  0.00    -0.012 A 
ATOM      5  C   UNL     1      -5.262  -2.712   5.164  0.00  0.00    +0.004 A 
ATOM      6  C   UNL     1      -6.511  -2.631   5.802  0.00  0.00    +0.013 A 
ATOM      7  C   UNL     1      -6.531  -2.834   7.157  0.00  0.00    -0.050 A 
ATOM      8  C   UNL     1      -5.381  -3.108   7.881  0.00  0.00    +0.005 A 
ATOM      9  C   UNL     1      -4.136  -3.194   7.284  0.00  0.00    +0.026 A 
ATOM     10  C   UNL     1      -4.081  -2.992   5.906  0.00  0.00    +0.047 A 
ATOM     11  N   UNL     1      -3.034  -3.006   5.030  0.00  0.00    -0.352 N 
ATOM     12  H   UNL     1      -2.106  -3.173   5.257  0.00  0.00    +0.166 HD
ATOM     13  C   UNL     1      -3.519  -2.744   3.769  0.00  0.00    +0.087 A 
ATOM     14  C   UNL     1      -2.788  -2.646   2.499  0.00  0.00    +0.186 C 
ATOM     15  O   UNL     1      -1.632  -2.998   2.388  0.00  0.00    -0.290 OA
ATOM     16  C   UNL     1      -7.849  -2.756   7.885  0.00  0.00    +0.044 C 
ENDROOT
BRANCH   1  17
ATOM     17  C   UNL     1      -2.881  -2.427   0.017  0.00  0.00    +0.233 C 
BRANCH  17  18
ATOM     18  C   UNL     1      -1.496  -1.832   0.006  0.00  0.00    +0.337 C 
ATOM     19  O   UNL     1      -0.528  -2.555  -0.007  0.00  0.00    -0.248 OA
BRANCH  18  20
ATOM     20  O   UNL     1      -1.339  -0.499   0.012  0.00  0.00    -0.463 OA
BRANCH  20  22
ATOM     21  C   UNL     1      -0.019   1.526   0.010  0.00  0.00    +0.048 C 
ATOM     22  C   UNL     1       0.002  -0.004   0.002  0.00  0.00    +0.229 C 
ENDBRANCH  20  22
ENDBRANCH  18  20
ENDBRANCH  17  18
BRANCH  17  23
ATOM     23  O   UNL     1      -2.790  -3.847  -0.109  0.00  0.00    -0.380 OA
ATOM     24  H   UNL     1      -2.291  -4.274   0.601  0.00  0.00    +0.211 HD
ENDBRANCH  17  23
ENDBRANCH   1  17
TORSDOF 5
