REMARK  Name = ZINC58021526
REMARK  8 active torsions:
REMARK  status: ('A' for Active; 'I' for Inactive)
REMARK    1  A    between atoms: C_1  and  C_2
REMARK    2  A    between atoms: C_5  and  C_8
REMARK    3  A    between atoms: C_8  and  C_9
REMARK    4  A    between atoms: C_10  and  C_23
REMARK    5  A    between atoms: C_12  and  C_22
REMARK    6  A    between atoms: C_17  and  C_18
REMARK    7  A    between atoms: C_18  and  C_20
REMARK    8  A    between atoms: C_18  and  N_21
REMARK                            x       y       z     vdW  Elec       q    Type
REMARK                         _______ _______ _______ _____ _____    ______ ____
ROOT
ATOM      1  C   UNL     1       1.423  -4.981   0.068  0.00  0.00    +0.023 A 
ATOM      2  C   UNL     1       1.990  -5.150   1.293  0.00  0.00    +0.047 A 
ATOM      3  N   UNL     1       3.299  -5.395   1.407  0.00  0.00    -0.238 NA
ATOM      4  C   UNL     1       4.081  -5.481   0.366  0.00  0.00    +0.114 A 
ATOM      5  N   UNL     1       3.591  -5.325  -0.891  0.00  0.00    -0.268 N 
ATOM      6  C   UNL     1       2.248  -5.077  -1.072  0.00  0.00    +0.168 A 
ATOM      7  N   UNL     1       2.047  -4.976  -2.371  0.00  0.00    -0.129 NA
ATOM      8  N   UNL     1       3.162  -5.149  -2.992  0.00  0.00    -0.135 NA
ATOM      9  C   UNL     1       4.131  -5.356  -2.139  0.00  0.00    +0.124 A 
ATOM     10  C   UNL     1       5.549  -5.759   0.561  0.00  0.00    +0.086 C 
ATOM     11  C   UNL     1       1.136  -5.060   2.531  0.00  0.00    +0.066 C 
ENDROOT
BRANCH   9  12
ATOM     12  C   UNL     1       5.579  -5.602  -2.477  0.00  0.00    -0.008 C 
ATOM     13  C   UNL     1       5.740  -7.020  -3.028  0.00  0.00    -0.006 C 
BRANCH  12  14
ATOM     14  N   UNL     1       6.017  -4.631  -3.488  0.00  0.00    +0.385 N 
ATOM     15  H   UNL     1       5.910  -3.695  -3.125  0.00  0.00    -0.089 HD
ATOM     16  H   UNL     1       6.987  -4.795  -3.715  0.00  0.00    -0.089 HD
ATOM     17  H   UNL     1       5.455  -4.734  -4.320  0.00  0.00    -0.089 HD
ENDBRANCH  12  14
ENDBRANCH   9  12
BRANCH   1  18
ATOM     18  C   UNL     1      -0.053  -4.706  -0.067  0.00  0.00    +0.075 C 
BRANCH  18  23
ATOM     19  C   UNL     1      -2.870  -9.675  -0.942  0.00  0.00    +0.044 C 
ATOM     20  C   UNL     1      -2.135  -8.379  -0.714  0.00  0.00    -0.050 A 
ATOM     21  C   UNL     1      -2.028  -7.861   0.563  0.00  0.00    +0.003 A 
ATOM     22  C   UNL     1      -1.354  -6.673   0.772  0.00  0.00    +0.004 A 
ATOM     23  C   UNL     1      -0.787  -6.002  -0.295  0.00  0.00    -0.043 A 
ATOM     24  C   UNL     1      -0.893  -6.521  -1.573  0.00  0.00    +0.004 A 
ATOM     25  C   UNL     1      -1.564  -7.712  -1.781  0.00  0.00    +0.003 A 
ENDBRANCH  18  23
ENDBRANCH   1  18
TORSDOF 4
