REMARK  Name = ZINC38578581
REMARK  10 active torsions:
REMARK  status: ('A' for Active; 'I' for Inactive)
REMARK    1  A    between atoms: C_1  and  C_2
REMARK    2  A    between atoms: C_2  and  O_3
REMARK    3  A    between atoms: O_3  and  C_4
REMARK    4  A    between atoms: C_7  and  N_10
REMARK    5  A    between atoms: C_11  and  C_33
REMARK    6  A    between atoms: C_15  and  S_17
REMARK    7  A    between atoms: S_17  and  C_18
REMARK    8  A    between atoms: C_18  and  C_19
REMARK    9  A    between atoms: N_21  and  N_22
REMARK   10  A    between atoms: C_23  and  C_24
REMARK                            x       y       z     vdW  Elec       q    Type
REMARK                         _______ _______ _______ _____ _____    ______ ____
ROOT
ATOM      1  N   UNL     1       1.086  -6.072   1.569  0.00  0.00    -0.284 N 
ATOM      2  C   UNL     1       1.841  -6.920   2.508  0.00  0.00    +0.190 C 
ATOM      3  N   UNL     1       1.460  -8.320   2.214  0.00  0.00    -0.230 NA
ATOM      4  N   UNL     1       0.141  -8.212   1.569  0.00  0.00    -0.226 NA
ATOM      5  C   UNL     1       0.270  -6.986   0.743  0.00  0.00    +0.218 C 
ATOM      6  H   UNL     1       2.130  -8.755   1.597  0.00  0.00    +0.143 HD
ATOM      7  H   UNL     1      -0.590  -8.106   2.256  0.00  0.00    +0.143 HD
ENDROOT
BRANCH   1  11
ATOM      8  C   UNL     1       1.213  -1.914   1.305  0.00  0.00    +0.121 A 
ATOM      9  C   UNL     1       0.485  -2.645   0.378  0.00  0.00    +0.047 A 
ATOM     10  C   UNL     1       0.442  -4.023   0.465  0.00  0.00    +0.027 A 
ATOM     11  C   UNL     1       1.129  -4.676   1.480  0.00  0.00    +0.033 A 
ATOM     12  C   UNL     1       1.858  -3.943   2.407  0.00  0.00    +0.027 A 
ATOM     13  C   UNL     1       1.904  -2.566   2.315  0.00  0.00    +0.047 A 
BRANCH   8  14
ATOM     14  O   UNL     1       1.255  -0.557   1.218  0.00  0.00    -0.492 OA
BRANCH  14  16
ATOM     15  C   UNL     1       0.685   1.568   0.218  0.00  0.00    +0.048 C 
ATOM     16  C   UNL     1       0.520   0.048   0.153  0.00  0.00    +0.225 C 
ENDBRANCH  14  16
ENDBRANCH   8  14
ENDBRANCH   1  11
BRANCH   2  17
ATOM     17  C   UNL     1       3.321  -6.731   2.299  0.00  0.00    +0.007 A 
ATOM     18  C   UNL     1       3.788  -5.805   1.378  0.00  0.00    +0.010 A 
ATOM     19  C   UNL     1       5.158  -5.666   1.219  0.00  0.00    +0.020 A 
ATOM     20  C   UNL     1       6.007  -6.449   1.978  0.00  0.00    +0.111 A 
ATOM     21  N   UNL     1       5.528  -7.320   2.844  0.00  0.00    -0.263 NA
ATOM     22  C   UNL     1       4.231  -7.475   3.026  0.00  0.00    +0.117 A 
ENDBRANCH   2  17
BRANCH   5  23
ATOM     23  S   UNL     1       1.119  -7.361  -0.815  0.00  0.00    -0.112 S 
BRANCH  23  24
ATOM     24  C   UNL     1      -0.181  -8.069  -1.864  0.00  0.00    +0.169 C 
BRANCH  24  25
ATOM     25  C   UNL     1       0.367  -8.317  -3.245  0.00  0.00    +0.242 C 
ATOM     26  O   UNL     1       1.521  -8.043  -3.498  0.00  0.00    -0.273 OA
ATOM     27  N   UNL     1      -0.425  -8.843  -4.200  0.00  0.00    -0.206 N 
ATOM     28  H   UNL     1      -1.348  -9.063  -3.998  0.00  0.00    +0.177 HD
BRANCH  27  29
ATOM     29  N   UNL     1       0.084  -9.073  -5.485  0.00  0.00    -0.188 NA
ATOM     30  C   UNL     1      -0.685  -9.585  -6.412  0.00  0.00    +0.136 C 
BRANCH  30  31
ATOM     31  C   UNL     1      -0.175  -9.815  -7.698  0.00  0.00    +0.000 C 
ATOM     32  C   UNL     1      -0.857 -10.343  -8.792  0.00  0.00    +0.004 A 
ATOM     33  C   UNL     1      -2.185 -10.790  -8.964  0.00  0.00    +0.010 A 
ATOM     34  C   UNL     1      -2.584 -11.268 -10.170  0.00  0.00    +0.001 A 
ATOM     35  C   UNL     1      -1.709 -11.331 -11.258  0.00  0.00    +0.002 A 
ATOM     36  C   UNL     1      -0.422 -10.920 -11.167  0.00  0.00    +0.026 A 
ATOM     37  C   UNL     1       0.069 -10.407  -9.937  0.00  0.00    +0.043 A 
ATOM     38  N   UNL     1       1.256  -9.952  -9.595  0.00  0.00    -0.380 N 
ATOM     39  C   UNL     1       1.228  -9.535  -8.189  0.00  0.00    +0.150 C 
ATOM     40  H   UNL     1       2.027  -9.897 -10.181  0.00  0.00    +0.160 HD
ENDBRANCH  30  31
ENDBRANCH  27  29
ENDBRANCH  24  25
ENDBRANCH  23  24
ENDBRANCH   5  23
TORSDOF 9
