REMARK  Name = ZINC04559212
REMARK  4 active torsions:
REMARK  status: ('A' for Active; 'I' for Inactive)
REMARK    1  A    between atoms: C_1  and  C_2
REMARK    2  A    between atoms: N_7  and  C_8
REMARK    3  A    between atoms: C_8  and  C_9
REMARK    4  A    between atoms: C_18  and  O_19
REMARK                            x       y       z     vdW  Elec       q    Type
REMARK                         _______ _______ _______ _____ _____    ______ ____
ROOT
ATOM      1  C   UNL     1      -0.112   5.253   0.030  0.00  0.00    +0.019 A 
ATOM      2  C   UNL     1      -0.095   3.849   0.023  0.00  0.00    -0.010 A 
ATOM      3  C   UNL     1      -1.288   3.105   0.030  0.00  0.00    +0.009 A 
ATOM      4  C   UNL     1      -1.235   1.746   0.017  0.00  0.00    +0.001 A 
ATOM      5  C   UNL     1      -0.013   1.076   0.008  0.00  0.00    +0.001 A 
ATOM      6  C   UNL     1       1.163   1.762   0.000  0.00  0.00    +0.008 A 
ATOM      7  C   UNL     1       1.148   3.167   0.008  0.00  0.00    -0.017 A 
ATOM      8  C   UNL     1       2.342   3.909   0.001  0.00  0.00    +0.012 A 
ATOM      9  C   UNL     1       2.292   5.268   0.009  0.00  0.00    +0.046 A 
ATOM     10  C   UNL     1       1.067   5.942   0.023  0.00  0.00    +0.122 A 
ENDROOT
BRANCH  10  11
ATOM     11  O   UNL     1       1.050   7.301   0.030  0.00  0.00    -0.506 OA
ATOM     12  H   UNL     1       1.053   7.690   0.916  0.00  0.00    +0.292 HD
ENDBRANCH  10  11
BRANCH   1  13
ATOM     13  C   UNL     1      -1.423   5.995   0.046  0.00  0.00    +0.142 C 
BRANCH  13  20
ATOM     14  C   UNL     1      -5.879   8.517  -0.183  0.00  0.00    +0.044 C 
ATOM     15  C   UNL     1      -4.993   8.015   0.928  0.00  0.00    -0.046 A 
ATOM     16  C   UNL     1      -5.342   8.212   2.258  0.00  0.00    +0.021 A 
ATOM     17  C   UNL     1      -4.510   7.741   3.253  0.00  0.00    +0.084 A 
ATOM     18  C   UNL     1      -3.023   6.900   1.700  0.00  0.00    +0.097 A 
ATOM     19  C   UNL     1      -3.812   7.353   0.647  0.00  0.00    +0.045 A 
ATOM     20  N   UNL     1      -1.836   6.228   1.432  0.00  0.00    -0.326 N 
ATOM     21  H   UNL     1      -1.281   5.914   2.163  0.00  0.00    +0.148 HD
ATOM     22  N   UNL     1      -3.344   7.081   3.014  0.00  0.00    -0.350 N 
ATOM     23  H   UNL     1      -2.744   6.741   3.774  0.00  0.00    +0.166 HD
ENDBRANCH  13  20
ENDBRANCH   1  13
TORSDOF 3
