REMARK  Name = ZINC15956614
REMARK  7 active torsions:
REMARK  status: ('A' for Active; 'I' for Inactive)
REMARK    1  A    between atoms: C_1  and  C_2
REMARK    2  A    between atoms: C_7  and  C_8
REMARK    3  A    between atoms: C_17  and  C_20
REMARK    4  A    between atoms: C_20  and  C_21
REMARK    5  A    between atoms: C_21  and  S_22
REMARK    6  A    between atoms: S_22  and  C_23
REMARK    7  A    between atoms: N_26  and  C_29
REMARK                            x       y       z     vdW  Elec       q    Type
REMARK                         _______ _______ _______ _____ _____    ______ ____
ROOT
ATOM      1  C   UNL     1      -0.018   1.503   0.010  0.00  0.00    +0.044 C 
ATOM      2  C   UNL     1       0.002  -0.004   0.002  0.00  0.00    -0.046 A 
ATOM      3  C   UNL     1       0.006  -0.686  -1.202  0.00  0.00    +0.004 A 
ATOM      4  C   UNL     1       0.025  -2.069  -1.209  0.00  0.00    +0.008 A 
ATOM      5  C   UNL     1       0.041  -2.765  -0.021  0.00  0.00    +0.004 A 
ATOM      6  C   UNL     1       0.037  -2.090   1.196  0.00  0.00    +0.042 A 
ATOM      7  C   UNL     1       0.023  -0.697   1.195  0.00  0.00    -0.026 A 
ATOM      8  C   UNL     1       0.024   0.056   2.500  0.00  0.00    +0.046 C 
ATOM      9  N   UNL     1       0.054  -3.001   2.254  0.00  0.00    -0.283 N 
ATOM     10  C   UNL     1       0.070  -4.278   1.825  0.00  0.00    +0.243 C 
ATOM     11  O   UNL     1       0.088  -5.274   2.516  0.00  0.00    -0.273 OA
ATOM     12  C   UNL     1       0.063  -4.228   0.321  0.00  0.00    +0.136 C 
ATOM     13  C   UNL     1       1.295  -4.926  -0.268  0.00  0.00    +0.122 C 
ATOM     14  C   UNL     1       0.776  -5.602  -1.568  0.00  0.00    +0.107 C 
ATOM     15  C   UNL     1      -0.716  -5.216  -1.648  0.00  0.00    +0.068 C 
ATOM     16  N   UNL     1      -1.107  -4.932  -0.235  0.00  0.00    -0.295 NA
ATOM     17  C   UNL     1       0.912  -7.078  -1.272  0.00  0.00    +0.227 C 
ATOM     18  O   UNL     1       0.605  -7.975  -2.027  0.00  0.00    -0.275 OA
ATOM     19  N   UNL     1       1.423  -7.240  -0.046  0.00  0.00    -0.238 N 
ATOM     20  C   UNL     1       1.689  -6.089   0.614  0.00  0.00    +0.228 C 
ATOM     21  O   UNL     1       2.161  -5.996   1.726  0.00  0.00    -0.275 OA
ATOM     22  H   UNL     1       0.054  -2.744   3.189  0.00  0.00    +0.155 HD
ATOM     23  H   UNL     1      -1.294  -5.782   0.276  0.00  0.00    +0.123 HD
ENDROOT
BRANCH  19  24
ATOM     24  C   UNL     1       1.681  -8.559   0.536  0.00  0.00    +0.084 C 
ATOM     25  C   UNL     1       2.631  -9.362  -0.376  0.00  0.00    +0.023 C 
ATOM     26  C   UNL     1       2.108 -10.817  -0.282  0.00  0.00    +0.002 C 
ATOM     27  C   UNL     1       0.572 -10.626  -0.240  0.00  0.00    +0.002 C 
ATOM     28  C   UNL     1       0.372  -9.363   0.623  0.00  0.00    +0.023 C 
ENDBRANCH  19  24
BRANCH  15  29
ATOM     29  C   UNL     1      -1.539  -6.387  -2.189  0.00  0.00    +0.030 C 
BRANCH  29  30
ATOM     30  C   UNL     1      -2.992  -5.944  -2.377  0.00  0.00    +0.070 C 
BRANCH  30  31
ATOM     31  S   UNL     1      -3.968  -7.332  -3.019  0.00  0.00    -0.164 S 
ATOM     32  C   UNL     1      -5.642  -6.652  -3.184  0.00  0.00    +0.084 C 
ENDBRANCH  30  31
ENDBRANCH  29  30
ENDBRANCH  15  29
TORSDOF 4
