REMARK  Name = ZINC63854570
REMARK  9 active torsions:
REMARK  status: ('A' for Active; 'I' for Inactive)
REMARK    1  A    between atoms: C_1  and  C_2
REMARK    2  A    between atoms: C_4  and  S_19
REMARK    3  A    between atoms: C_6  and  C_7
REMARK    4  A    between atoms: N_9  and  C_10
REMARK    5  A    between atoms: C_10  and  C_11
REMARK    6  A    between atoms: C_10  and  C_16
REMARK    7  A    between atoms: C_16  and  C_17
REMARK    8  A    between atoms: C_16  and  C_18
REMARK    9  A    between atoms: S_19  and  N_22
REMARK                            x       y       z     vdW  Elec       q    Type
REMARK                         _______ _______ _______ _____ _____    ______ ____
ROOT
ATOM      1  C   UNL     1       0.030  -0.283   2.562  0.00  0.00    +0.251 C 
ATOM      2  O   UNL     1       0.015   0.910   2.805  0.00  0.00    -0.270 OA
ATOM      3  N   UNL     1       0.051  -1.176   3.571  0.00  0.00    -0.303 N 
ATOM      4  H   UNL     1       0.063  -2.126   3.378  0.00  0.00    +0.150 HD
ENDROOT
BRANCH   1  10
ATOM      5  C   UNL     1      -0.018   1.503   0.010  0.00  0.00    +0.045 C 
ATOM      6  C   UNL     1       0.002  -0.004   0.002  0.00  0.00    -0.029 A 
ATOM      7  C   UNL     1       0.007  -0.729  -1.166  0.00  0.00    +0.040 A 
ATOM      8  C   UNL     1       0.026  -2.083  -1.101  0.00  0.00    +0.143 A 
ATOM      9  S   UNL     1       0.038  -2.416   0.545  0.00  0.00    -0.064 S 
ATOM     10  C   UNL     1       0.023  -0.748   1.172  0.00  0.00    +0.079 A 
BRANCH   8  11
ATOM     11  S   UNL     1       0.035  -3.230  -2.438  0.00  0.00    +0.062 S 
ATOM     12  O   UNL     1      -0.496  -4.447  -1.933  0.00  0.00    -0.153 OA
ATOM     13  O   UNL     1      -0.531  -2.557  -3.555  0.00  0.00    -0.153 OA
BRANCH  11  14
ATOM     14  N   UNL     1       1.619  -3.527  -2.818  0.00  0.00    -0.203 NA
ATOM     15  H   UNL     1       1.878  -4.388  -3.182  0.00  0.00    +0.144 HD
ATOM     16  H   UNL     1       2.289  -2.840  -2.676  0.00  0.00    +0.144 HD
ENDBRANCH  11  14
ENDBRANCH   8  11
ENDBRANCH   1  10
BRANCH   3  17
ATOM     17  C   UNL     1       0.058  -0.711   4.961  0.00  0.00    +0.113 C 
BRANCH  17  18
ATOM     18  C   UNL     1       0.681  -1.765   5.840  0.00  0.00    +0.010 A 
ATOM     19  C   UNL     1       1.524  -1.611   6.890  0.00  0.00    +0.013 A 
ATOM     20  C   UNL     1       1.975  -2.734   7.558  0.00  0.00    +0.008 A 
ATOM     21  C   UNL     1       1.560  -3.956   7.144  0.00  0.00    +0.045 A 
ATOM     22  S   UNL     1       0.495  -3.539   5.773  0.00  0.00    -0.100 S 
ENDBRANCH  17  18
BRANCH  17  23
ATOM     23  C   UNL     1      -1.379  -0.450   5.418  0.00  0.00    +0.008 C 
ATOM     24  C   UNL     1      -1.372   0.035   6.869  0.00  0.00    +0.009 C 
ATOM     25  C   UNL     1      -2.011   0.619   4.526  0.00  0.00    +0.009 C 
ENDBRANCH  17  23
ENDBRANCH   3  17
TORSDOF 6
