REMARK  Name = ZINC32601343
REMARK  11 active torsions:
REMARK  status: ('A' for Active; 'I' for Inactive)
REMARK    1  A    between atoms: C_1  and  O_2
REMARK    2  A    between atoms: O_2  and  C_3
REMARK    3  A    between atoms: C_10  and  C_14
REMARK    4  A    between atoms: N_15  and  N_16
REMARK    5  A    between atoms: C_17  and  C_19
REMARK    6  A    between atoms: C_21  and  O_29
REMARK    7  A    between atoms: C_22  and  O_27
REMARK    8  A    between atoms: C_23  and  O_25
REMARK    9  A    between atoms: O_25  and  C_26
REMARK   10  A    between atoms: O_27  and  C_28
REMARK   11  A    between atoms: O_29  and  C_30
REMARK                            x       y       z     vdW  Elec       q    Type
REMARK                         _______ _______ _______ _____ _____    ______ ____
ROOT
ATOM      1  C   UNL     1       4.953   1.202  -0.039  0.00  0.00    +0.121 C 
ATOM      2  N   UNL     1       6.037   1.929  -0.045  0.00  0.00    -0.291 N 
ATOM      3  N   UNL     1       5.046  -0.185  -0.048  0.00  0.00    -0.343 N 
ATOM      4  H   UNL     1       6.033  -0.670  -0.060  0.00  0.00    +0.144 HD
ATOM      5  H   UNL     1       4.132  -0.797  -0.043  0.00  0.00    +0.144 HD
ATOM      6  H   UNL     1       5.964   3.026  -0.038  0.00  0.00    +0.186 HD
ENDROOT
BRANCH   1  14
ATOM      7  C   UNL     1      -1.215   1.753   0.017  0.00  0.00    +0.121 A 
ATOM      8  C   UNL     1      -1.234   3.145   0.030  0.00  0.00    +0.049 A 
ATOM      9  C   UNL     1      -0.058   3.864   0.023  0.00  0.00    +0.050 A 
ATOM     10  C   UNL     1       1.165   3.202   0.008  0.00  0.00    +0.139 A 
ATOM     11  C   UNL     1       1.189   1.796   0.000  0.00  0.00    +0.022 A 
ATOM     12  C   UNL     1      -0.013   1.076   0.008  0.00  0.00    +0.057 A 
ATOM     13  C   UNL     1       2.473   1.095  -0.015  0.00  0.00    +0.030 A 
ATOM     14  C   UNL     1       3.630   1.853  -0.022  0.00  0.00    +0.099 A 
ATOM     15  C   UNL     1       3.516   3.315  -0.012  0.00  0.00    +0.348 A 
ATOM     16  O   UNL     1       4.525   3.997  -0.018  0.00  0.00    -0.244 OA
ATOM     17  O   UNL     1       2.315   3.911   0.002  0.00  0.00    -0.422 OA
BRANCH   7  19
ATOM     18  C   UNL     1      -3.592   1.823   0.029  0.00  0.00    +0.277 C 
ATOM     19  O   UNL     1      -2.384   1.059   0.019  0.00  0.00    -0.495 OA
ENDBRANCH   7  19
ENDBRANCH   1  14
BRANCH   2  20
ATOM     20  N   UNL     1       7.295   1.310  -0.061  0.00  0.00    -0.224 N 
ATOM     21  C   UNL     1       8.414   2.061  -0.067  0.00  0.00    +0.262 C 
ATOM     22  O   UNL     1       8.333   3.275  -0.059  0.00  0.00    -0.269 OA
ATOM     23  H   UNL     1       7.368   0.213  -0.068  0.00  0.00    +0.175 HD
BRANCH  21  24
ATOM     24  C   UNL     1       9.739   1.410  -0.084  0.00  0.00    +0.045 A 
ATOM     25  C   UNL     1       9.833   0.016  -0.087  0.00  0.00    +0.062 A 
ATOM     26  C   UNL     1      11.075  -0.591  -0.109  0.00  0.00    +0.166 A 
ATOM     27  C   UNL     1      12.231   0.185  -0.115  0.00  0.00    +0.204 A 
ATOM     28  C   UNL     1      12.139   1.574  -0.105  0.00  0.00    +0.166 A 
ATOM     29  C   UNL     1      10.900   2.186  -0.090  0.00  0.00    +0.062 A 
BRANCH  28  30
ATOM     30  O   UNL     1      13.271   2.329  -0.111  0.00  0.00    -0.491 OA
ATOM     31  C   UNL     1      13.103   3.748  -0.101  0.00  0.00    +0.277 C 
ENDBRANCH  28  30
BRANCH  27  32
ATOM     32  O   UNL     1      13.450  -0.415  -0.130  0.00  0.00    -0.488 OA
ATOM     33  C   UNL     1      14.045  -0.709   1.136  0.00  0.00    +0.277 C 
ENDBRANCH  27  32
BRANCH  26  34
ATOM     34  O   UNL     1      11.168  -1.948  -0.118  0.00  0.00    -0.491 OA
ATOM     35  C   UNL     1       9.942  -2.682  -0.111  0.00  0.00    +0.277 C 
ENDBRANCH  26  34
ENDBRANCH  21  24
ENDBRANCH   2  20
TORSDOF 7
