REMARK  Name = ZINC42894338
REMARK  7 active torsions:
REMARK  status: ('A' for Active; 'I' for Inactive)
REMARK    1  A    between atoms: C_1  and  C_2
REMARK    2  A    between atoms: C_2  and  C_3
REMARK    3  A    between atoms: C_3  and  C_4
REMARK    4  A    between atoms: C_3  and  C_5
REMARK    5  A    between atoms: C_3  and  N_20
REMARK    6  A    between atoms: C_7  and  C_10
REMARK    7  A    between atoms: C_14  and  C_19
REMARK                            x       y       z     vdW  Elec       q    Type
REMARK                         _______ _______ _______ _____ _____    ______ ____
ROOT
ATOM      1  C   UNL     1       0.632  -2.000  -1.327  0.00  0.00    +0.161 A 
ATOM      2  N   UNL     1       0.069  -2.696  -2.316  0.00  0.00    -0.191 NA
ATOM      3  C   UNL     1       0.163  -3.986  -2.068  0.00  0.00    +0.294 A 
ATOM      4  O   UNL     1       0.801  -4.137  -0.893  0.00  0.00    -0.330 OA
ATOM      5  N   UNL     1       1.100  -2.827  -0.435  0.00  0.00    -0.062 NA
ENDROOT
BRANCH   3   6
ATOM      6  C   UNL     1      -0.340  -5.071  -2.924  0.00  0.00    +0.193 A 
ATOM      7  C   UNL     1      -0.237  -6.396  -2.647  0.00  0.00    +0.063 A 
ATOM      8  C   UNL     1      -0.870  -7.094  -3.767  0.00  0.00    +0.021 A 
ATOM      9  C   UNL     1      -1.087  -8.438  -4.079  0.00  0.00    +0.015 A 
ATOM     10  C   UNL     1      -1.728  -8.769  -5.240  0.00  0.00    -0.050 A 
ATOM     11  C   UNL     1      -2.164  -7.779  -6.109  0.00  0.00    +0.007 A 
ATOM     12  C   UNL     1      -1.959  -6.447  -5.819  0.00  0.00    +0.047 A 
ATOM     13  C   UNL     1      -1.310  -6.086  -4.644  0.00  0.00    +0.136 A 
ATOM     14  O   UNL     1      -0.979  -4.899  -4.100  0.00  0.00    -0.450 OA
ATOM     15  C   UNL     1      -1.963 -10.219  -5.578  0.00  0.00    +0.044 C 
ENDBRANCH   3   6
BRANCH   1  16
ATOM     16  C   UNL     1       0.718  -0.497  -1.257  0.00  0.00    -0.009 C 
ATOM     17  C   UNL     1       2.187  -0.073  -1.207  0.00  0.00    -0.003 C 
BRANCH  16  18
ATOM     18  N   UNL     1       0.080   0.086  -2.444  0.00  0.00    +0.386 N 
ATOM     19  H   UNL     1       0.138   1.092  -2.397  0.00  0.00    -0.089 HD
ATOM     20  H   UNL     1       0.552  -0.239  -3.274  0.00  0.00    -0.089 HD
ATOM     21  H   UNL     1      -0.889  -0.194  -2.477  0.00  0.00    -0.089 HD
ENDBRANCH  16  18
BRANCH  16  23
ATOM     22  C   UNL     1      -0.019   1.526   0.010  0.00  0.00    +0.003 C 
ATOM     23  C   UNL     1       0.002  -0.004   0.002  0.00  0.00    -0.009 C 
ENDBRANCH  16  23
ENDBRANCH   1  16
TORSDOF 4
