REMARK  Name = ZINC63695782
REMARK  6 active torsions:
REMARK  status: ('A' for Active; 'I' for Inactive)
REMARK    1  A    between atoms: C_1  and  C_2
REMARK    2  A    between atoms: C_2  and  C_3
REMARK    3  A    between atoms: C_3  and  C_4
REMARK    4  A    between atoms: C_4  and  N_5
REMARK    5  A    between atoms: C_6  and  C_8
REMARK    6  A    between atoms: N_13  and  C_15
REMARK                            x       y       z     vdW  Elec       q    Type
REMARK                         _______ _______ _______ _____ _____    ______ ____
ROOT
ATOM      1  C   UNL     1       2.343  -4.350   3.846  0.00  0.00    +0.089 C 
ATOM      2  C   UNL     1       1.626  -3.858   5.106  0.00  0.00    +0.015 C 
ATOM      3  C   UNL     1       2.338  -4.419   6.340  0.00  0.00    +0.016 C 
ATOM      4  C   UNL     1       2.356  -5.947   6.262  0.00  0.00    +0.088 C 
ATOM      5  N   UNL     1       3.054  -6.367   5.040  0.00  0.00    -0.265 NA
ATOM      6  C   UNL     1       2.363  -5.880   3.839  0.00  0.00    +0.100 C 
ENDROOT
BRANCH   5   7
ATOM      7  C   UNL     1       3.213  -7.827   5.000  0.00  0.00    +0.252 C 
ATOM      8  N   UNL     1       1.896  -8.477   4.987  0.00  0.00    -0.351 N 
ATOM      9  C   UNL     1       1.818  -9.223   6.051  0.00  0.00    +0.061 A 
ATOM     10  C   UNL     1       0.765 -10.101   6.580  0.00  0.00    +0.028 A 
ATOM     11  C   UNL     1       0.971 -10.764   7.735  0.00  0.00    +0.017 A 
ATOM     12  C   UNL     1       2.166 -10.655   8.470  0.00  0.00    +0.020 A 
ATOM     13  C   UNL     1       3.195  -9.877   8.073  0.00  0.00    +0.042 A 
ATOM     14  C   UNL     1       3.083  -9.107   6.828  0.00  0.00    +0.062 A 
ATOM     15  N   UNL     1       3.894  -8.293   6.214  0.00  0.00    -0.351 N 
ATOM     16 BR   UNL     1       2.337 -11.636  10.077  0.00  0.00    -0.050 Br
ATOM     17  H   UNL     1       1.210  -8.370   4.310  0.00  0.00    +0.163 HD
ATOM     18  H   UNL     1       4.785  -8.042   6.504  0.00  0.00    +0.163 HD
ENDBRANCH   5   7
BRANCH   1  20
ATOM     19  N   UNL     1       1.471  -2.526   2.420  0.00  0.00    -0.315 N 
ATOM     20  C   UNL     1       1.615  -3.850   2.625  0.00  0.00    +0.217 C 
ATOM     21  O   UNL     1       1.157  -4.641   1.827  0.00  0.00    -0.275 OA
ATOM     22  H   UNL     1       1.837  -1.894   3.058  0.00  0.00    +0.149 HD
BRANCH  19  23
ATOM     23  C   UNL     1       0.763  -2.041   1.233  0.00  0.00    +0.104 C 
BRANCH  23  24
ATOM     24  C   UNL     1       0.742  -0.511   1.242  0.00  0.00    +0.018 C 
BRANCH  24  26
ATOM     25  C   UNL     1      -0.019   1.526   0.010  0.00  0.00    +0.004 C 
ATOM     26  C   UNL     1       0.002  -0.004   0.002  0.00  0.00    -0.002 C 
ENDBRANCH  24  26
ENDBRANCH  23  24
ENDBRANCH  19  23
ENDBRANCH   1  20
TORSDOF 5
