REMARK  Name = ZINC61332786
REMARK  7 active torsions:
REMARK  status: ('A' for Active; 'I' for Inactive)
REMARK    1  A    between atoms: C_1  and  C_2
REMARK    2  A    between atoms: C_2  and  N_3
REMARK    3  A    between atoms: N_3  and  C_4
REMARK    4  A    between atoms: C_11  and  C_13
REMARK    5  A    between atoms: C_13  and  C_14
REMARK    6  A    between atoms: C_13  and  N_15
REMARK    7  A    between atoms: C_18  and  C_20
REMARK                            x       y       z     vdW  Elec       q    Type
REMARK                         _______ _______ _______ _____ _____    ______ ____
ROOT
ATOM      1  C   UNL     1      -1.526  -0.615   2.483  0.00  0.00    +0.016 C 
ATOM      2  C   UNL     1      -0.197  -1.371   2.538  0.00  0.00    -0.004 C 
ENDROOT
BRANCH   1   3
ATOM      3  N   UNL     1      -2.426  -1.129   3.525  0.00  0.00    +0.388 N 
ATOM      4  C   UNL     1      -3.704  -0.386   3.489  0.00  0.00    -0.077 C 
ATOM      5  C   UNL     1      -4.133  -0.266   4.973  0.00  0.00    -0.008 C 
ATOM      6  C   UNL     1      -2.768  -0.056   5.678  0.00  0.00    +0.056 C 
ATOM      7  C   UNL     1      -1.809  -0.938   4.851  0.00  0.00    -0.065 C 
ATOM      8  H   UNL     1      -2.601  -2.110   3.369  0.00  0.00    -0.081 HD
BRANCH   6   9
ATOM      9  C   UNL     1      -2.828  -0.529   7.107  0.00  0.00    +0.212 C 
ATOM     10  O   UNL     1      -2.104  -1.428   7.479  0.00  0.00    -0.276 OA
ATOM     11  N   UNL     1      -3.685   0.048   7.973  0.00  0.00    -0.329 N 
ATOM     12  H   UNL     1      -4.264   0.767   7.675  0.00  0.00    +0.145 HD
ATOM     13  H   UNL     1      -3.724  -0.257   8.893  0.00  0.00    +0.145 HD
ENDBRANCH   6   9
ENDBRANCH   1   3
BRANCH   1  15
ATOM     14  N   UNL     1      -1.579  -0.291   0.031  0.00  0.00    -0.298 N 
ATOM     15  C   UNL     1      -2.160  -0.811   1.130  0.00  0.00    +0.202 C 
ATOM     16  O   UNL     1      -3.194  -1.438   1.030  0.00  0.00    -0.277 OA
BRANCH  14  17
ATOM     17  C   UNL     1      -0.366   0.521   0.159  0.00  0.00    +0.098 C 
ATOM     18  C   UNL     1       0.733  -0.054  -0.749  0.00  0.00    +0.046 C 
ATOM     19  C   UNL     1       1.884   0.988  -0.837  0.00  0.00    +0.168 C 
ATOM     20  S   UNL     1       0.915   2.550  -0.969  0.00  0.00    -0.029 S 
ATOM     21  O   UNL     1       0.720   2.859  -2.342  0.00  0.00    -0.174 OA
ATOM     22  O   UNL     1       1.489   3.523  -0.107  0.00  0.00    -0.174 OA
ATOM     23  C   UNL     1      -0.680   1.980  -0.251  0.00  0.00    +0.188 C 
ENDBRANCH  14  17
BRANCH  14  25
ATOM     24  C   UNL     1      -1.674  -1.892  -1.815  0.00  0.00    +0.024 C 
ATOM     25  C   UNL     1      -2.158  -0.539  -1.291  0.00  0.00    +0.104 C 
ENDBRANCH  14  25
ENDBRANCH   1  15
TORSDOF 5
