REMARK  Name = ZINC36223143
REMARK  8 active torsions:
REMARK  status: ('A' for Active; 'I' for Inactive)
REMARK    1  A    between atoms: C_1  and  C_2
REMARK    2  A    between atoms: C_2  and  C_3
REMARK    3  A    between atoms: C_2  and  C_4
REMARK    4  A    between atoms: C_7  and  C_10
REMARK    5  A    between atoms: C_10  and  O_11
REMARK    6  A    between atoms: O_11  and  C_12
REMARK    7  A    between atoms: C_19  and  C_21
REMARK    8  A    between atoms: C_21  and  N_22
REMARK                            x       y       z     vdW  Elec       q    Type
REMARK                         _______ _______ _______ _____ _____    ______ ____
ROOT
ATOM      1  C   UNL     1       3.225  -1.292   6.936  0.00  0.00    +0.164 A 
ATOM      2  C   UNL     1       3.956  -2.437   7.066  0.00  0.00    +0.051 A 
ATOM      3  C   UNL     1       4.569  -2.735   8.294  0.00  0.00    +0.022 A 
ATOM      4  C   UNL     1       4.438  -1.896   9.342  0.00  0.00    +0.093 A 
ATOM      5  N   UNL     1       3.709  -0.746   9.229  0.00  0.00    -0.303 N 
ATOM      6  C   UNL     1       3.103  -0.422   8.044  0.00  0.00    +0.180 A 
ATOM      7  N   UNL     1       2.474   0.734   8.206  0.00  0.00    -0.231 NA
ATOM      8  C   UNL     1       2.663   1.163   9.455  0.00  0.00    +0.043 A 
ATOM      9  C   UNL     1       3.420   0.258  10.113  0.00  0.00    +0.114 A 
ENDROOT
BRANCH   1  10
ATOM     10  O   UNL     1       2.626  -0.989   5.755  0.00  0.00    -0.484 OA
BRANCH  10  11
ATOM     11  C   UNL     1       2.797  -1.919   4.683  0.00  0.00    +0.264 C 
BRANCH  11  15
ATOM     12  C   UNL     1       0.731  -0.503   1.223  0.00  0.00    -0.045 A 
ATOM     13  C   UNL     1       2.050  -0.148   1.434  0.00  0.00    +0.004 A 
ATOM     14  C   UNL     1       2.719  -0.606   2.554  0.00  0.00    +0.007 A 
ATOM     15  C   UNL     1       2.068  -1.419   3.463  0.00  0.00    -0.010 A 
ATOM     16  C   UNL     1       0.749  -1.773   3.252  0.00  0.00    +0.007 A 
ATOM     17  C   UNL     1       0.079  -1.312   2.135  0.00  0.00    +0.004 A 
BRANCH  12  19
ATOM     18  C   UNL     1      -0.019   1.526   0.010  0.00  0.00    +0.012 C 
ATOM     19  C   UNL     1       0.002  -0.004   0.002  0.00  0.00    +0.013 C 
ATOM     20  C   UNL     1       0.718  -0.497  -1.257  0.00  0.00    +0.012 C 
ENDBRANCH  12  19
ENDBRANCH  11  15
ENDBRANCH  10  11
ENDBRANCH   1  10
BRANCH   8  21
ATOM     21  C   UNL     1       2.113   2.439  10.039  0.00  0.00    -0.028 C 
BRANCH  21  22
ATOM     22  N   UNL     1       3.016   3.553   9.720  0.00  0.00    +0.382 N 
ATOM     23  H   UNL     1       3.928   3.370  10.111  0.00  0.00    -0.090 HD
ATOM     24  H   UNL     1       3.093   3.647   8.718  0.00  0.00    -0.090 HD
ATOM     25  H   UNL     1       2.648   4.407  10.110  0.00  0.00    -0.090 HD
ENDBRANCH  21  22
ENDBRANCH   8  21
TORSDOF 6
