REMARK  Name = ZINC37562191
REMARK  5 active torsions:
REMARK  status: ('A' for Active; 'I' for Inactive)
REMARK    1  A    between atoms: C_1  and  C_2
REMARK    2  A    between atoms: C_9  and  C_11
REMARK    3  A    between atoms: C_11  and  N_12
REMARK    4  A    between atoms: N_12  and  C_13
REMARK    5  A    between atoms: C_16  and  C_19
REMARK                            x       y       z     vdW  Elec       q    Type
REMARK                         _______ _______ _______ _____ _____    ______ ____
ROOT
ATOM      1  N   UNL     1       0.052  -4.886   3.273  0.00  0.00    +0.387 N 
ATOM      2  H   UNL     1       0.572  -4.557   4.073  0.00  0.00    -0.085 HD
ATOM      3  H   UNL     1      -0.921  -4.642   3.381  0.00  0.00    -0.085 HD
ENDROOT
BRANCH   1   4
ATOM      4  C   UNL     1       0.183  -6.345   3.170  0.00  0.00    -0.071 C 
ATOM      5  C   UNL     1      -0.704  -6.857   2.033  0.00  0.00    -0.015 C 
ATOM      6  C   UNL     1      -0.568  -8.377   1.925  0.00  0.00    +0.013 C 
ATOM      7  C   UNL     1      -1.002  -9.023   3.242  0.00  0.00    +0.102 C 
ATOM      8  C   UNL     1      -0.116  -8.511   4.378  0.00  0.00    +0.013 C 
ATOM      9  C   UNL     1      -0.252  -6.991   4.487  0.00  0.00    -0.015 C 
BRANCH   7  10
ATOM     10  C   UNL     1      -0.868 -10.520   3.135  0.00  0.00    +0.359 C 
ATOM     11  O   UNL     1      -0.623 -11.183   4.129  0.00  0.00    -0.246 OA
ATOM     12  O   UNL     1      -1.005 -11.069   2.055  0.00  0.00    -0.246 OA
ENDBRANCH   7  10
ENDBRANCH   1   4
BRANCH   1  13
ATOM     13  C   UNL     1       0.581  -4.259   2.055  0.00  0.00    +0.015 C 
BRANCH  13  21
ATOM     14  C   UNL     1      -0.019   1.526   0.010  0.00  0.00    +0.009 C 
ATOM     15  C   UNL     1       0.002  -0.004   0.002  0.00  0.00    +0.003 C 
ATOM     16  C   UNL     1       0.720  -0.498  -1.256  0.00  0.00    +0.006 C 
ATOM     17  C   UNL     1       0.712  -2.028  -1.282  0.00  0.00    +0.019 C 
ATOM     18  C   UNL     1       1.463  -2.559  -0.057  0.00  0.00    +0.107 C 
ATOM     19  N   UNL     1       0.869  -1.973   1.153  0.00  0.00    -0.303 N 
ATOM     20  C   UNL     1       0.744  -0.512   1.242  0.00  0.00    +0.111 C 
ATOM     21  C   UNL     1       0.447  -2.761   2.161  0.00  0.00    +0.199 C 
ATOM     22  O   UNL     1      -0.042  -2.265   3.154  0.00  0.00    -0.278 OA
ENDBRANCH  13  21
ENDBRANCH   1  13
TORSDOF 4
