REMARK  Name = ZINC40689289
REMARK  10 active torsions:
REMARK  status: ('A' for Active; 'I' for Inactive)
REMARK    1  A    between atoms: C_1  and  C_2
REMARK    2  A    between atoms: C_2  and  C_3
REMARK    3  A    between atoms: C_3  and  C_4
REMARK    4  A    between atoms: C_3  and  C_5
REMARK    5  A    between atoms: C_3  and  C_6
REMARK    6  A    between atoms: C_10  and  N_24
REMARK    7  A    between atoms: C_12  and  N_15
REMARK    8  A    between atoms: C_18  and  O_21
REMARK    9  A    between atoms: O_21  and  C_22
REMARK   10  A    between atoms: C_22  and  C_23
REMARK                            x       y       z     vdW  Elec       q    Type
REMARK                         _______ _______ _______ _____ _____    ______ ____
ROOT
ATOM      1  C   UNL     1      -2.460  -2.013  -0.514  0.00  0.00    -0.007 C 
ATOM      2  C   UNL     1      -1.149  -2.118   0.267  0.00  0.00    +0.002 C 
ATOM      3  C   UNL     1      -0.782  -3.592   0.453  0.00  0.00    -0.018 C 
ATOM      4  C   UNL     1      -1.896  -4.300   1.228  0.00  0.00    -0.089 C 
ATOM      5  C   UNL     1      -3.207  -4.195   0.447  0.00  0.00    -0.083 C 
ATOM      6  C   UNL     1      -3.573  -2.721   0.261  0.00  0.00    -0.013 C 
ENDROOT
BRANCH   5   7
ATOM      7  N   UNL     1      -3.046  -4.829  -0.868  0.00  0.00    +0.381 N 
ATOM      8  C   UNL     1      -3.157  -6.285  -0.724  0.00  0.00    -0.076 C 
ATOM      9  C   UNL     1      -2.909  -6.956  -2.077  0.00  0.00    +0.013 C 
ATOM     10  C   UNL     1      -3.951  -6.460  -3.084  0.00  0.00    +0.115 C 
ATOM     11  C   UNL     1      -3.877  -4.933  -3.171  0.00  0.00    +0.013 C 
ATOM     12  C   UNL     1      -4.088  -4.338  -1.777  0.00  0.00    -0.076 C 
ATOM     13  H   UNL     1      -2.138  -4.598  -1.243  0.00  0.00    -0.082 HD
BRANCH  10  14
ATOM     14  O   UNL     1      -3.681  -7.026  -4.369  0.00  0.00    -0.377 OA
BRANCH  14  15
ATOM     15  C   UNL     1      -4.844  -7.218  -5.175  0.00  0.00    +0.157 C 
ATOM     16  C   UNL     1      -4.438  -7.825  -6.520  0.00  0.00    +0.034 C 
ENDBRANCH  14  15
ENDBRANCH  10  14
ENDBRANCH   5   7
BRANCH   4  17
ATOM     17  N   UNL     1      -1.544  -5.715   1.407  0.00  0.00    +0.379 N 
ATOM     18  H   UNL     1      -0.878  -5.804   2.159  0.00  0.00    -0.090 HD
ATOM     19  H   UNL     1      -2.375  -6.242   1.629  0.00  0.00    -0.090 HD
ATOM     20  H   UNL     1      -1.138  -6.071   0.554  0.00  0.00    -0.090 HD
ENDBRANCH   4  17
BRANCH   1  21
ATOM     21  C   UNL     1      -2.826  -0.539  -0.700  0.00  0.00    -0.032 C 
ATOM     22  C   UNL     1      -2.994   0.122   0.670  0.00  0.00    +0.011 C 
ATOM     23  C   UNL     1      -4.138  -0.433  -1.480  0.00  0.00    +0.011 C 
BRANCH  21  25
ATOM     24  C   UNL     1      -2.079   1.643  -1.660  0.00  0.00    +0.004 C 
ATOM     25  C   UNL     1      -1.713   0.169  -1.474  0.00  0.00    +0.003 C 
ENDBRANCH  21  25
ENDBRANCH   1  21
TORSDOF 6
