REMARK  Name = ZINC36335125
REMARK  7 active torsions:
REMARK  status: ('A' for Active; 'I' for Inactive)
REMARK    1  A    between atoms: C_1  and  N_2
REMARK    2  A    between atoms: N_2  and  C_3
REMARK    3  A    between atoms: N_2  and  C_4
REMARK    4  A    between atoms: C_7  and  N_10
REMARK    5  A    between atoms: N_10  and  S_11
REMARK    6  A    between atoms: S_11  and  C_14
REMARK    7  A    between atoms: C_19  and  N_20
REMARK                            x       y       z     vdW  Elec       q    Type
REMARK                         _______ _______ _______ _____ _____    ______ ____
ROOT
ATOM      1  S   UNL     1      -1.128  -2.388  -6.025  0.00  0.00    +0.074 S 
ATOM      2  O   UNL     1      -1.065  -3.284  -7.126  0.00  0.00    -0.150 OA
ATOM      3  O   UNL     1      -2.308  -2.212  -5.252  0.00  0.00    -0.150 OA
ENDROOT
BRANCH   1   4
ATOM      4  C   UNL     1      -0.691  -0.797  -6.645  0.00  0.00    +0.129 A 
ATOM      5  C   UNL     1      -1.491   0.295  -6.373  0.00  0.00    +0.032 A 
ATOM      6  C   UNL     1      -1.149   1.543  -6.859  0.00  0.00    +0.022 A 
ATOM      7  C   UNL     1      -0.004   1.703  -7.620  0.00  0.00    +0.043 A 
ATOM      8  C   UNL     1       0.801   0.614  -7.896  0.00  0.00    +0.044 A 
ATOM      9  C   UNL     1       0.463  -0.640  -7.404  0.00  0.00    +0.053 A 
ATOM     10 CL   UNL     1       0.422   3.272  -8.228  0.00  0.00    -0.083 Cl
BRANCH   9  11
ATOM     11  N   UNL     1       1.277  -1.742  -7.675  0.00  0.00    -0.356 N 
ATOM     12  H   UNL     1       1.082  -2.601  -7.269  0.00  0.00    +0.142 HD
ATOM     13  H   UNL     1       2.038  -1.648  -8.270  0.00  0.00    +0.142 HD
ENDBRANCH   9  11
ENDBRANCH   1   4
BRANCH   1  14
ATOM     14  N   UNL     1       0.064  -2.847  -4.972  0.00  0.00    -0.216 N 
ATOM     15  H   UNL     1       0.641  -3.596  -5.189  0.00  0.00    +0.174 HD
BRANCH  14  19
ATOM     16  C   UNL     1       0.586  -0.786  -1.385  0.00  0.00    +0.029 A 
ATOM     17  C   UNL     1       0.573  -2.175  -1.392  0.00  0.00    +0.025 A 
ATOM     18  C   UNL     1       0.400  -2.857  -2.580  0.00  0.00    +0.026 A 
ATOM     19  C   UNL     1       0.239  -2.155  -3.767  0.00  0.00    +0.048 A 
ATOM     20  C   UNL     1       0.251  -0.767  -3.760  0.00  0.00    +0.026 A 
ATOM     21  C   UNL     1       0.419  -0.084  -2.571  0.00  0.00    +0.025 A 
BRANCH  16  23
ATOM     22  C   UNL     1       0.769   1.371  -0.172  0.00  0.00    +0.129 C 
ATOM     23  N   UNL     1       0.762  -0.094  -0.181  0.00  0.00    -0.336 N 
ATOM     24  C   UNL     1       0.938  -0.835   1.071  0.00  0.00    +0.129 C 
ENDBRANCH  16  23
ENDBRANCH  14  19
ENDBRANCH   1  14
TORSDOF 5
