REMARK  Name = ZINC00315384
REMARK  5 active torsions:
REMARK  status: ('A' for Active; 'I' for Inactive)
REMARK    1  A    between atoms: C_1  and  C_2
REMARK    2  A    between atoms: C_5  and  C_8
REMARK    3  A    between atoms: C_8  and  C_10
REMARK    4  A    between atoms: C_8  and  O_24
REMARK    5  A    between atoms: C_10  and  N_11
REMARK                            x       y       z     vdW  Elec       q    Type
REMARK                         _______ _______ _______ _____ _____    ______ ____
ROOT
ATOM      1  N   UNL     1      -1.351  -6.269   0.101  0.00  0.00    -0.270 N 
ATOM      2  C   UNL     1      -1.439  -7.083  -1.030  0.00  0.00    +0.058 A 
ATOM      3  C   UNL     1      -1.554  -6.801  -2.383  0.00  0.00    +0.025 A 
ATOM      4  C   UNL     1      -1.621  -7.831  -3.300  0.00  0.00    +0.002 A 
ATOM      5  C   UNL     1      -1.575  -9.147  -2.873  0.00  0.00    +0.002 A 
ATOM      6  C   UNL     1      -1.461  -9.439  -1.528  0.00  0.00    +0.025 A 
ATOM      7  C   UNL     1      -1.393  -8.411  -0.598  0.00  0.00    +0.058 A 
ATOM      8  N   UNL     1      -1.284  -8.390   0.784  0.00  0.00    -0.273 N 
ATOM      9  C   UNL     1      -1.238  -7.075   1.199  0.00  0.00    +0.168 C 
ATOM     10  N   UNL     1      -1.117  -6.725   2.453  0.00  0.00    -0.360 N 
ATOM     11  C   UNL     1      -0.970  -7.763   3.478  0.00  0.00    +0.117 C 
ATOM     12  C   UNL     1      -1.729  -9.028   3.075  0.00  0.00    +0.040 C 
ATOM     13  C   UNL     1      -1.223  -9.523   1.715  0.00  0.00    +0.115 C 
ATOM     14  H   UNL     1      -1.123  -5.788   2.702  0.00  0.00    +0.162 HD
ENDROOT
BRANCH   1  15
ATOM     15  C   UNL     1      -1.370  -4.804   0.109  0.00  0.00    +0.149 C 
BRANCH  15  16
ATOM     16  C   UNL     1       0.059  -4.275  -0.021  0.00  0.00    +0.162 C 
BRANCH  16  21
ATOM     17  C   UNL     1      -0.018   1.503   0.010  0.00  0.00    +0.044 C 
ATOM     18  C   UNL     1       0.002  -0.004   0.002  0.00  0.00    -0.050 A 
ATOM     19  C   UNL     1       0.006  -0.689  -1.199  0.00  0.00    +0.004 A 
ATOM     20  C   UNL     1       0.025  -2.071  -1.206  0.00  0.00    +0.006 A 
ATOM     21  C   UNL     1       0.040  -2.768  -0.013  0.00  0.00    -0.018 A 
ATOM     22  C   UNL     1       0.037  -2.084   1.188  0.00  0.00    +0.006 A 
ATOM     23  C   UNL     1       0.023  -0.702   1.195  0.00  0.00    +0.004 A 
ENDBRANCH  16  21
BRANCH  16  24
ATOM     24  O   UNL     1       0.844  -4.748   1.075  0.00  0.00    -0.386 OA
ATOM     25  H   UNL     1       0.516  -4.471   1.942  0.00  0.00    +0.210 HD
ENDBRANCH  16  24
ENDBRANCH  15  16
ENDBRANCH   1  15
TORSDOF 4
