REMARK  Name = ZINC63399212
REMARK  11 active torsions:
REMARK  status: ('A' for Active; 'I' for Inactive)
REMARK    1  A    between atoms: C_1  and  C_2
REMARK    2  A    between atoms: C_2  and  C_3
REMARK    3  A    between atoms: C_3  and  C_4
REMARK    4  A    between atoms: C_4  and  N_5
REMARK    5  A    between atoms: C_6  and  N_36
REMARK    6  A    between atoms: C_8  and  N_15
REMARK    7  A    between atoms: N_15  and  C_16
REMARK    8  A    between atoms: C_16  and  C_17
REMARK    9  A    between atoms: C_23  and  C_25
REMARK   10  A    between atoms: C_25  and  C_26
REMARK   11  A    between atoms: C_26  and  C_27
REMARK                            x       y       z     vdW  Elec       q    Type
REMARK                         _______ _______ _______ _____ _____    ______ ____
ROOT
ATOM      1  N   UNL     1       5.164  -2.916   3.888  0.00  0.00    -0.286 N 
ATOM      2  C   UNL     1       5.330  -4.220   3.590  0.00  0.00    +0.217 C 
ATOM      3  O   UNL     1       4.390  -4.983   3.664  0.00  0.00    -0.276 OA
ENDROOT
BRANCH   1   6
ATOM      4  N   UNL     1       1.580  -2.193   3.237  0.00  0.00    -0.296 N 
ATOM      5  C   UNL     1       2.990  -2.397   2.893  0.00  0.00    +0.047 C 
ATOM      6  C   UNL     1       3.826  -2.395   4.176  0.00  0.00    +0.167 C 
ATOM      7  C   UNL     1       3.156  -3.266   5.207  0.00  0.00    +0.261 C 
ATOM      8  O   UNL     1       3.904  -3.951   6.087  0.00  0.00    -0.272 OA
ATOM      9  N   UNL     1       1.857  -3.361   5.251  0.00  0.00    -0.126 NA
ATOM     10  C   UNL     1       1.075  -2.716   4.368  0.00  0.00    +0.327 C 
ATOM     11  O   UNL     1      -0.115  -2.608   4.595  0.00  0.00    -0.250 OA
BRANCH   5  12
ATOM     12  N   UNL     1       3.147  -3.685   2.205  0.00  0.00    +0.392 N 
ATOM     13  H   UNL     1       2.603  -3.681   1.355  0.00  0.00    -0.087 HD
ATOM     14  H   UNL     1       4.120  -3.831   1.982  0.00  0.00    -0.087 HD
ATOM     15  H   UNL     1       2.825  -4.429   2.807  0.00  0.00    -0.087 HD
ENDBRANCH   5  12
BRANCH   4  16
ATOM     16  C   UNL     1       0.718  -1.411   2.347  0.00  0.00    +0.107 C 
BRANCH  16  17
ATOM     17  C   UNL     1       0.771   0.063   2.752  0.00  0.00    +0.019 C 
BRANCH  17  19
ATOM     18  C   UNL     1      -0.075   2.355   2.227  0.00  0.00    +0.004 C 
ATOM     19  C   UNL     1      -0.129   0.880   1.823  0.00  0.00    -0.002 C 
ENDBRANCH  17  19
ENDBRANCH  16  17
ENDBRANCH   4  16
ENDBRANCH   1   6
BRANCH   1  20
ATOM     20  C   UNL     1       6.323  -2.020   3.924  0.00  0.00    +0.143 C 
BRANCH  20  21
ATOM     21  C   UNL     1       6.820  -1.898   5.342  0.00  0.00    -0.030 A 
ATOM     22  C   UNL     1       6.240  -0.983   6.201  0.00  0.00    +0.005 A 
ATOM     23  C   UNL     1       6.696  -0.872   7.501  0.00  0.00    +0.000 A 
ATOM     24  C   UNL     1       7.731  -1.675   7.942  0.00  0.00    +0.000 A 
ATOM     25  C   UNL     1       8.309  -2.591   7.084  0.00  0.00    +0.000 A 
ATOM     26  C   UNL     1       7.851  -2.706   5.785  0.00  0.00    +0.005 A 
ENDBRANCH  20  21
ENDBRANCH   1  20
BRANCH   2  27
ATOM     27  C   UNL     1       6.683  -4.730   3.165  0.00  0.00    +0.100 C 
BRANCH  27  28
ATOM     28  C   UNL     1       6.572  -6.203   2.769  0.00  0.00    +0.042 C 
BRANCH  28  29
ATOM     29  C   UNL     1       7.925  -6.713   2.345  0.00  0.00    -0.041 C 
ATOM     30  C   UNL     1       8.825  -7.367   3.113  0.00  0.00    -0.001 A 
ATOM     31  C   UNL     1       8.816  -7.782   4.521  0.00  0.00    +0.010 A 
ATOM     32  C   UNL     1       9.889  -8.436   5.020  0.00  0.00    +0.001 A 
ATOM     33  C   UNL     1      11.009  -8.726   4.228  0.00  0.00    +0.002 A 
ATOM     34  C   UNL     1      11.091  -8.377   2.926  0.00  0.00    +0.026 A 
ATOM     35  C   UNL     1      10.019  -7.686   2.298  0.00  0.00    +0.043 A 
ATOM     36  N   UNL     1       9.863  -7.246   1.073  0.00  0.00    -0.380 N 
ATOM     37  C   UNL     1       8.548  -6.603   0.971  0.00  0.00    +0.144 C 
ATOM     38  H   UNL     1      10.507  -7.335   0.353  0.00  0.00    +0.160 HD
ENDBRANCH  28  29
ENDBRANCH  27  28
ENDBRANCH   2  27
TORSDOF 10
