REMARK  Name = ZINC40825070
REMARK  9 active torsions:
REMARK  status: ('A' for Active; 'I' for Inactive)
REMARK    1  A    between atoms: C_1  and  C_2
REMARK    2  A    between atoms: C_6  and  C_7
REMARK    3  A    between atoms: N_9  and  C_10
REMARK    4  A    between atoms: N_9  and  C_11
REMARK    5  A    between atoms: N_14  and  C_17
REMARK    6  A    between atoms: N_22  and  N_23
REMARK    7  A    between atoms: N_23  and  C_24
REMARK    8  A    between atoms: C_24  and  N_26
REMARK    9  A    between atoms: N_26  and  C_27
REMARK                            x       y       z     vdW  Elec       q    Type
REMARK                         _______ _______ _______ _____ _____    ______ ____
ROOT
ATOM      1  C   UNL     1       1.674   1.765   0.494  0.00  0.00    +0.048 C 
ATOM      2  C   UNL     1       1.494   0.275   0.635  0.00  0.00    +0.009 A 
ATOM      3  C   UNL     1       1.287  -0.648  -0.397  0.00  0.00    +0.042 A 
ATOM      4  C   UNL     1       1.174  -1.891   0.178  0.00  0.00    +0.115 A 
ATOM      5  O   UNL     1       1.307  -1.749   1.495  0.00  0.00    -0.454 OA
ATOM      6  C   UNL     1       1.506  -0.446   1.797  0.00  0.00    +0.193 A 
ATOM      7  C   UNL     1       0.938  -3.147  -0.622  0.00  0.00    +0.075 C 
ATOM      8  C   UNL     1       0.351  -2.777  -1.987  0.00  0.00    +0.014 C 
ATOM      9  C   UNL     1       1.225  -1.731  -2.686  0.00  0.00    +0.058 C 
ATOM     10  C   UNL     1       1.191  -0.453  -1.861  0.00  0.00    +0.070 C 
ATOM     11  N   UNL     1       1.084   0.722  -2.401  0.00  0.00    -0.185 NA
ENDROOT
BRANCH   6  12
ATOM     12  C   UNL     1       1.699   0.102   3.144  0.00  0.00    +0.282 C 
ATOM     13  O   UNL     1       1.998   1.273   3.288  0.00  0.00    -0.267 OA
ATOM     14  N   UNL     1       1.545  -0.691   4.223  0.00  0.00    -0.295 N 
ATOM     15  C   UNL     1       1.216  -2.108   4.049  0.00  0.00    +0.132 C 
BRANCH  14  16
ATOM     16  C   UNL     1       1.708  -0.137   5.569  0.00  0.00    +0.073 C 
ATOM     17  C   UNL     1       2.834  -0.877   6.295  0.00  0.00    +0.004 C 
ATOM     18  C   UNL     1       2.945  -0.347   7.727  0.00  0.00    -0.077 C 
ATOM     19  N   UNL     1       1.678  -0.567   8.433  0.00  0.00    +0.378 N 
ATOM     20  C   UNL     1       0.606   0.197   7.784  0.00  0.00    -0.077 C 
ATOM     21  C   UNL     1       0.405  -0.311   6.355  0.00  0.00    +0.004 C 
ATOM     22  C   UNL     1       1.814  -0.129   9.829  0.00  0.00    -0.096 C 
ATOM     23  H   UNL     1       1.449  -1.550   8.413  0.00  0.00    -0.082 HD
ENDBRANCH  14  16
ENDBRANCH   6  12
BRANCH  11  24
ATOM     24  N   UNL     1       0.997   0.847  -3.794  0.00  0.00    -0.218 N 
ATOM     25  H   UNL     1       1.015   0.055  -4.354  0.00  0.00    +0.176 HD
BRANCH  24  26
ATOM     26  C   UNL     1       0.886   2.067  -4.355  0.00  0.00    +0.154 C 
ATOM     27  S   UNL     1       0.779   2.220  -6.057  0.00  0.00    -0.017 S 
BRANCH  26  28
ATOM     28  N   UNL     1       0.860   3.167  -3.577  0.00  0.00    -0.296 N 
ATOM     29  H   UNL     1       0.859   3.078  -2.611  0.00  0.00    +0.154 HD
BRANCH  28  30
ATOM     30  C   UNL     1       0.836   4.437  -4.162  0.00  0.00    +0.033 A 
ATOM     31  C   UNL     1      -0.037   4.705  -5.208  0.00  0.00    +0.023 A 
ATOM     32  C   UNL     1      -0.059   5.960  -5.783  0.00  0.00    +0.002 A 
ATOM     33  C   UNL     1       0.788   6.950  -5.319  0.00  0.00    +0.000 A 
ATOM     34  C   UNL     1       1.659   6.686  -4.278  0.00  0.00    +0.002 A 
ATOM     35  C   UNL     1       1.681   5.435  -3.694  0.00  0.00    +0.023 A 
ENDBRANCH  28  30
ENDBRANCH  26  28
ENDBRANCH  24  26
ENDBRANCH  11  24
TORSDOF 6
