REMARK  Name = ZINC10814108
REMARK  10 active torsions:
REMARK  status: ('A' for Active; 'I' for Inactive)
REMARK    1  A    between atoms: C_1  and  C_2
REMARK    2  A    between atoms: C_2  and  C_4
REMARK    3  A    between atoms: C_2  and  O_16
REMARK    4  A    between atoms: N_6  and  C_7
REMARK    5  A    between atoms: C_9  and  C_14
REMARK    6  A    between atoms: C_9  and  C_15
REMARK    7  A    between atoms: C_10  and  C_12
REMARK    8  A    between atoms: C_10  and  C_13
REMARK    9  A    between atoms: O_16  and  C_17
REMARK   10  A    between atoms: C_20  and  C_23
REMARK                            x       y       z     vdW  Elec       q    Type
REMARK                         _______ _______ _______ _____ _____    ______ ____
ROOT
ATOM      1  C   UNL     1       0.201   5.608  -2.531  0.00  0.00    +0.254 C 
ATOM      2  O   UNL     1      -0.254   5.058  -3.512  0.00  0.00    -0.272 OA
ATOM      3  N   UNL     1       0.651   4.873  -1.495  0.00  0.00    -0.310 N 
ATOM      4  H   UNL     1       1.015   5.312  -0.711  0.00  0.00    +0.149 HD
ENDROOT
BRANCH   3   5
ATOM      5  C   UNL     1       0.589   3.407  -1.553  0.00  0.00    +0.070 C 
ATOM      6  C   UNL     1       1.659   2.822  -0.632  0.00  0.00    +0.009 C 
ATOM      7  C   UNL     1       1.605   1.296  -0.657  0.00  0.00    -0.072 C 
ATOM      8  C   UNL     1      -0.866   1.417  -1.090  0.00  0.00    -0.072 C 
ATOM      9  C   UNL     1      -0.781   2.941  -1.063  0.00  0.00    +0.009 C 
ATOM     10  C   UNL     1      -1.038   0.939  -2.537  0.00  0.00    -0.010 C 
ATOM     11  C   UNL     1      -2.141   1.008  -0.319  0.00  0.00    -0.010 C 
ATOM     12  C   UNL     1       2.499   0.780   0.492  0.00  0.00    -0.010 C 
ATOM     13  C   UNL     1       2.210   0.783  -1.969  0.00  0.00    -0.010 C 
ATOM     14  N   UNL     1       0.258   0.714  -0.415  0.00  0.00    +0.386 N 
ATOM     15  H   UNL     1       0.081   0.731   0.597  0.00  0.00    -0.084 HD
ATOM     16  H   UNL     1       0.268  -0.259  -0.744  0.00  0.00    -0.084 HD
ENDBRANCH   3   5
BRANCH   1  18
ATOM     17  C   UNL     1      -0.656   7.618  -1.359  0.00  0.00    +0.062 C 
ATOM     18  C   UNL     1       0.264   7.112  -2.472  0.00  0.00    +0.255 C 
BRANCH  18  19
ATOM     19  O   UNL     1      -0.158   7.657  -3.724  0.00  0.00    -0.480 OA
BRANCH  19  20
ATOM     20  C   UNL     1       0.303   8.892  -4.046  0.00  0.00    +0.122 A 
ATOM     21  C   UNL     1       0.029   9.429  -5.298  0.00  0.00    +0.047 A 
ATOM     22  C   UNL     1       0.491  10.684  -5.627  0.00  0.00    +0.022 A 
ATOM     23  C   UNL     1       1.246  11.413  -4.704  0.00  0.00    +0.052 A 
ATOM     24  C   UNL     1       1.524  10.867  -3.448  0.00  0.00    +0.022 A 
ATOM     25  C   UNL     1       1.054   9.613  -3.126  0.00  0.00    +0.047 A 
BRANCH  23  26
ATOM     26  C   UNL     1       1.733  12.716  -5.044  0.00  0.00    +0.099 C 
ATOM     27  N   UNL     1       2.120  13.749  -5.314  0.00  0.00    -0.191 NA
ENDBRANCH  23  26
ENDBRANCH  19  20
ENDBRANCH  18  19
ENDBRANCH   1  18
TORSDOF 5
