REMARK  Name = ZINC57788880
REMARK  10 active torsions:
REMARK  status: ('A' for Active; 'I' for Inactive)
REMARK    1  A    between atoms: C_1  and  C_2
REMARK    2  A    between atoms: C_2  and  C_3
REMARK    3  A    between atoms: N_6  and  C_18
REMARK    4  A    between atoms: C_9  and  C_14
REMARK    5  A    between atoms: C_14  and  C_15
REMARK    6  A    between atoms: C_14  and  C_16
REMARK    7  A    between atoms: C_14  and  C_17
REMARK    8  A    between atoms: C_18  and  C_20
REMARK    9  A    between atoms: C_18  and  C_21
REMARK   10  A    between atoms: C_21  and  N_22
REMARK                            x       y       z     vdW  Elec       q    Type
REMARK                         _______ _______ _______ _____ _____    ______ ____
ROOT
ATOM      1  C   UNL     1      -1.664  -0.394  -0.018  0.00  0.00    +0.190 C 
ATOM      2  C   UNL     1      -1.506  -1.906  -0.232  0.00  0.00    +0.150 C 
ATOM      3  N   UNL     1      -2.830  -2.523  -0.048  0.00  0.00    -0.323 N 
ATOM      4  C   UNL     1      -3.623  -2.063   1.015  0.00  0.00    +0.073 A 
ATOM      5  C   UNL     1      -4.737  -2.785   1.414  0.00  0.00    +0.031 A 
ATOM      6  C   UNL     1      -5.517  -2.325   2.460  0.00  0.00    -0.040 A 
ATOM      7  C   UNL     1      -5.185  -1.149   3.106  0.00  0.00    +0.008 A 
ATOM      8  C   UNL     1      -4.074  -0.427   2.713  0.00  0.00    +0.048 A 
ATOM      9  C   UNL     1      -3.286  -0.880   1.667  0.00  0.00    +0.142 A 
ATOM     10  O   UNL     1      -2.192  -0.164   1.291  0.00  0.00    -0.485 OA
ENDROOT
BRANCH   6  11
ATOM     11  C   UNL     1      -6.729  -3.108   2.895  0.00  0.00    -0.013 C 
ATOM     12  C   UNL     1      -6.299  -4.508   3.340  0.00  0.00    +0.015 C 
ATOM     13  C   UNL     1      -7.409  -2.388   4.061  0.00  0.00    +0.015 C 
ATOM     14  C   UNL     1      -7.709  -3.224   1.726  0.00  0.00    +0.015 C 
ENDBRANCH   6  11
BRANCH   1  16
ATOM     15  C   UNL     1      -0.478   1.804  -0.052  0.00  0.00    +0.007 C 
ATOM     16  C   UNL     1      -0.301   0.288  -0.148  0.00  0.00    +0.043 C 
ENDBRANCH   1  16
BRANCH   3  17
ATOM     17  C   UNL     1      -3.305  -3.581  -0.945  0.00  0.00    +0.053 C 
ATOM     18  C   UNL     1      -3.267  -3.079  -2.390  0.00  0.00    +0.026 C 
BRANCH  17  19
ATOM     19  C   UNL     1      -2.402  -4.809  -0.808  0.00  0.00    -0.064 C 
BRANCH  19  20
ATOM     20  N   UNL     1      -2.344  -5.218   0.602  0.00  0.00    +0.379 N 
ATOM     21  H   UNL     1      -1.970  -4.463   1.157  0.00  0.00    -0.090 HD
ATOM     22  H   UNL     1      -3.272  -5.446   0.925  0.00  0.00    -0.090 HD
ATOM     23  H   UNL     1      -1.749  -6.028   0.692  0.00  0.00    -0.090 HD
ENDBRANCH  19  20
ENDBRANCH  17  19
ENDBRANCH   3  17
TORSDOF 5
