REMARK  Name = ZINC39637420
REMARK  7 active torsions:
REMARK  status: ('A' for Active; 'I' for Inactive)
REMARK    1  A    between atoms: C_1  and  C_2
REMARK    2  A    between atoms: C_7  and  N_12
REMARK    3  A    between atoms: C_9  and  C_11
REMARK    4  A    between atoms: C_13  and  C_15
REMARK    5  A    between atoms: C_26  and  C_28
REMARK    6  A    between atoms: C_32  and  O_33
REMARK    7  A    between atoms: O_33  and  C_34
REMARK                            x       y       z     vdW  Elec       q    Type
REMARK                         _______ _______ _______ _____ _____    ______ ____
ROOT
ATOM      1  C   UNL     1       1.943  -4.255   4.106  0.00  0.00    +0.100 C 
ATOM      2  C   UNL     1       3.438  -4.488   3.792  0.00  0.00    +0.121 C 
ATOM      3  N   UNL     1       3.799  -5.700   4.565  0.00  0.00    -0.296 N 
ATOM      4  C   UNL     1       2.618  -6.586   4.433  0.00  0.00    +0.115 C 
ATOM      5  C   UNL     1       1.408  -5.635   4.525  0.00  0.00    -0.004 C 
ATOM      6  C   UNL     1       0.307  -6.087   3.571  0.00  0.00    -0.010 C 
ATOM      7  C   UNL     1      -0.249  -7.434   4.042  0.00  0.00    -0.082 C 
ATOM      8  N   UNL     1      -0.780  -7.297   5.403  0.00  0.00    +0.379 N 
ATOM      9  C   UNL     1       0.304  -6.952   6.331  0.00  0.00    -0.082 C 
ATOM     10  C   UNL     1       0.883  -5.585   5.957  0.00  0.00    -0.010 C 
ATOM     11  C   UNL     1       4.942  -5.941   5.237  0.00  0.00    +0.251 C 
ATOM     12  O   UNL     1       5.785  -5.070   5.336  0.00  0.00    -0.270 OA
ATOM     13  H   UNL     1      -1.478  -6.569   5.419  0.00  0.00    -0.086 HD
ATOM     14  H   UNL     1      -1.201  -8.169   5.688  0.00  0.00    -0.086 HD
ENDROOT
BRANCH  11  15
ATOM     15  C   UNL     1       5.170  -7.259   5.849  0.00  0.00    +0.087 A 
ATOM     16  C   UNL     1       4.710  -8.417   5.262  0.00  0.00    +0.063 A 
ATOM     17  S   UNL     1       5.202  -9.634   6.307  0.00  0.00    -0.081 S 
ATOM     18  C   UNL     1       6.029  -8.665   7.549  0.00  0.00    +0.120 A 
ATOM     19  C   UNL     1       5.894  -7.400   7.092  0.00  0.00    +0.158 A 
ATOM     20 CL   UNL     1       6.822  -9.212   8.993  0.00  0.00    -0.072 Cl
BRANCH  19  21
ATOM     21  O   UNL     1       6.402  -6.329   7.762  0.00  0.00    -0.492 OA
ATOM     22  C   UNL     1       5.553  -5.706   8.728  0.00  0.00    +0.277 C 
ENDBRANCH  19  21
ENDBRANCH  11  15
BRANCH   1  24
ATOM     23  N   UNL     1       0.049  -3.107   3.005  0.00  0.00    -0.312 N 
ATOM     24  C   UNL     1       1.220  -3.763   2.879  0.00  0.00    +0.218 C 
ATOM     25  O   UNL     1       1.691  -3.956   1.779  0.00  0.00    -0.275 OA
ATOM     26  H   UNL     1      -0.328  -2.952   3.885  0.00  0.00    +0.149 HD
BRANCH  23  32
ATOM     27  C   UNL     1      -4.377  -1.878   1.176  0.00  0.00    +0.008 C 
ATOM     28  C   UNL     1      -2.883  -2.003   0.872  0.00  0.00    -0.009 C 
ATOM     29  C   UNL     1      -2.329  -0.635   0.467  0.00  0.00    +0.003 C 
ATOM     30  C   UNL     1      -0.834  -0.760   0.163  0.00  0.00    +0.002 C 
ATOM     31  C   UNL     1      -0.100  -1.260   1.408  0.00  0.00    +0.022 C 
ATOM     32  C   UNL     1      -0.654  -2.628   1.812  0.00  0.00    +0.076 C 
ATOM     33  C   UNL     1      -2.148  -2.503   2.117  0.00  0.00    +0.009 C 
ATOM     34  C   UNL     1      -2.703  -3.871   2.521  0.00  0.00    +0.009 C 
ENDBRANCH  23  32
ENDBRANCH   1  24
TORSDOF 4
