REMARK  Name = ZINC09090252
REMARK  7 active torsions:
REMARK  status: ('A' for Active; 'I' for Inactive)
REMARK    1  A    between atoms: C_6  and  C_7
REMARK    2  A    between atoms: C_7  and  C_9
REMARK    3  A    between atoms: C_7  and  N_63
REMARK    4  A    between atoms: C_9  and  N_10
REMARK    5  A    between atoms: N_10  and  C_11
REMARK    6  A    between atoms: C_11  and  N_13
REMARK    7  A    between atoms: C_14  and  C_16
REMARK                            x       y       z     vdW  Elec       q    Type
REMARK                         _______ _______ _______ _____ _____    ______ ____
ROOT
ATOM      1  N   UNL     1      -1.068   1.476  -1.011  0.00  0.00    -0.328 N 
ATOM      2  H   UNL     1      -1.941   1.859  -0.832  0.00  0.00    +0.148 HD
ENDROOT
BRANCH   1   3
ATOM      3  C   UNL     1      -0.680   1.248  -2.282  0.00  0.00    +0.137 C 
ATOM      4  S   UNL     1       0.861   0.572  -2.598  0.00  0.00    -0.018 S 
BRANCH   3   5
ATOM      5  N   UNL     1      -1.505   1.551  -3.303  0.00  0.00    -0.267 N 
ATOM      6  C   UNL     1      -1.118   1.322  -4.573  0.00  0.00    +0.225 C 
ATOM      7  O   UNL     1      -0.027   0.844  -4.797  0.00  0.00    -0.275 OA
ATOM      8  H   UNL     1      -2.378   1.934  -3.124  0.00  0.00    +0.157 HD
BRANCH   6   9
ATOM      9  C   UNL     1      -2.041   1.662  -5.715  0.00  0.00    +0.048 C 
ATOM     10  C   UNL     1      -3.339   0.865  -5.576  0.00  0.00    +0.019 C 
ATOM     11  C   UNL     1      -4.276   1.209  -6.736  0.00  0.00    -0.009 C 
ATOM     12  C   UNL     1      -3.599   0.854  -8.061  0.00  0.00    +0.007 C 
ATOM     13  C   UNL     1      -2.301   1.651  -8.200  0.00  0.00    -0.009 C 
ATOM     14  C   UNL     1      -1.364   1.306  -7.041  0.00  0.00    +0.019 C 
ATOM     15  C   UNL     1      -2.616   3.148  -8.174  0.00  0.00    +0.007 C 
ATOM     16  C   UNL     1      -3.292   3.503  -6.849  0.00  0.00    -0.009 C 
ATOM     17  C   UNL     1      -4.591   2.706  -6.709  0.00  0.00    +0.007 C 
ATOM     18  C   UNL     1      -2.356   3.159  -5.689  0.00  0.00    +0.019 C 
ENDBRANCH   6   9
ENDBRANCH   3   5
ENDBRANCH   1   3
BRANCH   1  19
ATOM     19  C   UNL     1      -0.171   1.147   0.099  0.00  0.00    +0.092 C 
BRANCH  19  20
ATOM     20  C   UNL     1      -0.778   1.647   1.411  0.00  0.00    -0.020 C 
BRANCH  20  26
ATOM     21  C   UNL     1       1.298   1.933   2.779  0.00  0.00    +0.005 A 
ATOM     22  C   UNL     1       2.115   1.577   3.836  0.00  0.00    +0.038 A 
ATOM     23  C   UNL     1       1.753   0.531   4.668  0.00  0.00    +0.123 A 
ATOM     24  C   UNL     1       0.570  -0.153   4.444  0.00  0.00    +0.038 A 
ATOM     25  C   UNL     1      -0.248   0.209   3.390  0.00  0.00    +0.005 A 
ATOM     26  C   UNL     1       0.115   1.253   2.560  0.00  0.00    -0.059 A 
ATOM     27  F   UNL     1       2.554   0.178   5.697  0.00  0.00    -0.205 F 
ENDBRANCH  20  26
BRANCH  20  33
ATOM     28  C   UNL     1      -2.252   3.510   0.942  0.00  0.00    -0.049 C 
ATOM     29  C   UNL     1      -2.356   5.038   0.968  0.00  0.00    +0.141 C 
ATOM     30  O   UNL     1      -1.338   5.594   0.132  0.00  0.00    -0.383 OA
ATOM     31  C   UNL     1      -0.011   5.224   0.517  0.00  0.00    +0.141 C 
ATOM     32  C   UNL     1       0.117   3.699   0.487  0.00  0.00    -0.049 C 
ATOM     33  N   UNL     1      -0.899   3.120   1.391  0.00  0.00    +0.388 N 
ATOM     34  H   UNL     1      -0.745   3.481   2.341  0.00  0.00    -0.081 HD
ENDBRANCH  20  33
ENDBRANCH  19  20
ENDBRANCH   1  19
TORSDOF 7
