REMARK  Name = ZINC37261972
REMARK  7 active torsions:
REMARK  status: ('A' for Active; 'I' for Inactive)
REMARK    1  A    between atoms: C_2  and  C_12
REMARK    2  A    between atoms: C_6  and  N_7
REMARK    3  A    between atoms: C_12  and  N_13
REMARK    4  A    between atoms: N_13  and  C_14
REMARK    5  A    between atoms: C_14  and  C_15
REMARK    6  A    between atoms: C_15  and  S_16
REMARK    7  A    between atoms: S_16  and  N_19
REMARK                            x       y       z     vdW  Elec       q    Type
REMARK                         _______ _______ _______ _____ _____    ______ ____
ROOT
ATOM      1  C   UNL     1       1.148   3.593   0.010  0.00  0.00    -0.044 C 
ENDROOT
BRANCH   1   3
ATOM      2  C   UNL     1      -0.017   1.378   0.010  0.00  0.00    +0.040 A 
ATOM      3  C   UNL     1       1.170   2.086   0.002  0.00  0.00    -0.027 A 
ATOM      4  C   UNL     1       2.379   1.412  -0.014  0.00  0.00    +0.128 A 
ATOM      5  C   UNL     1       2.399   0.028  -0.021  0.00  0.00    +0.079 A 
ATOM      6  C   UNL     1       1.210  -0.681  -0.013  0.00  0.00    +0.156 A 
ATOM      7  C   UNL     1       0.002  -0.004   0.002  0.00  0.00    +0.162 A 
ATOM      8  F   UNL     1       1.228  -2.031  -0.021  0.00  0.00    -0.203 F 
ATOM      9  F   UNL     1       3.539   2.104  -0.022  0.00  0.00    -0.205 F 
BRANCH   7  10
ATOM     10  N   UNL     1      -1.270  -0.761   0.011  0.00  0.00    +0.059 N 
ATOM     11  O   UNL     1      -2.325  -0.171   0.024  0.00  0.00    -0.126 OA
ATOM     12  O   UNL     1      -1.254  -1.970   0.004  0.00  0.00    -0.126 OA
ENDBRANCH   7  10
ENDBRANCH   1   3
BRANCH   1  13
ATOM     13  N   UNL     1       1.512   4.081   1.347  0.00  0.00    +0.383 N 
ATOM     14  H   UNL     1       0.851   3.731   2.025  0.00  0.00    -0.085 HD
ATOM     15  H   UNL     1       2.438   3.756   1.583  0.00  0.00    -0.085 HD
BRANCH  13  16
ATOM     16  C   UNL     1       1.491   5.549   1.356  0.00  0.00    -0.058 C 
BRANCH  16  17
ATOM     17  C   UNL     1       1.870   6.057   2.748  0.00  0.00    +0.166 C 
BRANCH  17  18
ATOM     18  S   UNL     1       1.843   7.871   2.758  0.00  0.00    +0.025 S 
ATOM     19  O   UNL     1       2.890   8.380   1.943  0.00  0.00    -0.158 OA
ATOM     20  O   UNL     1       0.511   8.342   2.605  0.00  0.00    -0.158 OA
BRANCH  18  21
ATOM     21  N   UNL     1       2.266   8.294   4.302  0.00  0.00    -0.208 NA
ATOM     22  H   UNL     1       2.459   7.606   4.958  0.00  0.00    +0.144 HD
ATOM     23  H   UNL     1       2.320   9.230   4.551  0.00  0.00    +0.144 HD
ENDBRANCH  18  21
ENDBRANCH  17  18
ENDBRANCH  16  17
ENDBRANCH  13  16
ENDBRANCH   1  13
TORSDOF 7
