REMARK  Name = ZINC43138203
REMARK  11 active torsions:
REMARK  status: ('A' for Active; 'I' for Inactive)
REMARK    1  A    between atoms: C_1  and  C_2
REMARK    2  A    between atoms: C_2  and  C_4
REMARK    3  A    between atoms: C_2  and  O_22
REMARK    4  A    between atoms: N_6  and  N_7
REMARK    5  A    between atoms: N_10  and  C_11
REMARK    6  A    between atoms: C_11  and  C_12
REMARK    7  A    between atoms: C_12  and  C_14
REMARK    8  A    between atoms: C_12  and  N_19
REMARK    9  A    between atoms: N_19  and  C_20
REMARK   10  A    between atoms: N_19  and  C_21
REMARK   11  A    between atoms: O_22  and  C_23
REMARK                            x       y       z     vdW  Elec       q    Type
REMARK                         _______ _______ _______ _____ _____    ______ ____
ROOT
ATOM      1  N   UNL     1       0.786  -0.950   3.842  0.00  0.00    -0.218 N 
ATOM      2  C   UNL     1       0.232  -0.642   5.031  0.00  0.00    +0.316 C 
ATOM      3  O   UNL     1       0.818  -0.908   6.063  0.00  0.00    -0.251 OA
ATOM      4  N   UNL     1      -0.973  -0.038   5.077  0.00  0.00    -0.299 N 
ATOM      5  H   UNL     1       1.653  -1.384   3.809  0.00  0.00    +0.174 HD
ATOM      6  H   UNL     1      -1.440   0.174   4.254  0.00  0.00    +0.150 HD
ENDROOT
BRANCH   1   9
ATOM      7  C   UNL     1       0.666  -0.950   1.465  0.00  0.00    +0.270 C 
ATOM      8  O   UNL     1       1.750  -1.493   1.423  0.00  0.00    -0.270 OA
ATOM      9  N   UNL     1       0.111  -0.642   2.654  0.00  0.00    -0.230 N 
ATOM     10  H   UNL     1      -0.755  -0.208   2.686  0.00  0.00    +0.173 HD
BRANCH   7  12
ATOM     11  C   UNL     1      -0.181   0.899   0.046  0.00  0.00    +0.062 C 
ATOM     12  C   UNL     1      -0.060  -0.620   0.186  0.00  0.00    +0.257 C 
BRANCH  12  13
ATOM     13  O   UNL     1       0.669  -1.144  -0.925  0.00  0.00    -0.477 OA
BRANCH  13  14
ATOM     14  C   UNL     1      -0.055  -1.562  -1.997  0.00  0.00    +0.157 A 
ATOM     15  C   UNL     1      -1.428  -1.369  -2.026  0.00  0.00    +0.048 A 
ATOM     16  C   UNL     1      -2.162  -1.795  -3.116  0.00  0.00    +0.004 A 
ATOM     17  C   UNL     1      -1.530  -2.414  -4.179  0.00  0.00    +0.003 A 
ATOM     18  C   UNL     1      -0.162  -2.609  -4.154  0.00  0.00    +0.042 A 
ATOM     19  C   UNL     1       0.580  -2.179  -3.068  0.00  0.00    +0.165 A 
ATOM     20  F   UNL     1       1.918  -2.364  -3.046  0.00  0.00    -0.202 F 
ENDBRANCH  13  14
ENDBRANCH  12  13
ENDBRANCH   7  12
ENDBRANCH   1   9
BRANCH   4  21
ATOM     21  C   UNL     1      -1.576   0.296   6.369  0.00  0.00    +0.098 C 
BRANCH  21  22
ATOM     22  C   UNL     1      -2.983   0.855   6.146  0.00  0.00    +0.016 C 
BRANCH  22  23
ATOM     23  C   UNL     1      -2.891   2.175   5.425  0.00  0.00    +0.093 A 
ATOM     24  C   UNL     1      -2.973   3.390   5.996  0.00  0.00    +0.043 A 
ATOM     25  C   UNL     1      -2.836   4.340   4.958  0.00  0.00    +0.041 A 
ATOM     26  C   UNL     1      -2.679   3.648   3.815  0.00  0.00    +0.195 A 
ATOM     27  O   UNL     1      -2.707   2.337   4.105  0.00  0.00    -0.469 OA
ENDBRANCH  22  23
BRANCH  22  28
ATOM     28  N   UNL     1      -3.763  -0.092   5.337  0.00  0.00    +0.384 N 
ATOM     29  C   UNL     1      -3.774  -1.405   5.996  0.00  0.00    -0.096 C 
ATOM     30  C   UNL     1      -5.140   0.400   5.201  0.00  0.00    -0.096 C 
ATOM     31  H   UNL     1      -3.344  -0.177   4.423  0.00  0.00    -0.082 HD
ENDBRANCH  22  28
ENDBRANCH  21  22
ENDBRANCH   4  21
TORSDOF 8
