REMARK  Name = ZINC00806563
REMARK  8 active torsions:
REMARK  status: ('A' for Active; 'I' for Inactive)
REMARK    1  A    between atoms: C_1  and  C_2
REMARK    2  A    between atoms: C_2  and  O_3
REMARK    3  A    between atoms: O_3  and  C_4
REMARK    4  A    between atoms: C_9  and  N_10
REMARK    5  A    between atoms: C_13  and  C_18
REMARK    6  A    between atoms: C_18  and  N_19
REMARK    7  A    between atoms: N_19  and  C_20
REMARK    8  A    between atoms: N_19  and  C_21
REMARK                            x       y       z     vdW  Elec       q    Type
REMARK                         _______ _______ _______ _____ _____    ______ ____
ROOT
ATOM      1  N   UNL     1       1.952  -1.468  -3.424  0.00  0.00    -0.281 N 
ATOM      2  C   UNL     1       2.675  -1.980  -4.483  0.00  0.00    +0.224 A 
ATOM      3  N   UNL     1       3.273  -1.157  -5.343  0.00  0.00    -0.201 NA
ATOM      4  C   UNL     1       3.965  -1.647  -6.356  0.00  0.00    +0.120 A 
ATOM      5  N   UNL     1       4.067  -2.954  -6.521  0.00  0.00    -0.202 NA
ATOM      6  C   UNL     1       3.472  -3.783  -5.667  0.00  0.00    +0.217 A 
ATOM      7  N   UNL     1       2.780  -3.295  -4.643  0.00  0.00    -0.181 NA
ATOM      8  N   UNL     1       3.579  -5.148  -5.840  0.00  0.00    -0.327 N 
ATOM      9  H   UNL     1       1.804  -0.512  -3.356  0.00  0.00    +0.155 HD
ATOM     10  H   UNL     1       4.088  -5.504  -6.586  0.00  0.00    +0.145 HD
ATOM     11  H   UNL     1       3.146  -5.752  -5.217  0.00  0.00    +0.145 HD
ENDROOT
BRANCH   1  17
ATOM     12  C   UNL     1       0.324  -1.945  -1.698  0.00  0.00    +0.142 A 
ATOM     13  C   UNL     1      -0.190  -2.804  -0.740  0.00  0.00    +0.047 A 
ATOM     14  C   UNL     1       0.402  -4.035  -0.526  0.00  0.00    +0.004 A 
ATOM     15  C   UNL     1       1.506  -4.414  -1.267  0.00  0.00    +0.002 A 
ATOM     16  C   UNL     1       2.024  -3.563  -2.225  0.00  0.00    +0.027 A 
ATOM     17  C   UNL     1       1.432  -2.329  -2.449  0.00  0.00    +0.076 A 
BRANCH  12  18
ATOM     18  O   UNL     1      -0.257  -0.734  -1.910  0.00  0.00    -0.490 OA
BRANCH  18  20
ATOM     19  C   UNL     1      -1.903   0.983  -1.481  0.00  0.00    +0.048 C 
ATOM     20  C   UNL     1      -1.390  -0.408  -1.103  0.00  0.00    +0.226 C 
ENDBRANCH  18  20
ENDBRANCH  12  18
ENDBRANCH   1  17
BRANCH   4  21
ATOM     21  C   UNL     1       4.639  -0.712  -7.327  0.00  0.00    -0.001 C 
BRANCH  21  22
ATOM     22  N   UNL     1       6.000  -0.417  -6.858  0.00  0.00    +0.384 N 
ATOM     23  C   UNL     1       6.803  -1.647  -6.881  0.00  0.00    -0.095 C 
ATOM     24  H   UNL     1       5.961  -0.059  -5.915  0.00  0.00    -0.081 HD
BRANCH  22  25
ATOM     25  C   UNL     1       6.615   0.586  -7.737  0.00  0.00    -0.068 C 
ATOM     26  C   UNL     1       8.032   0.892  -7.249  0.00  0.00    -0.015 C 
ATOM     27  C   UNL     1       8.673   1.937  -8.165  0.00  0.00    -0.002 C 
ATOM     28  C   UNL     1       7.837   3.218  -8.141  0.00  0.00    -0.000 C 
ATOM     29  C   UNL     1       6.419   2.911  -8.629  0.00  0.00    -0.002 C 
ATOM     30  C   UNL     1       5.779   1.867  -7.713  0.00  0.00    -0.015 C 
ENDBRANCH  22  25
ENDBRANCH  21  22
ENDBRANCH   4  21
TORSDOF 6
