REMARK  Name = ZINC36627021
REMARK  7 active torsions:
REMARK  status: ('A' for Active; 'I' for Inactive)
REMARK    1  A    between atoms: C_1  and  S_2
REMARK    2  A    between atoms: S_2  and  C_3
REMARK    3  A    between atoms: C_3  and  C_4
REMARK    4  A    between atoms: C_4  and  C_5
REMARK    5  A    between atoms: C_5  and  C_7
REMARK    6  A    between atoms: C_5  and  N_24
REMARK    7  A    between atoms: C_25  and  C_27
REMARK                            x       y       z     vdW  Elec       q    Type
REMARK                         _______ _______ _______ _____ _____    ______ ____
ROOT
ATOM      1  C   UNL     1       1.983  -3.777  -2.945  0.00  0.00    +0.236 C 
ATOM      2  O   UNL     1       1.606  -4.478  -3.861  0.00  0.00    -0.274 OA
ATOM      3  N   UNL     1       2.653  -4.323  -1.911  0.00  0.00    -0.300 N 
ATOM      4  C   UNL     1       3.012  -3.511  -0.740  0.00  0.00    +0.110 C 
ATOM      5  C   UNL     1       4.519  -3.642  -0.494  0.00  0.00    +0.047 C 
ATOM      6  C   UNL     1       4.886  -5.122  -0.373  0.00  0.00    +0.064 C 
ATOM      7  C   UNL     1       4.542  -5.849  -1.673  0.00  0.00    +0.047 C 
ATOM      8  C   UNL     1       3.031  -5.743  -1.930  0.00  0.00    +0.110 C 
ATOM      9  C   UNL     1       6.360  -5.257  -0.089  0.00  0.00    +0.057 A 
ATOM     10  C   UNL     1       6.855  -5.541   1.138  0.00  0.00    +0.039 A 
ATOM     11  N   UNL     1       8.207  -5.588   1.023  0.00  0.00    -0.349 N 
ATOM     12  H   UNL     1       8.841  -5.773   1.735  0.00  0.00    +0.166 HD
ATOM     13  C   UNL     1       8.504  -5.330  -0.272  0.00  0.00    +0.171 A 
ATOM     14  N   UNL     1       7.389  -5.133  -0.928  0.00  0.00    -0.348 N 
ATOM     15  C   UNL     1       5.990  -5.750   2.355  0.00  0.00    +0.070 C 
ATOM     16  C   UNL     1       4.591  -5.202   2.039  0.00  0.00    +0.088 C 
ATOM     17  N   UNL     1       4.138  -5.725   0.742  0.00  0.00    -0.305 NA
ATOM     18  H   UNL     1       3.145  -5.591   0.625  0.00  0.00    +0.123 HD
ATOM     19  H   UNL     1       7.322  -4.929  -1.874  0.00  0.00    +0.166 HD
ENDROOT
BRANCH   1  20
ATOM     20  C   UNL     1       1.703  -2.296  -2.964  0.00  0.00    +0.160 C 
BRANCH  20  21
ATOM     21  N   UNL     1       1.494  -1.857  -4.346  0.00  0.00    -0.300 N 
ATOM     22  C   UNL     1       1.726  -0.574  -4.687  0.00  0.00    +0.245 C 
ATOM     23  O   UNL     1       2.108   0.219  -3.849  0.00  0.00    -0.270 OA
ATOM     24  H   UNL     1       1.189  -2.489  -5.015  0.00  0.00    +0.150 HD
BRANCH  22  25
ATOM     25  C   UNL     1       1.515  -0.130  -6.082  0.00  0.00    +0.039 A 
ATOM     26  C   UNL     1       1.070  -1.036  -7.046  0.00  0.00    +0.013 A 
ATOM     27  C   UNL     1       0.875  -0.617  -8.345  0.00  0.00    +0.004 A 
ATOM     28  C   UNL     1       1.118   0.699  -8.696  0.00  0.00    +0.038 A 
ATOM     29  C   UNL     1       1.560   1.605  -7.745  0.00  0.00    +0.124 A 
ATOM     30  C   UNL     1       1.754   1.198  -6.438  0.00  0.00    +0.051 A 
ATOM     31  F   UNL     1       1.796   2.888  -8.094  0.00  0.00    -0.205 F 
ENDBRANCH  22  25
ENDBRANCH  20  21
BRANCH  20  32
ATOM     32  C   UNL     1       0.448  -2.004  -2.141  0.00  0.00    +0.042 C 
BRANCH  32  33
ATOM     33  C   UNL     1       0.243  -0.491  -2.042  0.00  0.00    +0.071 C 
BRANCH  33  35
ATOM     34  C   UNL     1      -1.345   1.667  -1.044  0.00  0.00    +0.084 C 
ATOM     35  S   UNL     1      -1.246  -0.145  -1.065  0.00  0.00    -0.164 S 
ENDBRANCH  33  35
ENDBRANCH  32  33
ENDBRANCH  20  32
ENDBRANCH   1  20
TORSDOF 6
