REMARK  Name = ZINC01022957
REMARK  5 active torsions:
REMARK  status: ('A' for Active; 'I' for Inactive)
REMARK    1  A    between atoms: C_3  and  C_9
REMARK    2  A    between atoms: C_4  and  O_8
REMARK    3  A    between atoms: C_6  and  O_7
REMARK    4  A    between atoms: N_11  and  N_12
REMARK    5  A    between atoms: C_13  and  C_14
REMARK                            x       y       z     vdW  Elec       q    Type
REMARK                         _______ _______ _______ _____ _____    ______ ____
ROOT
ATOM      1  C   UNL     1      -3.689  -2.074   0.008  0.00  0.00    +0.267 C 
ATOM      2  O   UNL     1      -2.630  -2.673  -0.000  0.00  0.00    -0.268 OA
ATOM      3  N   UNL     1      -3.701  -0.726   0.015  0.00  0.00    -0.203 N 
ATOM      4  H   UNL     1      -4.546  -0.249   0.022  0.00  0.00    +0.178 HD
ENDROOT
BRANCH   1   7
ATOM      5  C   UNL     1      -7.360  -2.838   0.021  0.00  0.00    +0.046 A 
ATOM      6  C   UNL     1      -6.177  -2.136   0.019  0.00  0.00    +0.020 A 
ATOM      7  C   UNL     1      -4.958  -2.822   0.010  0.00  0.00    +0.080 A 
ATOM      8  C   UNL     1      -4.949  -4.225  -0.004  0.00  0.00    +0.132 A 
ATOM      9  C   UNL     1      -6.145  -4.920   0.004  0.00  0.00    +0.091 A 
ATOM     10  C   UNL     1      -7.349  -4.230   0.014  0.00  0.00    +0.120 A 
BRANCH  10  11
ATOM     11  O   UNL     1      -8.521  -4.915   0.015  0.00  0.00    -0.507 OA
ATOM     12  H   UNL     1      -8.864  -5.109  -0.867  0.00  0.00    +0.292 HD
ENDBRANCH  10  11
BRANCH   8  13
ATOM     13  O   UNL     1      -3.771  -4.898  -0.019  0.00  0.00    -0.506 OA
ATOM     14  H   UNL     1      -3.422  -5.101   0.860  0.00  0.00    +0.292 HD
ENDBRANCH   8  13
ENDBRANCH   1   7
BRANCH   3  15
ATOM     15  N   UNL     1      -2.494  -0.015   0.014  0.00  0.00    -0.187 NA
ATOM     16  C   UNL     1      -2.506   1.283   0.021  0.00  0.00    +0.141 C 
BRANCH  16  17
ATOM     17  C   UNL     1      -1.236   2.032   0.019  0.00  0.00    +0.031 A 
ATOM     18  C   UNL     1      -1.244   3.429   0.032  0.00  0.00    +0.027 A 
ATOM     19  C   UNL     1      -0.052   4.123   0.025  0.00  0.00    +0.019 A 
ATOM     20  C   UNL     1       1.152   3.439   0.010  0.00  0.00    +0.018 A 
ATOM     21  C   UNL     1       1.170   2.056   0.002  0.00  0.00    +0.040 A 
ATOM     22  C   UNL     1      -0.016   1.347   0.009  0.00  0.00    +0.132 A 
ATOM     23  F   UNL     1       0.002  -0.004   0.002  0.00  0.00    -0.205 F 
ATOM     24 BR   UNL     1      -0.062   6.014   0.036  0.00  0.00    -0.050 Br
ENDBRANCH  16  17
ENDBRANCH   3  15
TORSDOF 5
