REMARK  Name = ZINC16322206
REMARK  7 active torsions:
REMARK  status: ('A' for Active; 'I' for Inactive)
REMARK    1  A    between atoms: C_1  and  C_2
REMARK    2  A    between atoms: C_2  and  C_4
REMARK    3  A    between atoms: C_2  and  O_18
REMARK    4  A    between atoms: N_6  and  N_7
REMARK    5  A    between atoms: O_18  and  C_19
REMARK    6  A    between atoms: C_22  and  O_25
REMARK    7  A    between atoms: O_25  and  C_26
REMARK                            x       y       z     vdW  Elec       q    Type
REMARK                         _______ _______ _______ _____ _____    ______ ____
ROOT
ATOM      1  C   UNL     1      -1.425  -0.750  -0.045  0.00  0.00    +0.273 C 
ATOM      2  O   UNL     1      -1.834  -1.188  -1.100  0.00  0.00    -0.270 OA
ATOM      3  N   UNL     1      -2.232  -0.728   1.034  0.00  0.00    -0.202 N 
ATOM      4  H   UNL     1      -1.905  -0.377   1.877  0.00  0.00    +0.177 HD
ENDROOT
BRANCH   3   5
ATOM      5  N   UNL     1      -3.544  -1.212   0.938  0.00  0.00    -0.162 NA
ATOM      6  C   UNL     1      -4.329  -1.191   1.988  0.00  0.00    +0.158 C 
ATOM      7  C   UNL     1      -5.725  -1.670   2.039  0.00  0.00    +0.029 A 
ATOM      8  C   UNL     1      -6.596  -2.238   1.121  0.00  0.00    +0.012 A 
ATOM      9  C   UNL     1      -7.877  -2.578   1.513  0.00  0.00    +0.001 A 
ATOM     10  C   UNL     1      -8.297  -2.356   2.815  0.00  0.00    +0.001 A 
ATOM     11  C   UNL     1      -7.444  -1.791   3.742  0.00  0.00    +0.012 A 
ATOM     12  C   UNL     1      -6.151  -1.443   3.366  0.00  0.00    +0.023 A 
ATOM     13  C   UNL     1      -5.004  -0.840   4.060  0.00  0.00    +0.103 C 
ATOM     14  N   UNL     1      -3.999  -0.729   3.225  0.00  0.00    -0.326 N 
ATOM     15  N   UNL     1      -4.985  -0.456   5.386  0.00  0.00    -0.344 N 
ATOM     16  H   UNL     1      -5.774  -0.578   5.938  0.00  0.00    +0.144 HD
ATOM     17  H   UNL     1      -4.183  -0.065   5.767  0.00  0.00    +0.144 HD
ATOM     18  H   UNL     1      -3.132  -0.362   3.458  0.00  0.00    +0.169 HD
ENDBRANCH   3   5
BRANCH   1  20
ATOM     19  C   UNL     1      -0.045   1.273   0.345  0.00  0.00    +0.062 C 
ATOM     20  C   UNL     1      -0.015  -0.230   0.058  0.00  0.00    +0.257 C 
BRANCH  20  21
ATOM     21  O   UNL     1       0.671  -0.465  -1.174  0.00  0.00    -0.480 OA
BRANCH  21  22
ATOM     22  C   UNL     1       2.027  -0.553  -1.118  0.00  0.00    +0.122 A 
ATOM     23  C   UNL     1       2.747  -0.887  -2.255  0.00  0.00    +0.049 A 
ATOM     24  C   UNL     1       4.124  -0.977  -2.199  0.00  0.00    +0.049 A 
ATOM     25  C   UNL     1       4.787  -0.732  -1.005  0.00  0.00    +0.120 A 
ATOM     26  C   UNL     1       4.067  -0.397   0.132  0.00  0.00    +0.049 A 
ATOM     27  C   UNL     1       2.690  -0.303   0.074  0.00  0.00    +0.049 A 
BRANCH  25  28
ATOM     28  O   UNL     1       6.143  -0.821  -0.950  0.00  0.00    -0.495 OA
ATOM     29  C   UNL     1       6.759  -0.556   0.312  0.00  0.00    +0.277 C 
ENDBRANCH  25  28
ENDBRANCH  21  22
ENDBRANCH  20  21
ENDBRANCH   1  20
TORSDOF 5
