REMARK  Name = ZINC43243540
REMARK  8 active torsions:
REMARK  status: ('A' for Active; 'I' for Inactive)
REMARK    1  A    between atoms: C_1  and  C_2
REMARK    2  A    between atoms: C_2  and  N_3
REMARK    3  A    between atoms: N_6  and  C_11
REMARK    4  A    between atoms: C_11  and  C_13
REMARK    5  A    between atoms: C_11  and  C_19
REMARK    6  A    between atoms: C_16  and  C_18
REMARK    7  A    between atoms: C_19  and  C_21
REMARK    8  A    between atoms: C_19  and  N_22
REMARK                            x       y       z     vdW  Elec       q    Type
REMARK                         _______ _______ _______ _____ _____    ______ ____
ROOT
ATOM      1  C   UNL     1       2.900  -1.414   4.733  0.00  0.00    +0.099 C 
ENDROOT
BRANCH   1   5
ATOM      2  N   UNL     1       0.711  -0.489   1.189  0.00  0.00    -0.293 N 
ATOM      3  C   UNL     1       2.157  -0.707   1.137  0.00  0.00    +0.127 C 
ATOM      4  C   UNL     1       2.807  -0.302   2.457  0.00  0.00    +0.128 C 
ATOM      5  N   UNL     1       2.125  -0.942   3.583  0.00  0.00    -0.286 N 
ATOM      6  C   UNL     1       0.786  -1.099   3.564  0.00  0.00    +0.302 C 
ATOM      7  O   UNL     1       0.204  -1.529   4.537  0.00  0.00    -0.265 OA
ATOM      8  C   UNL     1       0.030  -0.729   2.327  0.00  0.00    +0.302 C 
ATOM      9  O   UNL     1      -1.181  -0.650   2.348  0.00  0.00    -0.265 OA
BRANCH   2  11
ATOM     10  C   UNL     1      -0.019   1.526   0.010  0.00  0.00    +0.024 C 
ATOM     11  C   UNL     1       0.002  -0.004   0.002  0.00  0.00    +0.105 C 
ENDBRANCH   2  11
ENDBRANCH   1   5
BRANCH   1  12
ATOM     12  C   UNL     1       2.432  -0.707   5.979  0.00  0.00    +0.009 A 
ATOM     13  C   UNL     1       3.165  -0.222   7.011  0.00  0.00    +0.013 A 
ATOM     14  C   UNL     1       2.514   0.399   8.061  0.00  0.00    +0.011 A 
ATOM     15  C   UNL     1       1.163   0.504   8.027  0.00  0.00    -0.013 A 
ATOM     16  S   UNL     1       0.770  -0.282   6.473  0.00  0.00    -0.097 S 
ATOM     17  C   UNL     1       0.234   1.129   9.036  0.00  0.00    +0.051 C 
ENDBRANCH   1  12
BRANCH   1  18
ATOM     18  C   UNL     1       2.701  -2.922   4.898  0.00  0.00    -0.052 C 
ATOM     19  C   UNL     1       3.176  -3.641   3.633  0.00  0.00    -0.012 C 
BRANCH  18  20
ATOM     20  N   UNL     1       3.478  -3.396   6.051  0.00  0.00    +0.381 N 
ATOM     21  H   UNL     1       3.164  -2.922   6.885  0.00  0.00    -0.090 HD
ATOM     22  H   UNL     1       3.346  -4.390   6.160  0.00  0.00    -0.090 HD
ATOM     23  H   UNL     1       4.456  -3.200   5.901  0.00  0.00    -0.090 HD
ENDBRANCH  18  20
ENDBRANCH   1  18
TORSDOF 5
