REMARK  Name = ZINC20857786
REMARK  3 active torsions:
REMARK  status: ('A' for Active; 'I' for Inactive)
REMARK    1  A    between atoms: C_4  and  C_11
REMARK    2  A    between atoms: C_5  and  N_10
REMARK    3  A    between atoms: C_6  and  N_7
REMARK                            x       y       z     vdW  Elec       q    Type
REMARK                         _______ _______ _______ _____ _____    ______ ____
ROOT
ATOM      1  C   UNL     1      -2.452   3.661   0.375  0.00  0.00    +0.036 A 
ATOM      2  C   UNL     1      -3.645   2.963   0.275  0.00  0.00    +0.023 A 
ATOM      3  C   UNL     1      -3.644   1.628  -0.071  0.00  0.00    +0.060 A 
ATOM      4  C   UNL     1      -2.433   0.974  -0.323  0.00  0.00    +0.093 A 
ATOM      5  C   UNL     1      -1.227   1.686  -0.220  0.00  0.00    +0.074 A 
ATOM      6  C   UNL     1      -1.249   3.028   0.135  0.00  0.00    +0.148 A 
ATOM      7 CL   UNL     1      -5.142   0.760  -0.194  0.00  0.00    -0.082 Cl
ENDROOT
BRANCH   6   8
ATOM      8  N   UNL     1       0.019   3.783   0.251  0.00  0.00    +0.058 N 
ATOM      9  O   UNL     1      -0.003   4.985   0.445  0.00  0.00    -0.126 OA
ATOM     10  O   UNL     1       1.085   3.201   0.151  0.00  0.00    -0.126 OA
ENDBRANCH   6   8
BRANCH   5  11
ATOM     11  N   UNL     1      -0.017   1.048  -0.467  0.00  0.00    -0.355 N 
ATOM     12  H   UNL     1       0.926   1.608  -0.386  0.00  0.00    +0.142 HD
ATOM     13  H   UNL     1      -0.002  -0.017  -0.744  0.00  0.00    +0.142 HD
ENDBRANCH   5  11
BRANCH   4  14
ATOM     14  C   UNL     1      -2.424  -0.412  -0.683  0.00  0.00    +0.103 C 
ATOM     15  N   UNL     1      -2.416  -1.511  -0.968  0.00  0.00    -0.191 NA
ENDBRANCH   4  14
TORSDOF 3
