REMARK  Name = ZINC55198509
REMARK  10 active torsions:
REMARK  status: ('A' for Active; 'I' for Inactive)
REMARK    1  A    between atoms: C_1  and  C_2
REMARK    2  A    between atoms: C_2  and  C_3
REMARK    3  A    between atoms: C_6  and  C_9
REMARK    4  A    between atoms: C_9  and  C_10
REMARK    5  A    between atoms: C_9  and  C_11
REMARK    6  A    between atoms: C_9  and  N_21
REMARK    7  A    between atoms: C_14  and  O_19
REMARK    8  A    between atoms: C_15  and  O_17
REMARK    9  A    between atoms: O_17  and  C_18
REMARK   10  A    between atoms: O_19  and  C_20
REMARK                            x       y       z     vdW  Elec       q    Type
REMARK                         _______ _______ _______ _____ _____    ______ ____
ROOT
ATOM      1  C   UNL     1      -5.419  -2.005   0.043  0.00  0.00    -0.022 C 
ATOM      2  C   UNL     1      -6.067  -0.620  -0.013  0.00  0.00    -0.001 C 
ENDROOT
BRANCH   1   6
ATOM      3  C   UNL     1      -1.201  -1.585   0.572  0.00  0.00    -0.048 A 
ATOM      4  C   UNL     1      -1.909  -2.483   1.348  0.00  0.00    +0.004 A 
ATOM      5  C   UNL     1      -3.274  -2.619   1.177  0.00  0.00    +0.003 A 
ATOM      6  C   UNL     1      -3.931  -1.856   0.230  0.00  0.00    -0.055 A 
ATOM      7  C   UNL     1      -3.224  -0.957  -0.545  0.00  0.00    +0.003 A 
ATOM      8  C   UNL     1      -1.859  -0.818  -0.371  0.00  0.00    +0.004 A 
BRANCH   3  10
ATOM      9  C   UNL     1       0.565  -0.362   1.812  0.00  0.00    +0.009 C 
ATOM     10  C   UNL     1       0.287  -1.437   0.758  0.00  0.00    +0.032 C 
ENDBRANCH   3  10
ENDBRANCH   1   6
BRANCH   1  11
ATOM     11  C   UNL     1      -5.692  -2.740  -1.244  0.00  0.00    -0.051 A 
ATOM     12  C   UNL     1      -6.151  -4.044  -1.209  0.00  0.00    +0.006 A 
ATOM     13  C   UNL     1      -6.403  -4.723  -2.386  0.00  0.00    +0.049 A 
ATOM     14  C   UNL     1      -6.197  -4.096  -3.605  0.00  0.00    +0.161 A 
ATOM     15  C   UNL     1      -5.736  -2.784  -3.640  0.00  0.00    +0.162 A 
ATOM     16  C   UNL     1      -5.490  -2.107  -2.456  0.00  0.00    +0.052 A 
BRANCH  15  17
ATOM     17  O   UNL     1      -5.533  -2.165  -4.834  0.00  0.00    -0.491 OA
ATOM     18  C   UNL     1      -5.059  -0.817  -4.793  0.00  0.00    +0.277 C 
ENDBRANCH  15  17
BRANCH  14  19
ATOM     19  O   UNL     1      -6.445  -4.763  -4.764  0.00  0.00    -0.491 OA
ATOM     20  C   UNL     1      -6.915  -6.107  -4.652  0.00  0.00    +0.277 C 
ENDBRANCH  14  19
ENDBRANCH   1  11
BRANCH   1  21
ATOM     21  N   UNL     1      -5.981  -2.763   1.169  0.00  0.00    +0.387 N 
ATOM     22  H   UNL     1      -5.798  -2.270   2.031  0.00  0.00    -0.088 HD
ATOM     23  H   UNL     1      -6.977  -2.862   1.044  0.00  0.00    -0.088 HD
ATOM     24  H   UNL     1      -5.554  -3.676   1.206  0.00  0.00    -0.088 HD
ENDBRANCH   1  21
TORSDOF 6
