REMARK  Name = ZINC66487870
REMARK  7 active torsions:
REMARK  status: ('A' for Active; 'I' for Inactive)
REMARK    1  A    between atoms: C_1  and  C_2
REMARK    2  A    between atoms: C_4  and  C_7
REMARK    3  A    between atoms: C_7  and  S_8
REMARK    4  A    between atoms: S_8  and  C_11
REMARK    5  A    between atoms: C_11  and  C_12
REMARK    6  A    between atoms: C_12  and  C_14
REMARK    7  A    between atoms: C_12  and  O_25
REMARK                            x       y       z     vdW  Elec       q    Type
REMARK                         _______ _______ _______ _____ _____    ______ ____
ROOT
ATOM      1  C   UNL     1       2.935  -5.759  -3.477  0.00  0.00    +0.166 C 
ENDROOT
BRANCH   1   2
ATOM      2  C   UNL     1       2.771  -6.964  -4.366  0.00  0.00    -0.014 A 
ATOM      3  C   UNL     1       2.583  -6.798  -5.725  0.00  0.00    +0.010 A 
ATOM      4  C   UNL     1       2.432  -7.900  -6.548  0.00  0.00    +0.050 A 
ATOM      5  C   UNL     1       2.470  -9.173  -6.003  0.00  0.00    +0.162 A 
ATOM      6  C   UNL     1       2.658  -9.340  -4.639  0.00  0.00    +0.162 A 
ATOM      7  C   UNL     1       2.814  -8.235  -3.819  0.00  0.00    +0.055 A 
ATOM      8  O   UNL     1       2.695 -10.598  -4.112  0.00  0.00    -0.488 OA
ATOM      9  C   UNL     1       1.463 -11.322  -4.138  0.00  0.00    +0.232 C 
ATOM     10  C   UNL     1       1.269 -12.010  -5.480  0.00  0.00    +0.082 C 
ATOM     11  C   UNL     1       1.120 -11.018  -6.623  0.00  0.00    +0.232 C 
ATOM     12  O   UNL     1       2.324 -10.268  -6.803  0.00  0.00    -0.488 OA
ENDBRANCH   1   2
BRANCH   1  13
ATOM     13  O   UNL     1       3.642  -4.738  -4.184  0.00  0.00    -0.386 OA
ATOM     14  H   UNL     1       3.200  -4.440  -4.991  0.00  0.00    +0.210 HD
ENDBRANCH   1  13
BRANCH   1  15
ATOM     15  C   UNL     1       1.556  -5.234  -3.069  0.00  0.00    +0.202 C 
BRANCH  15  16
ATOM     16  S   UNL     1       1.754  -3.783  -1.999  0.00  0.00    -0.021 S 
ATOM     17  O   UNL     1       2.348  -2.740  -2.761  0.00  0.00    -0.174 OA
ATOM     18  O   UNL     1       2.377  -4.197  -0.791  0.00  0.00    -0.174 OA
BRANCH  16  19
ATOM     19  C   UNL     1       0.039  -3.320  -1.631  0.00  0.00    +0.242 C 
BRANCH  19  23
ATOM     20  C   UNL     1      -0.018   1.503   0.010  0.00  0.00    +0.069 C 
ATOM     21  C   UNL     1       0.002  -0.004   0.002  0.00  0.00    +0.081 A 
ATOM     22  C   UNL     1       0.008  -0.824  -1.141  0.00  0.00    +0.072 A 
ATOM     23  C   UNL     1       0.027  -2.108  -0.735  0.00  0.00    +0.158 A 
ATOM     24  O   UNL     1       0.034  -2.119   0.606  0.00  0.00    -0.358 OA
ATOM     25  N   UNL     1       0.023  -0.775   1.052  0.00  0.00    -0.083 NA
ENDBRANCH  19  23
ENDBRANCH  16  19
ENDBRANCH  15  16
ENDBRANCH   1  15
TORSDOF 6
