REMARK  Name = ZINC16183429
REMARK  9 active torsions:
REMARK  status: ('A' for Active; 'I' for Inactive)
REMARK    1  A    between atoms: C_1  and  C_2
REMARK    2  A    between atoms: C_3  and  C_14
REMARK    3  A    between atoms: N_5  and  C_7
REMARK    4  A    between atoms: C_14  and  C_15
REMARK    5  A    between atoms: C_14  and  C_25
REMARK    6  A    between atoms: C_18  and  O_24
REMARK    7  A    between atoms: C_19  and  N_21
REMARK    8  A    between atoms: C_26  and  C_37
REMARK    9  A    between atoms: N_28  and  C_31
REMARK                            x       y       z     vdW  Elec       q    Type
REMARK                         _______ _______ _______ _____ _____    ______ ____
ROOT
ATOM      1  C   UNL     1      -0.489   4.072  -0.737  0.00  0.00    +0.093 C 
ENDROOT
BRANCH   1   4
ATOM      2  C   UNL     1      -0.450   1.257   0.595  0.00  0.00    +0.065 C 
ATOM      3  C   UNL     1      -0.692   1.539  -0.865  0.00  0.00    +0.039 A 
ATOM      4  C   UNL     1      -0.709   2.758  -1.441  0.00  0.00    +0.051 A 
ATOM      5  C   UNL     1      -0.969   2.588  -2.821  0.00  0.00    +0.276 A 
ATOM      6  N   UNL     1      -1.105   1.267  -3.052  0.00  0.00    -0.219 N 
ATOM      7  N   UNL     1      -0.927   0.602  -1.831  0.00  0.00    -0.294 N 
ATOM      8  O   UNL     1      -1.055   3.476  -3.651  0.00  0.00    -0.266 OA
ATOM      9  H   UNL     1      -0.966  -0.358  -1.695  0.00  0.00    +0.187 HD
BRANCH   6  10
ATOM     10  C   UNL     1      -1.370   0.667  -4.287  0.00  0.00    +0.067 A 
ATOM     11  C   UNL     1      -1.514   1.452  -5.424  0.00  0.00    +0.028 A 
ATOM     12  C   UNL     1      -1.775   0.857  -6.643  0.00  0.00    +0.002 A 
ATOM     13  C   UNL     1      -1.895  -0.518  -6.731  0.00  0.00    +0.000 A 
ATOM     14  C   UNL     1      -1.753  -1.302  -5.601  0.00  0.00    +0.002 A 
ATOM     15  C   UNL     1      -1.486  -0.714  -4.380  0.00  0.00    +0.028 A 
ENDBRANCH   6  10
ENDBRANCH   1   4
BRANCH   1  16
ATOM     16  C   UNL     1      -1.763   4.877  -0.765  0.00  0.00    +0.051 A 
ATOM     17  C   UNL     1      -1.915   6.134  -0.303  0.00  0.00    +0.039 A 
ATOM     18  N   UNL     1      -3.211   6.515  -0.507  0.00  0.00    -0.294 N 
ATOM     19  N   UNL     1      -3.888   5.452  -1.120  0.00  0.00    -0.219 N 
ATOM     20  C   UNL     1      -3.005   4.446  -1.287  0.00  0.00    +0.276 A 
ATOM     21  O   UNL     1      -3.237   3.362  -1.792  0.00  0.00    -0.266 OA
ATOM     22  C   UNL     1      -0.839   6.976   0.332  0.00  0.00    +0.065 C 
ATOM     23  H   UNL     1      -3.596   7.373  -0.269  0.00  0.00    +0.187 HD
BRANCH  19  24
ATOM     24  C   UNL     1      -5.235   5.439  -1.496  0.00  0.00    +0.067 A 
ATOM     25  C   UNL     1      -5.779   4.309  -2.093  0.00  0.00    +0.028 A 
ATOM     26  C   UNL     1      -7.110   4.299  -2.463  0.00  0.00    +0.002 A 
ATOM     27  C   UNL     1      -7.900   5.412  -2.240  0.00  0.00    +0.000 A 
ATOM     28  C   UNL     1      -7.361   6.538  -1.646  0.00  0.00    +0.002 A 
ATOM     29  C   UNL     1      -6.032   6.553  -1.269  0.00  0.00    +0.028 A 
ENDBRANCH  19  24
ENDBRANCH   1  16
BRANCH   1  30
ATOM     30  C   UNL     1       0.605   4.839  -1.435  0.00  0.00    -0.033 A 
ATOM     31  C   UNL     1       0.328   5.532  -2.599  0.00  0.00    +0.008 A 
ATOM     32  C   UNL     1       1.329   6.236  -3.240  0.00  0.00    +0.048 A 
ATOM     33  C   UNL     1       2.613   6.247  -2.715  0.00  0.00    +0.147 A 
ATOM     34  C   UNL     1       2.889   5.551  -1.547  0.00  0.00    +0.168 A 
ATOM     35  C   UNL     1       1.883   4.853  -0.907  0.00  0.00    +0.041 A 
BRANCH  34  36
ATOM     36  N   UNL     1       4.258   5.560  -0.985  0.00  0.00    +0.060 N 
ATOM     37  O   UNL     1       4.497   4.953   0.033  0.00  0.00    -0.126 OA
ATOM     38  O   UNL     1       5.136   6.174  -1.544  0.00  0.00    -0.126 OA
ENDBRANCH  34  36
BRANCH  33  39
ATOM     39  O   UNL     1       3.599   6.938  -3.345  0.00  0.00    -0.504 OA
ATOM     40  H   UNL     1       3.685   7.856  -3.052  0.00  0.00    +0.292 HD
ENDBRANCH  33  39
ENDBRANCH   1  30
TORSDOF 7
