REMARK  Name = ZINC52067664
REMARK  10 active torsions:
REMARK  status: ('A' for Active; 'I' for Inactive)
REMARK    1  A    between atoms: C_1  and  C_2
REMARK    2  A    between atoms: C_2  and  C_3
REMARK    3  A    between atoms: C_3  and  N_4
REMARK    4  A    between atoms: N_4  and  C_5
REMARK    5  A    between atoms: C_5  and  C_7
REMARK    6  A    between atoms: C_5  and  C_8
REMARK    7  A    between atoms: C_13  and  O_14
REMARK    8  A    between atoms: O_14  and  C_15
REMARK    9  A    between atoms: C_15  and  C_17
REMARK   10  A    between atoms: C_15  and  C_18
REMARK                            x       y       z     vdW  Elec       q    Type
REMARK                         _______ _______ _______ _____ _____    ______ ____
ROOT
ATOM      1  C   UNL     1      -2.710  -4.015   0.342  0.00  0.00    -0.019 A 
ATOM      2  C   UNL     1      -1.517  -4.702   0.227  0.00  0.00    +0.020 A 
ATOM      3  C   UNL     1      -1.460  -6.048   0.541  0.00  0.00    +0.018 A 
ATOM      4  C   UNL     1      -2.596  -6.709   0.972  0.00  0.00    +0.019 A 
ATOM      5  C   UNL     1      -3.791  -6.026   1.089  0.00  0.00    +0.047 A 
ATOM      6  C   UNL     1      -3.850  -4.675   0.779  0.00  0.00    +0.123 A 
ATOM      7 BR   UNL     1       0.175  -6.986   0.381  0.00  0.00    -0.050 Br
ENDROOT
BRANCH   1   8
ATOM      8  C   UNL     1      -2.773  -2.549  -0.000  0.00  0.00    -0.040 C 
ATOM      9  C   UNL     1      -3.363  -2.377  -1.401  0.00  0.00    -0.009 C 
BRANCH   8  10
ATOM     10  N   UNL     1      -1.419  -1.980   0.034  0.00  0.00    +0.383 N 
ATOM     11  H   UNL     1      -0.859  -2.401  -0.693  0.00  0.00    -0.085 HD
ATOM     12  H   UNL     1      -0.998  -2.166   0.932  0.00  0.00    -0.085 HD
BRANCH  10  13
ATOM     13  C   UNL     1      -1.492  -0.529  -0.182  0.00  0.00    -0.082 C 
BRANCH  13  15
ATOM     14  C   UNL     1      -0.157   1.575  -0.371  0.00  0.00    +0.002 C 
ATOM     15  C   UNL     1      -0.081   0.063  -0.146  0.00  0.00    -0.022 C 
ENDBRANCH  13  15
ENDBRANCH  10  13
ENDBRANCH   8  10
ENDBRANCH   1   8
BRANCH   6  16
ATOM     16  O   UNL     1      -5.023  -4.000   0.899  0.00  0.00    -0.480 OA
BRANCH  16  17
ATOM     17  C   UNL     1      -6.182  -4.767   1.233  0.00  0.00    +0.255 C 
ATOM     18  C   UNL     1      -6.260  -4.937   2.752  0.00  0.00    +0.062 C 
BRANCH  17  19
ATOM     19  C   UNL     1      -7.415  -4.053   0.744  0.00  0.00    +0.251 C 
ATOM     20  O   UNL     1      -7.313  -2.991   0.166  0.00  0.00    -0.272 OA
ATOM     21  N   UNL     1      -8.633  -4.593   0.949  0.00  0.00    -0.326 N 
ATOM     22  H   UNL     1      -8.715  -5.442   1.411  0.00  0.00    +0.145 HD
ATOM     23  H   UNL     1      -9.427  -4.134   0.634  0.00  0.00    +0.145 HD
ENDBRANCH  17  19
ENDBRANCH  16  17
ENDBRANCH   6  16
TORSDOF 7
