REMARK  Name = ZINC20706948
REMARK  3 active torsions:
REMARK  status: ('A' for Active; 'I' for Inactive)
REMARK    1  A    between atoms: C_4  and  O_26
REMARK    2  A    between atoms: C_5  and  C_7
REMARK    3  A    between atoms: C_20  and  N_23
REMARK                            x       y       z     vdW  Elec       q    Type
REMARK                         _______ _______ _______ _____ _____    ______ ____
ROOT
ATOM      1  C   UNL     1       2.456   3.933   0.000  0.00  0.00    +0.108 C 
ATOM      2  C   UNL     1       2.816   4.352   1.410  0.00  0.00    +0.029 C 
ATOM      3  C   UNL     1       1.884   5.335   2.128  0.00  0.00    +0.033 C 
ATOM      4  C   UNL     1       2.863   6.060   3.056  0.00  0.00    -0.030 C 
ATOM      5  C   UNL     1       4.087   6.023   2.541  0.00  0.00    -0.023 C 
ATOM      6  C   UNL     1       4.028   5.319   1.236  0.00  0.00    +0.049 C 
ATOM      7  C   UNL     1       5.149   4.510   0.713  0.00  0.00    -0.017 A 
ATOM      8  C   UNL     1       6.460   4.795   1.030  0.00  0.00    +0.006 A 
ATOM      9  C   UNL     1       7.491   4.047   0.493  0.00  0.00    +0.003 A 
ATOM     10  C   UNL     1       7.202   3.004  -0.369  0.00  0.00    +0.034 A 
ATOM     11  C   UNL     1       5.895   2.706  -0.682  0.00  0.00    +0.147 A 
ATOM     12  C   UNL     1       4.842   3.447  -0.141  0.00  0.00    +0.062 A 
ATOM     13  N   UNL     1       3.546   3.074  -0.489  0.00  0.00    -0.335 N 
ATOM     14  H   UNL     1       3.316   2.186  -1.097  0.00  0.00    +0.147 HD
ENDROOT
BRANCH   1  19
ATOM     15  C   UNL     1      -0.018   1.087   0.192  0.00  0.00    +0.001 A 
ATOM     16  C   UNL     1      -1.220   1.749   0.018  0.00  0.00    +0.004 A 
ATOM     17  C   UNL     1      -1.236   3.119  -0.153  0.00  0.00    +0.046 A 
ATOM     18  C   UNL     1      -0.045   3.831  -0.161  0.00  0.00    +0.122 A 
ATOM     19  C   UNL     1       1.160   3.164   0.008  0.00  0.00    +0.014 A 
ATOM     20  C   UNL     1       1.170   1.793   0.184  0.00  0.00    +0.009 A 
BRANCH  18  21
ATOM     21  O   UNL     1      -0.058   5.179  -0.334  0.00  0.00    -0.506 OA
ATOM     22  H   UNL     1       0.887   5.742  -0.340  0.00  0.00    +0.292 HD
ENDBRANCH  18  21
ENDBRANCH   1  19
BRANCH  11  23
ATOM     23  N   UNL     1       5.602   1.585  -1.604  0.00  0.00    +0.058 N 
ATOM     24  O   UNL     1       6.514   0.934  -2.080  0.00  0.00    -0.126 OA
ATOM     25  O   UNL     1       4.448   1.315  -1.886  0.00  0.00    -0.126 OA
ENDBRANCH  11  23
TORSDOF 3
