REMARK  Name = ZINC45573203
REMARK  6 active torsions:
REMARK  status: ('A' for Active; 'I' for Inactive)
REMARK    1  A    between atoms: C_1  and  C_2
REMARK    2  A    between atoms: C_7  and  N_10
REMARK    3  A    between atoms: C_11  and  C_13
REMARK    4  A    between atoms: C_13  and  N_14
REMARK    5  A    between atoms: N_14  and  C_15
REMARK    6  A    between atoms: N_14  and  C_16
REMARK                            x       y       z     vdW  Elec       q    Type
REMARK                         _______ _______ _______ _____ _____    ______ ____
ROOT
ATOM      1  N   UNL     1       1.471  -2.526   2.420  0.00  0.00    -0.314 N 
ATOM      2  C   UNL     1       2.056  -3.740   2.406  0.00  0.00    +0.197 C 
ATOM      3  O   UNL     1       1.996  -4.431   1.411  0.00  0.00    -0.278 OA
ATOM      4  H   UNL     1       1.520  -1.974   3.216  0.00  0.00    +0.149 HD
ENDROOT
BRANCH   1  10
ATOM      5  C   UNL     1      -0.019   1.526   0.010  0.00  0.00    +0.007 C 
ATOM      6  C   UNL     1       0.002  -0.004   0.002  0.00  0.00    -0.012 C 
ATOM      7  C   UNL     1      -1.433  -0.534   0.013  0.00  0.00    +0.003 C 
ATOM      8  C   UNL     1      -1.413  -2.063   0.004  0.00  0.00    +0.002 C 
ATOM      9  C   UNL     1      -0.673  -2.570   1.244  0.00  0.00    +0.022 C 
ATOM     10  C   UNL     1       0.763  -2.041   1.233  0.00  0.00    +0.073 C 
ATOM     11  C   UNL     1       0.742  -0.511   1.242  0.00  0.00    +0.025 C 
ENDBRANCH   1  10
BRANCH   2  12
ATOM     12  C   UNL     1       2.785  -4.239   3.627  0.00  0.00    +0.019 C 
BRANCH  12  13
ATOM     13  N   UNL     1       3.330  -5.577   3.359  0.00  0.00    +0.387 N 
ATOM     14  C   UNL     1       4.350  -5.489   2.307  0.00  0.00    -0.095 C 
ATOM     15  H   UNL     1       2.586  -6.189   3.057  0.00  0.00    -0.081 HD
BRANCH  13  16
ATOM     16  C   UNL     1       3.936  -6.114   4.585  0.00  0.00    -0.046 C 
ATOM     17  C   UNL     1       4.478  -7.528   4.321  0.00  0.00    +0.009 C 
ATOM     18  C   UNL     1       4.823  -8.220   5.662  0.00  0.00    +0.164 C 
ATOM     19  S   UNL     1       3.662  -7.417   6.841  0.00  0.00    -0.033 S 
ATOM     20  O   UNL     1       4.413  -6.707   7.817  0.00  0.00    -0.174 OA
ATOM     21  O   UNL     1       2.696  -8.370   7.260  0.00  0.00    -0.174 OA
ATOM     22  C   UNL     1       2.860  -6.208   5.705  0.00  0.00    +0.151 C 
ENDBRANCH  13  16
ENDBRANCH  12  13
ENDBRANCH   2  12
TORSDOF 4
