REMARK  Name = ZINC66242713
REMARK  10 active torsions:
REMARK  status: ('A' for Active; 'I' for Inactive)
REMARK    1  A    between atoms: C_1  and  O_2
REMARK    2  A    between atoms: O_2  and  C_3
REMARK    3  A    between atoms: C_6  and  C_11
REMARK    4  A    between atoms: C_8  and  O_9
REMARK    5  A    between atoms: O_9  and  C_10
REMARK    6  A    between atoms: C_11  and  C_13
REMARK    7  A    between atoms: C_11  and  N_25
REMARK    8  A    between atoms: C_13  and  N_14
REMARK    9  A    between atoms: N_16  and  C_17
REMARK   10  A    between atoms: C_17  and  C_18
REMARK                            x       y       z     vdW  Elec       q    Type
REMARK                         _______ _______ _______ _____ _____    ______ ____
ROOT
ATOM      1  C   UNL     1       2.514  -2.487  -4.311  0.00  0.00    +0.106 C 
ENDROOT
BRANCH   1   5
ATOM      2  C   UNL     1       0.650  -1.202  -0.683  0.00  0.00    +0.162 A 
ATOM      3  C   UNL     1       1.112  -0.268  -1.596  0.00  0.00    +0.050 A 
ATOM      4  C   UNL     1       1.715  -0.686  -2.768  0.00  0.00    +0.009 A 
ATOM      5  C   UNL     1       1.857  -2.036  -3.031  0.00  0.00    -0.025 A 
ATOM      6  C   UNL     1       1.398  -2.973  -2.125  0.00  0.00    +0.054 A 
ATOM      7  C   UNL     1       0.798  -2.560  -0.946  0.00  0.00    +0.162 A 
BRANCH   2   9
ATOM      8  C   UNL     1      -0.061   0.618   0.673  0.00  0.00    +0.277 C 
ATOM      9  O   UNL     1       0.057  -0.791   0.471  0.00  0.00    -0.491 OA
ENDBRANCH   2   9
BRANCH   7  10
ATOM     10  O   UNL     1       0.351  -3.480  -0.050  0.00  0.00    -0.491 OA
ATOM     11  C   UNL     1       0.537  -4.857  -0.386  0.00  0.00    +0.277 C 
ENDBRANCH   7  10
ENDBRANCH   1   5
BRANCH   1  12
ATOM     12  N   UNL     1       3.660  -1.617  -4.605  0.00  0.00    -0.289 NA
ATOM     13  C   UNL     1       4.289  -1.987  -5.882  0.00  0.00    +0.113 C 
ATOM     14  C   UNL     1       5.438  -1.020  -6.178  0.00  0.00    +0.175 C 
ATOM     15  O   UNL     1       6.367  -1.043  -5.091  0.00  0.00    -0.377 OA
ATOM     16  C   UNL     1       5.788  -0.687  -3.832  0.00  0.00    +0.175 C 
ATOM     17  C   UNL     1       4.643  -1.650  -3.512  0.00  0.00    +0.113 C 
ENDBRANCH   1  12
BRANCH   1  18
ATOM     18  C   UNL     1       1.505  -2.407  -5.458  0.00  0.00    +0.139 C 
BRANCH  18  19
ATOM     19  N   UNL     1       0.401  -3.335  -5.202  0.00  0.00    -0.356 N 
ATOM     20  C   UNL     1      -0.595  -3.493  -6.137  0.00  0.00    +0.169 C 
ATOM     21  N   UNL     1      -1.577  -4.319  -5.909  0.00  0.00    -0.355 N 
ATOM     22  N   UNL     1      -0.554  -2.781  -7.312  0.00  0.00    -0.371 N 
ATOM     23  H   UNL     1       0.372  -3.837  -4.373  0.00  0.00    +0.162 HD
ATOM     24  H   UNL     1       0.178  -2.167  -7.482  0.00  0.00    +0.159 HD
ATOM     25  H   UNL     1      -1.256  -2.893  -7.972  0.00  0.00    +0.159 HD
ATOM     26  H   UNL     1      -1.607  -4.821  -5.080  0.00  0.00    +0.162 HD
BRANCH  21  27
ATOM     27  C   UNL     1      -2.638  -4.488  -6.906  0.00  0.00    +0.147 C 
BRANCH  27  28
ATOM     28  C   UNL     1      -3.660  -5.505  -6.395  0.00  0.00    +0.137 C 
ATOM     29  C   UNL     1      -4.774  -5.725  -7.450  0.00  0.00    +0.035 C 
ATOM     30  C   UNL     1      -5.265  -7.148  -7.068  0.00  0.00    +0.031 C 
ATOM     31  C   UNL     1      -3.963  -7.827  -6.591  0.00  0.00    +0.160 C 
ATOM     32  O   UNL     1      -3.042  -6.791  -6.226  0.00  0.00    -0.375 OA
ENDBRANCH  27  28
ENDBRANCH  21  27
ENDBRANCH  18  19
ENDBRANCH   1  18
TORSDOF 8
