REMARK  Name = ZINC63513823
REMARK  9 active torsions:
REMARK  status: ('A' for Active; 'I' for Inactive)
REMARK    1  A    between atoms: C_1  and  C_2
REMARK    2  A    between atoms: C_4  and  C_14
REMARK    3  A    between atoms: C_7  and  O_12
REMARK    4  A    between atoms: O_12  and  C_13
REMARK    5  A    between atoms: C_14  and  C_15
REMARK    6  A    between atoms: C_15  and  N_16
REMARK    7  A    between atoms: N_16  and  S_17
REMARK    8  A    between atoms: S_17  and  C_20
REMARK    9  A    between atoms: C_22  and  C_29
REMARK                            x       y       z     vdW  Elec       q    Type
REMARK                         _______ _______ _______ _____ _____    ______ ____
ROOT
ATOM      1  N   UNL     1       1.418  -0.442  -5.385  0.00  0.00    -0.189 NA
ATOM      2  H   UNL     1       0.551  -0.056  -5.587  0.00  0.00    +0.148 HD
ENDROOT
BRANCH   1   3
ATOM      3  S   UNL     1       2.368  -1.028  -6.608  0.00  0.00    +0.065 S 
ATOM      4  O   UNL     1       1.636  -0.849  -7.813  0.00  0.00    -0.153 OA
ATOM      5  O   UNL     1       3.664  -0.478  -6.415  0.00  0.00    -0.153 OA
BRANCH   3   6
ATOM      6  C   UNL     1       2.518  -2.767  -6.364  0.00  0.00    +0.188 A 
ATOM      7  H   UNL     1       1.044  -5.562  -7.005  0.00  0.00    +0.170 HD
ATOM      8  C   UNL     1       1.584  -3.610  -6.852  0.00  0.00    +0.049 A 
ATOM      9  N   UNL     1       1.716  -4.957  -6.653  0.00  0.00    -0.310 N 
ATOM     10  C   UNL     1       2.768  -5.450  -5.975  0.00  0.00    +0.327 A 
ATOM     11  O   UNL     1       2.865  -6.650  -5.809  0.00  0.00    -0.247 OA
ATOM     12  N   UNL     1       3.714  -4.632  -5.477  0.00  0.00    -0.273 N 
ATOM     13  C   UNL     1       3.624  -3.299  -5.657  0.00  0.00    +0.281 A 
ATOM     14  O   UNL     1       4.482  -2.559  -5.211  0.00  0.00    -0.266 OA
ATOM     15  C   UNL     1       0.400  -3.069  -7.613  0.00  0.00    +0.065 C 
ATOM     16  H   UNL     1       4.466  -5.004  -4.990  0.00  0.00    +0.173 HD
ENDBRANCH   3   6
ENDBRANCH   1   3
BRANCH   1  17
ATOM     17  C   UNL     1       1.886  -0.506  -3.998  0.00  0.00    +0.110 C 
BRANCH  17  18
ATOM     18  C   UNL     1       1.027   0.412  -3.127  0.00  0.00    +0.050 C 
BRANCH  18  21
ATOM     19  C   UNL     1       1.060   2.603  -0.738  0.00  0.00    +0.035 C 
ATOM     20  C   UNL     1       0.943   1.094  -0.514  0.00  0.00    +0.103 C 
ATOM     21  C   UNL     1       1.509   0.346  -1.700  0.00  0.00    -0.037 C 
ATOM     22  C   UNL     1       2.534  -0.395  -1.222  0.00  0.00    +0.003 A 
ATOM     23  C   UNL     1       3.472  -1.325  -1.860  0.00  0.00    +0.055 A 
ATOM     24  C   UNL     1       4.419  -1.937  -1.109  0.00  0.00    +0.121 A 
ATOM     25  C   UNL     1       4.540  -1.714   0.274  0.00  0.00    +0.047 A 
ATOM     26  C   UNL     1       3.724  -0.877   0.950  0.00  0.00    +0.029 A 
ATOM     27  C   UNL     1       2.662  -0.161   0.235  0.00  0.00    +0.043 A 
ATOM     28  N   UNL     1       1.752   0.690   0.641  0.00  0.00    -0.378 N 
ATOM     29  H   UNL     1       1.633   1.002   1.552  0.00  0.00    +0.160 HD
BRANCH  24  30
ATOM     30  O   UNL     1       5.282  -2.796  -1.713  0.00  0.00    -0.495 OA
ATOM     31  C   UNL     1       6.264  -3.420  -0.883  0.00  0.00    +0.277 C 
ENDBRANCH  24  30
ENDBRANCH  18  21
ENDBRANCH  17  18
ENDBRANCH   1  17
TORSDOF 6
