REMARK  Name = ZINC61712660
REMARK  3 active torsions:
REMARK  status: ('A' for Active; 'I' for Inactive)
REMARK    1  A    between atoms: C_7  and  C_18
REMARK    2  A    between atoms: C_9  and  N_11
REMARK    3  A    between atoms: C_14  and  O_17
REMARK                            x       y       z     vdW  Elec       q    Type
REMARK                         _______ _______ _______ _____ _____    ______ ____
ROOT
ATOM      1  C   UNL     1      -0.017   1.359  -0.049  0.00  0.00    +0.001 A 
ATOM      2  C   UNL     1       1.170   2.089  -0.056  0.00  0.00    +0.002 A 
ATOM      3  C   UNL     1       2.379   1.464  -0.051  0.00  0.00    +0.026 A 
ATOM      4  C   UNL     1       2.438   0.058  -0.040  0.00  0.00    +0.049 A 
ATOM      5  C   UNL     1       1.228  -0.678  -0.034  0.00  0.00    +0.013 A 
ATOM      6  C   UNL     1       0.002  -0.004  -0.038  0.00  0.00    +0.011 A 
ATOM      7  C   UNL     1       1.296  -2.141  -0.022  0.00  0.00    +0.075 A 
ATOM      8  C   UNL     1       2.559  -2.718  -0.018  0.00  0.00    +0.057 A 
ATOM      9  C   UNL     1       3.693  -1.894  -0.025  0.00  0.00    +0.100 A 
ATOM     10  N   UNL     1       3.609  -0.583  -0.035  0.00  0.00    -0.343 N 
ATOM     11  H   UNL     1       4.428  -0.062  -0.040  0.00  0.00    +0.167 HD
ENDROOT
BRANCH   9  12
ATOM     12  N   UNL     1       4.949  -2.484  -0.021  0.00  0.00    -0.314 N 
ATOM     13  C   UNL     1       6.236  -1.765  -0.021  0.00  0.00    +0.109 C 
ATOM     14  C   UNL     1       7.247  -2.763   0.597  0.00  0.00    +0.052 C 
ATOM     15  C   UNL     1       6.748  -4.112   0.016  0.00  0.00    +0.133 C 
ATOM     16  C   UNL     1       5.216  -3.930  -0.009  0.00  0.00    +0.137 C 
BRANCH  15  17
ATOM     17  O   UNL     1       7.115  -5.197   0.871  0.00  0.00    -0.390 OA
ATOM     18  H   UNL     1       8.069  -5.304   0.983  0.00  0.00    +0.210 HD
ENDBRANCH  15  17
ENDBRANCH   9  12
BRANCH   7  19
ATOM     19  C   UNL     1       0.073  -2.967  -0.014  0.00  0.00    +0.387 C 
ATOM     20  O   UNL     1       0.156  -4.183  -0.113  0.00  0.00    -0.241 OA
ATOM     21  O   UNL     1      -1.023  -2.436   0.091  0.00  0.00    -0.241 OA
ENDBRANCH   7  19
TORSDOF 3
