REMARK  Name = ZINC41083914
REMARK  9 active torsions:
REMARK  status: ('A' for Active; 'I' for Inactive)
REMARK    1  A    between atoms: C_1  and  C_2
REMARK    2  A    between atoms: C_2  and  O_3
REMARK    3  A    between atoms: O_3  and  C_4
REMARK    4  A    between atoms: C_4  and  C_6
REMARK    5  A    between atoms: C_8  and  N_13
REMARK    6  A    between atoms: C_11  and  N_12
REMARK    7  A    between atoms: N_16  and  C_19
REMARK    8  A    between atoms: C_19  and  C_20
REMARK    9  A    between atoms: C_19  and  C_21
REMARK                            x       y       z     vdW  Elec       q    Type
REMARK                         _______ _______ _______ _____ _____    ______ ____
ROOT
ATOM      1  C   UNL     1       1.446  -2.345  -2.527  0.00  0.00    +0.081 A 
ATOM      2  C   UNL     1       1.894  -1.490  -3.538  0.00  0.00    +0.040 A 
ATOM      3  C   UNL     1       2.536  -2.012  -4.646  0.00  0.00    +0.030 A 
ATOM      4  C   UNL     1       2.736  -3.385  -4.758  0.00  0.00    +0.025 A 
ATOM      5  C   UNL     1       2.298  -4.236  -3.765  0.00  0.00    +0.025 A 
ATOM      6  C   UNL     1       1.656  -3.727  -2.643  0.00  0.00    +0.039 A 
ENDROOT
BRANCH   3   7
ATOM      7  N   UNL     1       2.986  -1.156  -5.660  0.00  0.00    -0.333 N 
ATOM      8  C   UNL     1       2.906   0.305  -5.507  0.00  0.00    +0.086 C 
ATOM      9  C   UNL     1       4.278   0.903  -5.835  0.00  0.00    -0.059 C 
ATOM     10  N   UNL     1       4.700   0.455  -7.169  0.00  0.00    +0.383 N 
ATOM     11  C   UNL     1       4.893  -1.001  -7.170  0.00  0.00    -0.059 C 
ATOM     12  C   UNL     1       3.557  -1.693  -6.905  0.00  0.00    +0.086 C 
ATOM     13  H   UNL     1       3.991   0.699  -7.844  0.00  0.00    -0.081 HD
BRANCH  10  14
ATOM     14  C   UNL     1       5.962   1.115  -7.529  0.00  0.00    -0.075 C 
ATOM     15  C   UNL     1       6.403   0.649  -8.918  0.00  0.00    -0.014 C 
ATOM     16  C   UNL     1       5.759   2.631  -7.540  0.00  0.00    -0.014 C 
ENDBRANCH  10  14
ENDBRANCH   3   7
BRANCH   6  17
ATOM     17  N   UNL     1       1.219  -4.587  -1.640  0.00  0.00    -0.357 N 
ATOM     18  H   UNL     1       0.699  -4.241  -0.897  0.00  0.00    +0.142 HD
ATOM     19  H   UNL     1       1.434  -5.531  -1.683  0.00  0.00    +0.142 HD
ENDBRANCH   6  17
BRANCH   1  20
ATOM     20  C   UNL     1       0.761  -1.797  -1.343  0.00  0.00    +0.341 C 
ATOM     21  O   UNL     1       0.280  -2.548  -0.517  0.00  0.00    -0.245 OA
BRANCH  20  22
ATOM     22  O   UNL     1       0.669  -0.463  -1.175  0.00  0.00    -0.461 OA
BRANCH  22  24
ATOM     23  C   UNL     1      -0.012   1.528   0.013  0.00  0.00    +0.048 C 
ATOM     24  C   UNL     1      -0.008  -0.001  -0.004  0.00  0.00    +0.229 C 
ENDBRANCH  22  24
ENDBRANCH  20  22
ENDBRANCH   1  20
TORSDOF 6
