REMARK  Name = ZINC09109280
REMARK  6 active torsions:
REMARK  status: ('A' for Active; 'I' for Inactive)
REMARK    1  A    between atoms: C_1  and  C_2
REMARK    2  A    between atoms: C_2  and  C_3
REMARK    3  A    between atoms: C_3  and  N_4
REMARK    4  A    between atoms: C_7  and  C_13
REMARK    5  A    between atoms: C_8  and  O_12
REMARK    6  A    between atoms: C_10  and  O_11
REMARK                            x       y       z     vdW  Elec       q    Type
REMARK                         _______ _______ _______ _____ _____    ______ ____
ROOT
ATOM      1  C   UNL     1       3.619   4.892  -0.007  0.00  0.00    +0.018 C 
ATOM      2  C   UNL     1       2.879   3.574  -0.008  0.00  0.00    +0.011 A 
ATOM      3  C   UNL     1       1.533   3.489   0.003  0.00  0.00    -0.022 A 
ATOM      4  C   UNL     1       1.185   2.074   0.002  0.00  0.00    +0.003 A 
ATOM      5  C   UNL     1      -0.016   1.362   0.009  0.00  0.00    +0.010 A 
ATOM      6  C   UNL     1       0.002  -0.004   0.002  0.00  0.00    +0.001 A 
ATOM      7  C   UNL     1       1.207  -0.693  -0.012  0.00  0.00    +0.002 A 
ATOM      8  C   UNL     1       2.405  -0.013  -0.019  0.00  0.00    +0.026 A 
ATOM      9  C   UNL     1       2.410   1.378  -0.012  0.00  0.00    +0.047 A 
ATOM     10  N   UNL     1       3.417   2.320  -0.016  0.00  0.00    -0.359 N 
ATOM     11  H   UNL     1       4.366   2.121  -0.025  0.00  0.00    +0.166 HD
ATOM     12  C   UNL     1       0.618   4.686   0.011  0.00  0.00    +0.018 C 
ATOM     13  C   UNL     1       1.446   5.916  -0.386  0.00  0.00    -0.076 C 
ATOM     14  N   UNL     1       2.686   5.960   0.417  0.00  0.00    +0.388 N 
ATOM     15  H   UNL     1       3.138   6.873   0.292  0.00  0.00    -0.084 HD
ATOM     16  H   UNL     1       2.450   5.828   1.408  0.00  0.00    -0.084 HD
ENDROOT
BRANCH   1  20
ATOM     17  N   UNL     1       5.602   4.626   3.170  0.00  0.00    -0.263 N 
ATOM     18  C   UNL     1       4.542   4.680   2.336  0.00  0.00    +0.262 A 
ATOM     19  O   UNL     1       3.404   4.604   2.771  0.00  0.00    -0.267 OA
ATOM     20  C   UNL     1       4.771   4.827   0.962  0.00  0.00    +0.070 A 
ATOM     21  C   UNL     1       6.077   4.904   0.511  0.00  0.00    +0.224 A 
ATOM     22  N   UNL     1       7.086   4.849   1.387  0.00  0.00    -0.161 NA
ATOM     23  C   UNL     1       6.864   4.712   2.675  0.00  0.00    +0.302 A 
BRANCH  23  24
ATOM     24  O   UNL     1       7.911   4.656   3.523  0.00  0.00    -0.479 OA
ATOM     25  H   UNL     1       8.794   4.721   3.135  0.00  0.00    +0.295 HD
ENDBRANCH  23  24
BRANCH  21  26
ATOM     26  O   UNL     1       6.332   5.040  -0.811  0.00  0.00    -0.492 OA
ATOM     27  H   UNL     1       7.274   5.085  -1.027  0.00  0.00    +0.294 HD
ENDBRANCH  21  26
BRANCH  17  28
ATOM     28  C   UNL     1       5.391   4.474   4.612  0.00  0.00    +0.129 C 
BRANCH  28  30
ATOM     29  C   UNL     1       5.137   2.827   6.474  0.00  0.00    +0.005 C 
ATOM     30  C   UNL     1       5.358   2.986   4.968  0.00  0.00    +0.018 C 
ENDBRANCH  28  30
ENDBRANCH  17  28
ENDBRANCH   1  20
TORSDOF 5
