REMARK  Name = ZINC37856147
REMARK  7 active torsions:
REMARK  status: ('A' for Active; 'I' for Inactive)
REMARK    1  A    between atoms: C_1  and  C_2
REMARK    2  A    between atoms: C_2  and  O_3
REMARK    3  A    between atoms: O_3  and  C_4
REMARK    4  A    between atoms: C_9  and  N_12
REMARK    5  A    between atoms: N_12  and  C_13
REMARK    6  A    between atoms: C_13  and  C_14
REMARK    7  A    between atoms: C_14  and  O_21
REMARK                            x       y       z     vdW  Elec       q    Type
REMARK                         _______ _______ _______ _____ _____    ______ ____
ROOT
ATOM      1  N   UNL     1      -6.101  -3.770   2.151  0.00  0.00    +0.383 N 
ATOM      2  H   UNL     1      -5.584  -3.598   3.001  0.00  0.00    -0.085 HD
ATOM      3  H   UNL     1      -6.959  -3.239   2.166  0.00  0.00    -0.085 HD
ENDROOT
BRANCH   1   9
ATOM      4  C   UNL     1      -1.819  -1.601  -0.314  0.00  0.00    +0.403 C 
ATOM      5  O   UNL     1      -0.802  -2.264  -0.354  0.00  0.00    -0.226 OA
ATOM      6  N   UNL     1      -3.019  -2.210  -0.232  0.00  0.00    -0.268 N 
ATOM      7  C   UNL     1      -4.258  -1.421  -0.190  0.00  0.00    +0.109 C 
ATOM      8  C   UNL     1      -5.072  -1.848   1.036  0.00  0.00    +0.003 C 
ATOM      9  C   UNL     1      -5.292  -3.362   0.995  0.00  0.00    -0.069 C 
ATOM     10  C   UNL     1      -3.939  -4.077   1.041  0.00  0.00    +0.003 C 
ATOM     11  C   UNL     1      -3.113  -3.676  -0.190  0.00  0.00    +0.109 C 
BRANCH   4  12
ATOM     12  O   UNL     1      -1.748  -0.257  -0.352  0.00  0.00    -0.451 OA
BRANCH  12  14
ATOM     13  C   UNL     1      -0.564   1.846  -0.471  0.00  0.00    +0.048 C 
ATOM     14  C   UNL     1      -0.444   0.322  -0.439  0.00  0.00    +0.230 C 
ENDBRANCH  12  14
ENDBRANCH   4  12
ENDBRANCH   1   9
BRANCH   1  15
ATOM     15  C   UNL     1      -6.413  -5.202   2.050  0.00  0.00    -0.047 C 
BRANCH  15  16
ATOM     16  C   UNL     1      -7.238  -5.632   3.264  0.00  0.00    +0.051 C 
ATOM     17  C   UNL     1      -7.486  -7.152   3.187  0.00  0.00    +0.033 C 
ATOM     18  C   UNL     1      -7.824  -7.652   4.565  0.00  0.00    +0.003 C 
ATOM     19  C   UNL     1      -9.343  -7.706   4.817  0.00  0.00    +0.000 C 
ATOM     20  C   UNL     1     -10.085  -6.474   4.262  0.00  0.00    +0.000 C 
ATOM     21  C   UNL     1      -9.344  -5.191   4.521  0.00  0.00    +0.003 C 
ATOM     22  C   UNL     1      -8.476  -4.868   3.287  0.00  0.00    +0.033 C 
BRANCH  16  23
ATOM     23  O   UNL     1      -6.496  -5.346   4.452  0.00  0.00    -0.390 OA
ATOM     24  H   UNL     1      -5.611  -5.736   4.465  0.00  0.00    +0.210 HD
ENDBRANCH  16  23
ENDBRANCH  15  16
ENDBRANCH   1  15
TORSDOF 6
