REMARK  Name = ZINC52712521
REMARK  13 active torsions:
REMARK  status: ('A' for Active; 'I' for Inactive)
REMARK    1  A    between atoms: C_1  and  C_2
REMARK    2  A    between atoms: C_2  and  O_3
REMARK    3  A    between atoms: O_3  and  C_4
REMARK    4  A    between atoms: C_11  and  C_13
REMARK    5  A    between atoms: C_13  and  C_15
REMARK    6  A    between atoms: C_13  and  N_16
REMARK    7  A    between atoms: N_16  and  C_17
REMARK    8  A    between atoms: C_17  and  C_19
REMARK    9  A    between atoms: C_17  and  C_20
REMARK   10  A    between atoms: N_25  and  C_26
REMARK   11  A    between atoms: C_26  and  C_27
REMARK   12  A    between atoms: C_26  and  C_28
REMARK   13  A    between atoms: C_26  and  C_29
REMARK                            x       y       z     vdW  Elec       q    Type
REMARK                         _______ _______ _______ _____ _____    ______ ____
ROOT
ATOM      1  N   UNL     1       2.577  -1.303  -6.343  0.00  0.00    +0.393 N 
ATOM      2  H   UNL     1       1.596  -1.502  -6.468  0.00  0.00    -0.084 HD
ATOM      3  H   UNL     1       2.683  -0.465  -5.791  0.00  0.00    -0.084 HD
ENDROOT
BRANCH   1   4
ATOM      4  C   UNL     1       3.221  -2.429  -5.652  0.00  0.00    -0.006 C 
ATOM      5  C   UNL     1       4.679  -2.076  -5.351  0.00  0.00    -0.006 C 
BRANCH   4  13
ATOM      6  C   UNL     1       0.777  -1.811  -1.336  0.00  0.00    +0.163 A 
ATOM      7  C   UNL     1       0.244  -2.667  -0.390  0.00  0.00    +0.049 A 
ATOM      8  C   UNL     1       0.346  -4.042  -0.543  0.00  0.00    +0.004 A 
ATOM      9  C   UNL     1       0.980  -4.573  -1.645  0.00  0.00    +0.012 A 
ATOM     10  C   UNL     1       1.522  -3.721  -2.608  0.00  0.00    +0.024 A 
ATOM     11  C   UNL     1       1.417  -2.330  -2.460  0.00  0.00    +0.176 A 
ATOM     12  O   UNL     1       2.015  -1.766  -3.529  0.00  0.00    -0.458 OA
ATOM     13  C   UNL     1       2.495  -2.707  -4.361  0.00  0.00    +0.092 A 
ATOM     14  C   UNL     1       2.244  -3.928  -3.870  0.00  0.00    +0.051 A 
BRANCH   6  15
ATOM     15  O   UNL     1       0.671  -0.465  -1.174  0.00  0.00    -0.489 OA
BRANCH  15  17
ATOM     16  C   UNL     1      -0.019   1.526   0.010  0.00  0.00    +0.048 C 
ATOM     17  C   UNL     1       0.002  -0.004   0.002  0.00  0.00    +0.226 C 
ENDBRANCH  15  17
ENDBRANCH   6  15
ENDBRANCH   4  13
ENDBRANCH   1   4
BRANCH   1  18
ATOM     18  C   UNL     1       3.209  -1.108  -7.655  0.00  0.00    +0.014 C 
ATOM     19  C   UNL     1       2.942  -2.330  -8.536  0.00  0.00    -0.004 C 
BRANCH  18  20
ATOM     20  C   UNL     1       2.634   0.120  -8.312  0.00  0.00    +0.206 C 
ATOM     21  O   UNL     1       1.782   0.769  -7.743  0.00  0.00    -0.277 OA
ATOM     22  N   UNL     1       3.066   0.497  -9.531  0.00  0.00    -0.242 N 
ATOM     23  C   UNL     1       2.552   1.595 -10.119  0.00  0.00    +0.306 C 
ATOM     24  O   UNL     1       1.698   2.246  -9.549  0.00  0.00    -0.252 OA
ATOM     25  N   UNL     1       2.984   1.972 -11.338  0.00  0.00    -0.294 N 
ATOM     26  H   UNL     1       3.748  -0.022  -9.986  0.00  0.00    +0.159 HD
ATOM     27  H   UNL     1       3.666   1.453 -11.793  0.00  0.00    +0.151 HD
BRANCH  25  28
ATOM     28  C   UNL     1       2.425   3.166 -11.977  0.00  0.00    +0.028 C 
ATOM     29  C   UNL     1       2.692   4.388 -11.096  0.00  0.00    +0.031 C 
ATOM     30  C   UNL     1       3.083   3.369 -13.344  0.00  0.00    +0.031 C 
ATOM     31  C   UNL     1       0.916   2.989 -12.159  0.00  0.00    +0.031 C 
ENDBRANCH  25  28
ENDBRANCH  18  20
ENDBRANCH   1  18
TORSDOF 7
