REMARK  Name = ZINC63389379
REMARK  9 active torsions:
REMARK  status: ('A' for Active; 'I' for Inactive)
REMARK    1  A    between atoms: C_1  and  C_2
REMARK    2  A    between atoms: C_2  and  C_3
REMARK    3  A    between atoms: C_2  and  C_4
REMARK    4  A    between atoms: C_7  and  N_10
REMARK    5  A    between atoms: C_11  and  C_13
REMARK    6  A    between atoms: N_15  and  C_16
REMARK    7  A    between atoms: C_16  and  C_17
REMARK    8  A    between atoms: C_17  and  N_18
REMARK    9  A    between atoms: C_19  and  C_21
REMARK                            x       y       z     vdW  Elec       q    Type
REMARK                         _______ _______ _______ _____ _____    ______ ____
ROOT
ATOM      1  C   UNL     1      -7.221  -3.083  -1.051  0.00  0.00    +0.299 C 
ATOM      2  O   UNL     1      -7.962  -2.799  -0.133  0.00  0.00    -0.265 OA
ATOM      3  N   UNL     1      -7.691  -3.777  -2.106  0.00  0.00    -0.306 N 
ATOM      4  H   UNL     1      -7.099  -4.004  -2.840  0.00  0.00    +0.149 HD
ENDROOT
BRANCH   1   6
ATOM      5  N   UNL     1      -5.319  -1.967   0.042  0.00  0.00    -0.278 N 
ATOM      6  C   UNL     1      -5.788  -2.662  -1.013  0.00  0.00    +0.303 C 
ATOM      7  O   UNL     1      -5.048  -2.945  -1.931  0.00  0.00    -0.265 OA
ATOM      8  H   UNL     1      -5.889  -1.806   0.810  0.00  0.00    +0.155 HD
BRANCH   5  12
ATOM      9  C   UNL     1      -1.417  -0.511   0.004  0.00  0.00    -0.045 A 
ATOM     10  C   UNL     1      -1.990  -0.918   1.196  0.00  0.00    +0.006 A 
ATOM     11  C   UNL     1      -3.284  -1.401   1.212  0.00  0.00    +0.023 A 
ATOM     12  C   UNL     1      -4.010  -1.478   0.030  0.00  0.00    +0.034 A 
ATOM     13  C   UNL     1      -3.431  -1.068  -1.165  0.00  0.00    +0.023 A 
ATOM     14  C   UNL     1      -2.139  -0.581  -1.173  0.00  0.00    +0.006 A 
BRANCH   9  16
ATOM     15  C   UNL     1       0.088   1.248   0.893  0.00  0.00    +0.012 C 
ATOM     16  C   UNL     1      -0.005   0.016  -0.009  0.00  0.00    +0.013 C 
ATOM     17  C   UNL     1       0.948  -1.065   0.504  0.00  0.00    +0.012 C 
ENDBRANCH   9  16
ENDBRANCH   5  12
ENDBRANCH   1   6
BRANCH   3  18
ATOM     18  C   UNL     1      -9.096  -4.190  -2.144  0.00  0.00    +0.123 C 
BRANCH  18  19
ATOM     19  C   UNL     1      -9.367  -4.958  -3.439  0.00  0.00    +0.123 C 
BRANCH  19  20
ATOM     20  N   UNL     1     -10.772  -5.371  -3.477  0.00  0.00    -0.312 N 
ATOM     21  C   UNL     1     -11.242  -6.066  -4.532  0.00  0.00    +0.239 C 
ATOM     22  O   UNL     1     -10.502  -6.349  -5.450  0.00  0.00    -0.273 OA
ATOM     23  H   UNL     1     -11.364  -5.144  -2.743  0.00  0.00    +0.149 HD
BRANCH  21  24
ATOM     24  C   UNL     1     -12.688  -6.490  -4.571  0.00  0.00    +0.190 C 
ATOM     25  C   UNL     1     -13.588  -5.275  -4.576  0.00  0.00    +0.016 C 
ATOM     26  C   UNL     1     -14.293  -5.336  -5.729  0.00  0.00    -0.004 A 
ATOM     27  C   UNL     1     -15.318  -4.463  -6.314  0.00  0.00    +0.010 A 
ATOM     28  C   UNL     1     -15.854  -4.793  -7.512  0.00  0.00    +0.001 A 
ATOM     29  C   UNL     1     -15.455  -5.944  -8.206  0.00  0.00    +0.002 A 
ATOM     30  C   UNL     1     -14.519  -6.793  -7.733  0.00  0.00    +0.026 A 
ATOM     31  C   UNL     1     -13.889  -6.545  -6.482  0.00  0.00    +0.043 A 
ATOM     32  N   UNL     1     -12.971  -7.208  -5.820  0.00  0.00    -0.370 N 
ATOM     33  H   UNL     1     -12.549  -8.033  -6.106  0.00  0.00    +0.161 HD
ENDBRANCH  21  24
ENDBRANCH  19  20
ENDBRANCH  18  19
ENDBRANCH   3  18
TORSDOF 7
