REMARK  Name = ZINC42568913
REMARK  8 active torsions:
REMARK  status: ('A' for Active; 'I' for Inactive)
REMARK    1  A    between atoms: C_1  and  C_2
REMARK    2  A    between atoms: C_2  and  C_3
REMARK    3  A    between atoms: C_2  and  C_4
REMARK    4  A    between atoms: C_2  and  C_5
REMARK    5  A    between atoms: C_8  and  S_10
REMARK    6  A    between atoms: S_10  and  C_11
REMARK    7  A    between atoms: C_11  and  C_12
REMARK    8  A    between atoms: N_17  and  C_18
REMARK                            x       y       z     vdW  Elec       q    Type
REMARK                         _______ _______ _______ _____ _____    ______ ____
ROOT
ATOM      1  S   UNL     1       1.023  -2.394  -4.600  0.00  0.00    -0.056 S 
ENDROOT
BRANCH   1   5
ATOM      2  C   UNL     1       0.707  -0.490  -1.238  0.00  0.00    +0.223 A 
ATOM      3  N   UNL     1       1.940  -0.237  -1.570  0.00  0.00    -0.111 NA
ATOM      4  N   UNL     1       2.210  -0.811  -2.689  0.00  0.00    -0.101 NA
ATOM      5  C   UNL     1       1.150  -1.455  -3.114  0.00  0.00    +0.278 A 
ATOM      6  O   UNL     1       0.178  -1.270  -2.201  0.00  0.00    -0.415 OA
BRANCH   2   8
ATOM      7  C   UNL     1      -0.019   1.526   0.010  0.00  0.00    +0.020 C 
ATOM      8  C   UNL     1       0.002  -0.004   0.002  0.00  0.00    +0.040 C 
ATOM      9  C   UNL     1       0.742  -0.511   1.242  0.00  0.00    +0.020 C 
ATOM     10  C   UNL     1      -1.433  -0.534   0.013  0.00  0.00    +0.020 C 
ENDBRANCH   2   8
ENDBRANCH   1   5
BRANCH   1  11
ATOM     11  C   UNL     1       2.666  -2.245  -5.354  0.00  0.00    +0.175 C 
BRANCH  11  12
ATOM     12  C   UNL     1       2.694  -3.014  -6.651  0.00  0.00    +0.231 C 
ATOM     13  O   UNL     1       1.704  -3.603  -7.028  0.00  0.00    -0.274 OA
ATOM     14  N   UNL     1       3.821  -3.045  -7.390  0.00  0.00    -0.240 N 
ATOM     15  C   UNL     1       3.846  -3.732  -8.550  0.00  0.00    +0.306 C 
ATOM     16  O   UNL     1       2.854  -4.323  -8.928  0.00  0.00    -0.252 OA
ATOM     17  N   UNL     1       4.972  -3.764  -9.289  0.00  0.00    -0.302 N 
ATOM     18  C   UNL     1       5.000  -4.511 -10.549  0.00  0.00    +0.129 C 
ATOM     19  H   UNL     1       4.613  -2.574  -7.088  0.00  0.00    +0.159 HD
ATOM     20  H   UNL     1       5.764  -3.293  -8.987  0.00  0.00    +0.150 HD
ENDBRANCH  11  12
ENDBRANCH   1  11
TORSDOF 4
