REMARK  Name = ZINC37782728
REMARK  5 active torsions:
REMARK  status: ('A' for Active; 'I' for Inactive)
REMARK    1  A    between atoms: C_1  and  C_2
REMARK    2  A    between atoms: C_2  and  C_4
REMARK    3  A    between atoms: C_2  and  N_11
REMARK    4  A    between atoms: C_4  and  N_5
REMARK    5  A    between atoms: N_11  and  C_12
REMARK                            x       y       z     vdW  Elec       q    Type
REMARK                         _______ _______ _______ _____ _____    ______ ____
ROOT
ATOM      1  N   UNL     1       0.713  -0.491   1.192  0.00  0.00    +0.384 N 
ATOM      2  H   UNL     1       0.366  -0.122   2.065  0.00  0.00    -0.085 HD
ATOM      3  H   UNL     1       0.578  -1.490   1.173  0.00  0.00    -0.085 HD
ENDROOT
BRANCH   1   4
ATOM      4  C   UNL     1       2.144  -0.187   1.066  0.00  0.00    -0.068 C 
ATOM      5  C   UNL     1       2.690  -0.853  -0.194  0.00  0.00    +0.007 C 
ATOM      6  C   UNL     1       4.100  -0.334  -0.490  0.00  0.00    +0.164 C 
ATOM      7  S   UNL     1       5.199  -0.808   0.877  0.00  0.00    -0.031 S 
ATOM      8  O   UNL     1       6.422  -0.097   0.740  0.00  0.00    -0.174 OA
ATOM      9  O   UNL     1       5.229  -2.226   0.963  0.00  0.00    -0.174 OA
ATOM     10  C   UNL     1       4.310  -0.157   2.321  0.00  0.00    +0.164 C 
ATOM     11  C   UNL     1       2.877  -0.695   2.304  0.00  0.00    +0.007 C 
ENDBRANCH   1   4
BRANCH   1  13
ATOM     12  C   UNL     1       0.078   1.647   0.181  0.00  0.00    -0.012 C 
ATOM     13  C   UNL     1      -0.019   0.124   0.076  0.00  0.00    -0.057 C 
BRANCH  13  14
ATOM     14  C   UNL     1      -1.488  -0.299   0.134  0.00  0.00    +0.092 C 
BRANCH  14  15
ATOM     15  N   UNL     1      -1.574  -1.761   0.154  0.00  0.00    -0.303 N 
ATOM     16  C   UNL     1      -1.661  -2.602  -1.045  0.00  0.00    +0.108 C 
ATOM     17  C   UNL     1      -1.295  -4.028  -0.577  0.00  0.00    +0.028 C 
ATOM     18  C   UNL     1      -1.673  -3.974   0.922  0.00  0.00    +0.097 C 
ATOM     19  C   UNL     1      -1.579  -2.506   1.274  0.00  0.00    +0.216 C 
ATOM     20  O   UNL     1      -1.518  -2.064   2.402  0.00  0.00    -0.276 OA
ENDBRANCH  14  15
ENDBRANCH  13  14
ENDBRANCH   1  13
TORSDOF 4
