REMARK  Name = ZINC64885353
REMARK  9 active torsions:
REMARK  status: ('A' for Active; 'I' for Inactive)
REMARK    1  A    between atoms: C_4  and  C_7
REMARK    2  A    between atoms: C_7  and  C_8
REMARK    3  A    between atoms: C_7  and  C_24
REMARK    4  A    between atoms: C_8  and  C_9
REMARK    5  A    between atoms: N_11  and  N_12
REMARK    6  A    between atoms: N_15  and  C_16
REMARK    7  A    between atoms: C_16  and  C_17
REMARK    8  A    between atoms: C_17  and  C_18
REMARK    9  A    between atoms: C_18  and  N_19
REMARK                            x       y       z     vdW  Elec       q    Type
REMARK                         _______ _______ _______ _____ _____    ______ ____
ROOT
ATOM      1  C   UNL     1       4.759  -2.365   1.480  0.00  0.00    +0.230 C 
ATOM      2  O   UNL     1       5.668  -2.349   0.677  0.00  0.00    -0.274 OA
ATOM      3  N   UNL     1       4.835  -3.156   2.568  0.00  0.00    -0.233 N 
ATOM      4  H   UNL     1       4.108  -3.169   3.210  0.00  0.00    +0.173 HD
ENDROOT
BRANCH   3   5
ATOM      5  N   UNL     1       5.964  -3.961   2.772  0.00  0.00    -0.218 N 
ATOM      6  C   UNL     1       6.040  -4.752   3.860  0.00  0.00    +0.316 C 
ATOM      7  O   UNL     1       7.019  -5.450   4.037  0.00  0.00    -0.251 OA
ATOM      8  N   UNL     1       5.030  -4.770   4.752  0.00  0.00    -0.298 N 
ATOM      9  H   UNL     1       6.691  -3.948   2.130  0.00  0.00    +0.174 HD
ATOM     10  H   UNL     1       4.248  -4.213   4.611  0.00  0.00    +0.150 HD
BRANCH   8  11
ATOM     11  C   UNL     1       5.112  -5.630   5.935  0.00  0.00    +0.107 C 
BRANCH  11  12
ATOM     12  C   UNL     1       3.846  -5.462   6.777  0.00  0.00    +0.040 C 
BRANCH  12  13
ATOM     13  C   UNL     1       3.932  -6.361   8.013  0.00  0.00    +0.124 C 
BRANCH  13  14
ATOM     14  N   UNL     1       2.720  -6.200   8.819  0.00  0.00    -0.338 N 
ATOM     15  C   UNL     1       2.526  -5.289   9.823  0.00  0.00    +0.104 A 
ATOM     16  C   UNL     1       1.280  -5.486  10.293  0.00  0.00    +0.101 A 
ATOM     17  N   UNL     1       0.727  -6.489   9.595  0.00  0.00    -0.352 N 
ATOM     18  C   UNL     1       1.581  -6.918   8.707  0.00  0.00    +0.173 A 
ATOM     19  H   UNL     1      -0.169  -6.838   9.727  0.00  0.00    +0.166 HD
ENDBRANCH  13  14
ENDBRANCH  12  13
ENDBRANCH  11  12
ENDBRANCH   8  11
ENDBRANCH   3   5
BRANCH   1  20
ATOM     20  C   UNL     1       3.545  -1.500   1.260  0.00  0.00    +0.110 C 
BRANCH  20  21
ATOM     21  C   UNL     1       3.711  -0.707  -0.038  0.00  0.00    +0.058 C 
BRANCH  21  25
ATOM     22  C   UNL     1       0.436   1.999  -0.485  0.00  0.00    +0.000 A 
ATOM     23  C   UNL     1       1.735   2.463  -0.581  0.00  0.00    +0.000 A 
ATOM     24  C   UNL     1       2.795   1.588  -0.436  0.00  0.00    +0.004 A 
ATOM     25  C   UNL     1       2.556   0.248  -0.195  0.00  0.00    -0.040 A 
ATOM     26  C   UNL     1       1.258  -0.216  -0.098  0.00  0.00    +0.004 A 
ATOM     27  C   UNL     1       0.198   0.659  -0.244  0.00  0.00    +0.000 A 
ENDBRANCH  21  25
BRANCH  21  28
ATOM     28  C   UNL     1       3.740  -1.658  -1.207  0.00  0.00    -0.040 A 
ATOM     29  C   UNL     1       2.732  -2.591  -1.363  0.00  0.00    +0.004 A 
ATOM     30  C   UNL     1       2.758  -3.463  -2.435  0.00  0.00    +0.000 A 
ATOM     31  C   UNL     1       3.791  -3.401  -3.351  0.00  0.00    +0.000 A 
ATOM     32  C   UNL     1       4.798  -2.467  -3.196  0.00  0.00    +0.000 A 
ATOM     33  C   UNL     1       4.770  -1.592  -2.126  0.00  0.00    +0.004 A 
ENDBRANCH  21  28
ENDBRANCH  20  21
ENDBRANCH   1  20
TORSDOF 9
