REMARK  Name = ZINC51363982
REMARK  7 active torsions:
REMARK  status: ('A' for Active; 'I' for Inactive)
REMARK    1  A    between atoms: C_1  and  C_2
REMARK    2  A    between atoms: C_2  and  C_3
REMARK    3  A    between atoms: C_3  and  N_4
REMARK    4  A    between atoms: C_8  and  C_14
REMARK    5  A    between atoms: C_14  and  C_16
REMARK    6  A    between atoms: C_14  and  N_22
REMARK    7  A    between atoms: C_17  and  C_21
REMARK                            x       y       z     vdW  Elec       q    Type
REMARK                         _______ _______ _______ _____ _____    ______ ____
ROOT
ATOM      1  N   UNL     1       0.738  -1.962  -1.265  0.00  0.00    -0.274 N 
ATOM      2  C   UNL     1       1.726  -2.777  -0.712  0.00  0.00    +0.090 A 
ATOM      3  C   UNL     1       2.906  -2.515  -0.034  0.00  0.00    +0.030 A 
ATOM      4  C   UNL     1       3.695  -3.561   0.402  0.00  0.00    +0.004 A 
ATOM      5  C   UNL     1       3.310  -4.869   0.164  0.00  0.00    -0.051 A 
ATOM      6  C   UNL     1       2.135  -5.138  -0.510  0.00  0.00    +0.051 A 
ATOM      7  C   UNL     1       1.336  -4.094  -0.951  0.00  0.00    +0.157 A 
ATOM      8  O   UNL     1       0.160  -4.050  -1.623  0.00  0.00    -0.407 OA
ATOM      9  C   UNL     1      -0.198  -2.769  -1.803  0.00  0.00    +0.421 A 
ATOM     10  O   UNL     1      -1.207  -2.394  -2.368  0.00  0.00    -0.223 OA
ENDROOT
BRANCH   1  11
ATOM     11  C   UNL     1       0.718  -0.497  -1.257  0.00  0.00    +0.128 C 
BRANCH  11  13
ATOM     12  C   UNL     1      -0.019   1.526   0.010  0.00  0.00    +0.005 C 
ATOM     13  C   UNL     1       0.002  -0.004   0.002  0.00  0.00    +0.018 C 
ENDBRANCH  11  13
ENDBRANCH   1  11
BRANCH   5  14
ATOM     14  C   UNL     1       4.176  -6.005   0.643  0.00  0.00    +0.024 C 
BRANCH  14  15
ATOM     15  C   UNL     1       5.319  -6.205  -0.319  0.00  0.00    +0.098 A 
ATOM     16  C   UNL     1       5.425  -7.198  -1.220  0.00  0.00    -0.011 A 
ATOM     17  C   UNL     1       6.645  -7.001  -1.906  0.00  0.00    +0.044 A 
ATOM     18  C   UNL     1       7.213  -5.899  -1.383  0.00  0.00    +0.195 A 
ATOM     19  O   UNL     1       6.402  -5.418  -0.427  0.00  0.00    -0.469 OA
ATOM     20  C   UNL     1       4.433  -8.309  -1.453  0.00  0.00    +0.047 C 
ENDBRANCH  14  15
BRANCH  14  21
ATOM     21  N   UNL     1       4.708  -5.688   1.975  0.00  0.00    +0.387 N 
ATOM     22  H   UNL     1       3.943  -5.555   2.619  0.00  0.00    -0.089 HD
ATOM     23  H   UNL     1       5.288  -6.449   2.295  0.00  0.00    -0.089 HD
ATOM     24  H   UNL     1       5.258  -4.843   1.926  0.00  0.00    -0.089 HD
ENDBRANCH  14  21
ENDBRANCH   5  14
TORSDOF 5
