REMARK  Name = ZINC40685525
REMARK  4 active torsions:
REMARK  status: ('A' for Active; 'I' for Inactive)
REMARK    1  A    between atoms: C_1  and  C_2
REMARK    2  A    between atoms: C_6  and  N_8
REMARK    3  A    between atoms: C_10  and  N_23
REMARK    4  A    between atoms: C_11  and  N_15
REMARK                            x       y       z     vdW  Elec       q    Type
REMARK                         _______ _______ _______ _____ _____    ______ ____
ROOT
ATOM      1  N   UNL     1       0.056  -2.637   2.416  0.00  0.00    -0.284 N 
ATOM      2  C   UNL     1      -0.033  -4.025   2.467  0.00  0.00    +0.127 A 
ATOM      3  C   UNL     1      -0.131  -4.684   3.695  0.00  0.00    +0.104 A 
ATOM      4  C   UNL     1      -0.218  -6.077   3.689  0.00  0.00    +0.150 A 
ATOM      5  N   UNL     1      -0.203  -6.719   2.524  0.00  0.00    -0.221 NA
ATOM      6  C   UNL     1      -0.108  -6.059   1.388  0.00  0.00    +0.200 A 
ATOM      7  N   UNL     1      -0.029  -4.744   1.348  0.00  0.00    -0.333 N 
ATOM      8  H   UNL     1       0.150  -2.127   3.235  0.00  0.00    +0.155 HD
ATOM      9  H   UNL     1       0.035  -4.295   0.491  0.00  0.00    +0.168 HD
ENDROOT
BRANCH   4  10
ATOM     10  N   UNL     1      -0.318  -6.783   4.884  0.00  0.00    -0.283 N 
ATOM     11  C   UNL     1      -0.296  -8.175   4.873  0.00  0.00    +0.124 A 
ATOM     12  C   UNL     1      -0.290  -8.872   6.077  0.00  0.00    +0.045 A 
ATOM     13  C   UNL     1      -0.269 -10.255   6.053  0.00  0.00    +0.025 A 
ATOM     14  C   UNL     1      -0.255 -10.897   4.820  0.00  0.00    +0.059 A 
ATOM     15  C   UNL     1      -0.263 -10.140   3.664  0.00  0.00    +0.132 A 
ATOM     16  N   UNL     1      -0.288  -8.822   3.719  0.00  0.00    -0.239 NA
ATOM     17 CL   UNL     1      -0.228 -12.630   4.734  0.00  0.00    -0.082 Cl
ATOM     18  H   UNL     1      -0.402  -6.305   5.724  0.00  0.00    +0.155 HD
ENDBRANCH   4  10
BRANCH   1  24
ATOM     19  C   UNL     1      -0.083  -2.956  -2.360  0.00  0.00    +0.065 C 
ATOM     20  C   UNL     1      -0.058  -2.107  -1.115  0.00  0.00    +0.040 A 
ATOM     21  C   UNL     1      -0.082  -0.731  -1.227  0.00  0.00    +0.023 A 
ATOM     22  C   UNL     1      -0.059   0.046  -0.077  0.00  0.00    +0.005 A 
ATOM     23  C   UNL     1      -0.013  -0.593   1.150  0.00  0.00    +0.044 A 
ATOM     24  C   UNL     1       0.009  -1.983   1.189  0.00  0.00    +0.124 A 
ATOM     25  N   UNL     1      -0.020  -2.689   0.069  0.00  0.00    -0.237 NA
ENDBRANCH   1  24
BRANCH   3  26
ATOM     26  N   UNL     1      -0.143  -3.965   4.900  0.00  0.00    -0.353 N 
ATOM     27  H   UNL     1      -0.082  -2.997   4.888  0.00  0.00    +0.143 HD
ATOM     28  H   UNL     1      -0.212  -4.436   5.745  0.00  0.00    +0.143 HD
ENDBRANCH   3  26
TORSDOF 3
