REMARK  Name = ZINC44123072
REMARK  9 active torsions:
REMARK  status: ('A' for Active; 'I' for Inactive)
REMARK    1  A    between atoms: C_1  and  C_2
REMARK    2  A    between atoms: C_2  and  C_3
REMARK    3  A    between atoms: C_2  and  C_4
REMARK    4  A    between atoms: C_2  and  N_5
REMARK    5  A    between atoms: N_5  and  C_6
REMARK    6  A    between atoms: C_6  and  C_7
REMARK    7  A    between atoms: C_7  and  C_9
REMARK    8  A    between atoms: C_7  and  O_26
REMARK    9  A    between atoms: C_17  and  C_20
REMARK                            x       y       z     vdW  Elec       q    Type
REMARK                         _______ _______ _______ _____ _____    ______ ____
ROOT
ATOM      1  C   UNL     1       4.198   0.059  -2.486  0.00  0.00    +0.068 A 
ATOM      2  C   UNL     1       5.250  -0.829  -2.612  0.00  0.00    +0.029 A 
ATOM      3  C   UNL     1       6.547  -0.340  -2.619  0.00  0.00    +0.049 A 
ATOM      4  C   UNL     1       6.736   1.033  -2.500  0.00  0.00    +0.148 A 
ATOM      5  C   UNL     1       5.632   1.862  -2.381  0.00  0.00    +0.109 A 
ATOM      6  N   UNL     1       4.412   1.355  -2.382  0.00  0.00    -0.248 NA
ATOM      7  C   UNL     1       5.815   3.355  -2.261  0.00  0.00    +0.223 C 
ATOM      8  O   UNL     1       7.174   3.639  -1.915  0.00  0.00    -0.332 OA
ATOM      9  C   UNL     1       8.120   2.949  -2.740  0.00  0.00    +0.340 C 
ATOM     10  O   UNL     1       7.994   1.544  -2.500  0.00  0.00    -0.458 OA
ENDROOT
BRANCH   9  11
ATOM     11  C   UNL     1       9.516   3.402  -2.396  0.00  0.00    +0.020 A 
ATOM     12  C   UNL     1      10.449   2.486  -1.949  0.00  0.00    +0.010 A 
ATOM     13  C   UNL     1      11.729   2.901  -1.634  0.00  0.00    +0.000 A 
ATOM     14  C   UNL     1      12.076   4.233  -1.767  0.00  0.00    +0.000 A 
ATOM     15  C   UNL     1      11.143   5.149  -2.215  0.00  0.00    +0.000 A 
ATOM     16  C   UNL     1       9.864   4.733  -2.534  0.00  0.00    +0.010 A 
ENDBRANCH   9  11
BRANCH   1  17
ATOM     17  C   UNL     1       2.784  -0.463  -2.476  0.00  0.00    +0.146 C 
BRANCH  17  18
ATOM     18  O   UNL     1       2.803  -1.892  -2.484  0.00  0.00    -0.388 OA
ATOM     19  H   UNL     1       3.258  -2.283  -1.725  0.00  0.00    +0.210 HD
ENDBRANCH  17  18
BRANCH  17  20
ATOM     20  C   UNL     1       2.068   0.031  -1.217  0.00  0.00    -0.044 C 
BRANCH  20  21
ATOM     21  N   UNL     1       0.690  -0.478  -1.207  0.00  0.00    +0.384 N 
ATOM     22  H   UNL     1       0.703  -1.487  -1.212  0.00  0.00    -0.085 HD
ATOM     23  H   UNL     1       0.202  -0.144  -2.024  0.00  0.00    -0.085 HD
BRANCH  21  25
ATOM     24  C   UNL     1      -0.019   1.526   0.010  0.00  0.00    -0.011 C 
ATOM     25  C   UNL     1       0.002  -0.004   0.002  0.00  0.00    -0.077 C 
ATOM     26  C   UNL     1       0.742  -0.511   1.242  0.00  0.00    -0.011 C 
ATOM     27  C   UNL     1      -1.433  -0.534   0.013  0.00  0.00    -0.011 C 
ENDBRANCH  21  25
ENDBRANCH  20  21
ENDBRANCH  17  20
ENDBRANCH   1  17
TORSDOF 6
