REMARK  Name = ZINC00894464
REMARK  7 active torsions:
REMARK  status: ('A' for Active; 'I' for Inactive)
REMARK    1  A    between atoms: C_1  and  C_2
REMARK    2  A    between atoms: C_4  and  C_32
REMARK    3  A    between atoms: C_7  and  C_14
REMARK    4  A    between atoms: C_14  and  C_16
REMARK    5  A    between atoms: C_14  and  N_63
REMARK    6  A    between atoms: N_20  and  C_21
REMARK    7  A    between atoms: C_28  and  C_31
REMARK                            x       y       z     vdW  Elec       q    Type
REMARK                         _______ _______ _______ _____ _____    ______ ____
ROOT
ATOM      1  C   UNL     1      -3.729   6.022   0.067  0.00  0.00    +0.039 C 
ENDROOT
BRANCH   1   8
ATOM      2  C   UNL     1       2.635   1.225  -0.253  0.00  0.00    +0.044 C 
ATOM      3  C   UNL     1       1.307   1.936  -0.216  0.00  0.00    -0.048 A 
ATOM      4  C   UNL     1       0.132   1.203  -0.321  0.00  0.00    +0.007 A 
ATOM      5  C   UNL     1      -1.082   1.829  -0.294  0.00  0.00    -0.041 A 
ATOM      6  C   UNL     1      -1.143   3.219  -0.150  0.00  0.00    +0.002 A 
ATOM      7  C   UNL     1      -2.427   3.920  -0.111  0.00  0.00    +0.018 A 
ATOM      8  C   UNL     1      -2.425   5.269   0.025  0.00  0.00    +0.011 A 
ATOM      9  C   UNL     1      -1.204   5.971   0.127  0.00  0.00    +0.251 A 
ATOM     10  O   UNL     1      -1.224   7.183   0.250  0.00  0.00    -0.268 OA
ATOM     11  N   UNL     1      -0.020   5.335   0.094  0.00  0.00    -0.322 N 
ATOM     12  H   UNL     1       0.825   5.864   0.170  0.00  0.00    +0.169 HD
ATOM     13  C   UNL     1       0.045   3.965  -0.043  0.00  0.00    +0.050 A 
ATOM     14  C   UNL     1       1.271   3.307  -0.078  0.00  0.00    +0.029 A 
ATOM     15  C   UNL     1      -2.350   1.024  -0.415  0.00  0.00    +0.044 C 
ENDBRANCH   1   8
BRANCH   1  22
ATOM     16  C   UNL     1      -4.960   7.724   1.271  0.00  0.00    -0.077 C 
ATOM     17  C   UNL     1      -4.896   8.685   2.460  0.00  0.00    -0.015 C 
ATOM     18  C   UNL     1      -4.827   7.878   3.760  0.00  0.00    -0.018 C 
ATOM     19  C   UNL     1      -3.607   6.954   3.713  0.00  0.00    -0.015 C 
ATOM     20  C   UNL     1      -3.708   6.043   2.488  0.00  0.00    -0.077 C 
ATOM     21  C   UNL     1      -4.701   8.832   4.949  0.00  0.00    +0.007 C 
ATOM     22  N   UNL     1      -3.746   6.880   1.270  0.00  0.00    +0.389 N 
ATOM     23  H   UNL     1      -2.918   7.488   1.257  0.00  0.00    -0.080 HD
ENDBRANCH   1  22
BRANCH   1  24
ATOM     24  C   UNL     1      -3.847   6.893  -1.158  0.00  0.00    +0.143 A 
ATOM     25  N   UNL     1      -3.215   8.019  -1.381  0.00  0.00    -0.115 NA
ATOM     26  N   UNL     1      -3.581   8.458  -2.536  0.00  0.00    -0.023 NA
ATOM     27  N   UNL     1      -4.436   7.645  -3.051  0.00  0.00    -0.044 NA
ATOM     28  N   UNL     1      -4.626   6.667  -2.232  0.00  0.00    -0.227 N 
BRANCH  28  29
ATOM     29  C   UNL     1      -5.522   5.525  -2.433  0.00  0.00    +0.111 C 
ATOM     30  C   UNL     1      -5.138   4.772  -3.723  0.00  0.00    +0.027 C 
ATOM     31  C   UNL     1      -6.496   4.333  -4.325  0.00  0.00    +0.002 C 
ATOM     32  C   UNL     1      -7.412   5.546  -4.024  0.00  0.00    +0.002 C 
ATOM     33  C   UNL     1      -6.968   6.017  -2.624  0.00  0.00    +0.027 C 
ENDBRANCH  28  29
ENDBRANCH   1  24
TORSDOF 4
