REMARK  Name = ZINC49671849
REMARK  4 active torsions:
REMARK  status: ('A' for Active; 'I' for Inactive)
REMARK    1  A    between atoms: C_1  and  N_2
REMARK    2  A    between atoms: C_3  and  N_24
REMARK    3  A    between atoms: C_4  and  C_17
REMARK    4  A    between atoms: C_5  and  C_7
REMARK                            x       y       z     vdW  Elec       q    Type
REMARK                         _______ _______ _______ _____ _____    ______ ____
ROOT
ATOM      1  C   UNL     1      -0.044   1.460   0.010  0.00  0.00    +0.172 C 
ATOM      2  N   UNL     1      -0.009  -0.004   0.002  0.00  0.00    -0.276 N 
ATOM      3  C   UNL     1       0.020  -0.790  -1.098  0.00  0.00    +0.120 A 
ATOM      4  C   UNL     1       0.047  -2.103  -0.663  0.00  0.00    +0.045 A 
ATOM      5  C   UNL     1       0.034  -2.078   0.745  0.00  0.00    +0.047 A 
ATOM      6  N   UNL     1       0.007  -0.830   1.132  0.00  0.00    -0.299 N 
ATOM      7  H   UNL     1      -0.004  -0.526   2.053  0.00  0.00    +0.187 HD
ENDROOT
BRANCH   5   8
ATOM      8  C   UNL     1       0.056  -3.282   1.650  0.00  0.00    +0.041 C 
ATOM      9  C   UNL     1      -1.052  -3.170   2.723  0.00  0.00    +0.013 C 
ATOM     10  C   UNL     1      -0.285  -3.160   4.081  0.00  0.00    -0.010 C 
ATOM     11  C   UNL     1       0.244  -4.617   4.241  0.00  0.00    +0.004 C 
ATOM     12  C   UNL     1       1.350  -4.751   3.169  0.00  0.00    +0.004 C 
ATOM     13  C   UNL     1       1.388  -3.332   2.459  0.00  0.00    -0.002 C 
ATOM     14  C   UNL     1       1.024  -2.397   3.670  0.00  0.00    +0.007 C 
ENDBRANCH   5   8
BRANCH   4  15
ATOM     15  C   UNL     1       0.084  -3.313  -1.520  0.00  0.00    +0.022 A 
ATOM     16  C   UNL     1       1.306  -3.858  -1.909  0.00  0.00    +0.011 A 
ATOM     17  C   UNL     1       1.334  -4.984  -2.707  0.00  0.00    +0.001 A 
ATOM     18  C   UNL     1       0.152  -5.572  -3.122  0.00  0.00    +0.003 A 
ATOM     19  C   UNL     1      -1.065  -5.037  -2.740  0.00  0.00    +0.039 A 
ATOM     20  C   UNL     1      -1.106  -3.913  -1.936  0.00  0.00    +0.131 A 
ATOM     21  F   UNL     1      -2.294  -3.394  -1.558  0.00  0.00    -0.205 F 
ENDBRANCH   4  15
BRANCH   3  22
ATOM     22  N   UNL     1       0.021  -0.359  -2.418  0.00  0.00    -0.343 N 
ATOM     23  H   UNL     1      -0.001   0.590  -2.619  0.00  0.00    +0.144 HD
ATOM     24  H   UNL     1       0.042  -1.007  -3.140  0.00  0.00    +0.144 HD
ENDBRANCH   3  22
TORSDOF 3
