REMARK  Name = ZINC50660230
REMARK  6 active torsions:
REMARK  status: ('A' for Active; 'I' for Inactive)
REMARK    1  A    between atoms: C_1  and  N_2
REMARK    2  A    between atoms: C_5  and  C_8
REMARK    3  A    between atoms: C_8  and  N_9
REMARK    4  A    between atoms: N_9  and  S_10
REMARK    5  A    between atoms: S_10  and  C_13
REMARK    6  A    between atoms: C_14  and  N_21
REMARK                            x       y       z     vdW  Elec       q    Type
REMARK                         _______ _______ _______ _____ _____    ______ ____
ROOT
ATOM      1  S   UNL     1       4.206  -4.383   1.581  0.00  0.00    +0.078 S 
ATOM      2  O   UNL     1       4.257  -5.702   1.056  0.00  0.00    -0.151 OA
ATOM      3  O   UNL     1       5.170  -3.393   1.248  0.00  0.00    -0.151 OA
ENDROOT
BRANCH   1   4
ATOM      4  C   UNL     1       4.228  -4.538   3.336  0.00  0.00    +0.220 A 
ATOM      5  C   UNL     1       4.632  -3.598   4.214  0.00  0.00    +0.163 A 
ATOM      6  N   UNL     1       4.498  -4.094   5.456  0.00  0.00    -0.205 NA
ATOM      7  C   UNL     1       4.027  -5.307   5.379  0.00  0.00    +0.181 A 
ATOM      8  N   UNL     1       3.825  -5.657   4.071  0.00  0.00    -0.276 N 
ATOM      9  C   UNL     1       3.321  -6.916   3.832  0.00  0.00    +0.102 A 
ATOM     10  C   UNL     1       3.045  -7.743   4.839  0.00  0.00    +0.067 A 
ATOM     11  S   UNL     1       3.507  -6.762   6.258  0.00  0.00    -0.058 S 
BRANCH   5  12
ATOM     12  N   UNL     1       5.110  -2.319   3.887  0.00  0.00    -0.340 N 
ATOM     13  H   UNL     1       5.171  -2.047   2.958  0.00  0.00    +0.144 HD
ATOM     14  H   UNL     1       5.378  -1.707   4.591  0.00  0.00    +0.144 HD
ENDBRANCH   5  12
ENDBRANCH   1   4
BRANCH   1  15
ATOM     15  N   UNL     1       2.728  -3.764   1.163  0.00  0.00    -0.188 NA
ATOM     16  H   UNL     1       2.110  -4.296   0.639  0.00  0.00    +0.148 HD
BRANCH  15  17
ATOM     17  C   UNL     1       2.355  -2.411   1.584  0.00  0.00    +0.107 C 
BRANCH  17  22
ATOM     18  C   UNL     1      -0.018   1.465   0.010  0.00  0.00    -0.096 C 
ATOM     19  N   UNL     1       0.002  -0.004   0.002  0.00  0.00    +0.378 N 
ATOM     20  C   UNL     1       0.766  -0.497  -1.164  0.00  0.00    -0.079 C 
ATOM     21  C   UNL     1       1.508  -1.769  -0.713  0.00  0.00    -0.016 C 
ATOM     22  C   UNL     1       1.141  -1.943   0.779  0.00  0.00    -0.014 C 
ATOM     23  C   UNL     1       0.718  -0.513   1.200  0.00  0.00    -0.075 C 
ATOM     24  H   UNL     1      -0.940  -0.365  -0.020  0.00  0.00    -0.082 HD
ENDBRANCH  17  22
ENDBRANCH  15  17
ENDBRANCH   1  15
TORSDOF 5
