REMARK  Name = ZINC19320121
REMARK  8 active torsions:
REMARK  status: ('A' for Active; 'I' for Inactive)
REMARK    1  A    between atoms: C_1  and  C_2
REMARK    2  A    between atoms: C_2  and  C_3
REMARK    3  A    between atoms: C_3  and  C_4
REMARK    4  A    between atoms: C_4  and  C_5
REMARK    5  A    between atoms: C_8  and  C_24
REMARK    6  A    between atoms: C_12  and  C_16
REMARK    7  A    between atoms: C_17  and  O_23
REMARK    8  A    between atoms: C_19  and  O_22
REMARK                            x       y       z     vdW  Elec       q    Type
REMARK                         _______ _______ _______ _____ _____    ______ ____
ROOT
ATOM      1  C   UNL     1       1.503  -2.548   2.473  0.00  0.00    +0.028 C 
ATOM      2  C   UNL     1       0.810  -2.102   3.757  0.00  0.00    +0.144 C 
ATOM      3  O   UNL     1      -0.197  -1.437   3.767  0.00  0.00    -0.296 OA
ATOM      4  C   UNL     1       1.509  -2.576   5.027  0.00  0.00    +0.025 C 
ATOM      5  C   UNL     1       1.579  -4.108   4.944  0.00  0.00    -0.061 C 
ATOM      6  N   UNL     1       2.286  -4.511   3.726  0.00  0.00    +0.394 N 
ATOM      7  C   UNL     1       1.550  -4.083   2.509  0.00  0.00    -0.060 C 
ATOM      8  C   UNL     1       3.650  -3.973   3.730  0.00  0.00    +0.037 C 
ATOM      9  N   UNL     1       3.595  -2.504   3.745  0.00  0.00    -0.310 NA
ATOM     10  C   UNL     1       2.946  -2.020   2.520  0.00  0.00    +0.095 C 
ATOM     11  C   UNL     1       2.943  -2.025   4.971  0.00  0.00    +0.095 C 
ATOM     12  C   UNL     1       0.776  -2.097   6.282  0.00  0.00    +0.018 C 
ATOM     13  H   UNL     1       2.351  -5.518   3.715  0.00  0.00    -0.079 HD
ENDROOT
BRANCH   8  14
ATOM     14  C   UNL     1       4.376  -4.436   2.493  0.00  0.00    -0.006 A 
ATOM     15  C   UNL     1       5.442  -3.698   1.997  0.00  0.00    +0.123 A 
ATOM     16  C   UNL     1       6.109  -4.124   0.860  0.00  0.00    +0.091 A 
ATOM     17  C   UNL     1       5.711  -5.288   0.220  0.00  0.00    +0.120 A 
ATOM     18  C   UNL     1       4.645  -6.023   0.720  0.00  0.00    +0.046 A 
ATOM     19  C   UNL     1       3.984  -5.598   1.857  0.00  0.00    +0.010 A 
BRANCH  17  20
ATOM     20  O   UNL     1       6.363  -5.709  -0.895  0.00  0.00    -0.507 OA
ATOM     21  H   UNL     1       7.109  -6.297  -0.716  0.00  0.00    +0.292 HD
ENDBRANCH  17  20
BRANCH  15  22
ATOM     22  O   UNL     1       5.830  -2.557   2.626  0.00  0.00    -0.506 OA
ATOM     23  H   UNL     1       6.499  -2.694   3.310  0.00  0.00    +0.292 HD
ENDBRANCH  15  22
ENDBRANCH   8  14
BRANCH   1  24
ATOM     24  C   UNL     1       0.763  -2.041   1.233  0.00  0.00    +0.014 C 
BRANCH  24  25
ATOM     25  C   UNL     1       0.742  -0.511   1.242  0.00  0.00    +0.001 C 
BRANCH  25  27
ATOM     26  C   UNL     1      -0.019   1.526   0.010  0.00  0.00    +0.004 C 
ATOM     27  C   UNL     1       0.002  -0.004   0.002  0.00  0.00    -0.003 C 
ENDBRANCH  25  27
ENDBRANCH  24  25
ENDBRANCH   1  24
TORSDOF 6
