REMARK  Name = ZINC50252449
REMARK  8 active torsions:
REMARK  status: ('A' for Active; 'I' for Inactive)
REMARK    1  A    between atoms: C_1  and  C_2
REMARK    2  A    between atoms: C_4  and  S_8
REMARK    3  A    between atoms: N_6  and  C_7
REMARK    4  A    between atoms: S_8  and  N_11
REMARK    5  A    between atoms: N_11  and  C_12
REMARK    6  A    between atoms: N_11  and  C_13
REMARK    7  A    between atoms: C_13  and  C_20
REMARK    8  A    between atoms: C_20  and  N_21
REMARK                            x       y       z     vdW  Elec       q    Type
REMARK                         _______ _______ _______ _____ _____    ______ ____
ROOT
ATOM      1  N   UNL     1      -0.861  -2.840  -2.978  0.00  0.00    -0.174 NA
ATOM      2  C   UNL     1       0.035  -3.671  -3.785  0.00  0.00    +0.132 C 
ENDROOT
BRANCH   1   3
ATOM      3  C   UNL     1      -2.295  -2.806  -3.276  0.00  0.00    +0.027 C 
ATOM      4  C   UNL     1      -2.772  -1.339  -3.269  0.00  0.00    +0.022 C 
ATOM      5  C   UNL     1      -1.725  -0.493  -3.942  0.00  0.00    +0.002 C 
ATOM      6  C   UNL     1      -2.013  -0.281  -5.441  0.00  0.00    +0.000 C 
ATOM      7  C   UNL     1      -2.509  -1.560  -6.141  0.00  0.00    +0.000 C 
ATOM      8  C   UNL     1      -1.751  -2.785  -5.707  0.00  0.00    +0.002 C 
ATOM      9  C   UNL     1      -2.526  -3.459  -4.556  0.00  0.00    +0.022 C 
BRANCH   3  10
ATOM     10  C   UNL     1      -3.046  -3.574  -2.186  0.00  0.00    -0.062 C 
BRANCH  10  11
ATOM     11  N   UNL     1      -2.466  -4.916  -2.045  0.00  0.00    +0.379 N 
ATOM     12  H   UNL     1      -1.507  -4.838  -1.741  0.00  0.00    -0.090 HD
ATOM     13  H   UNL     1      -2.993  -5.441  -1.363  0.00  0.00    -0.090 HD
ATOM     14  H   UNL     1      -2.499  -5.392  -2.934  0.00  0.00    -0.090 HD
ENDBRANCH  10  11
ENDBRANCH   3  10
ENDBRANCH   1   3
BRANCH   1  15
ATOM     15  S   UNL     1      -0.254  -1.939  -1.728  0.00  0.00    +0.080 S 
ATOM     16  O   UNL     1       0.654  -2.778  -1.026  0.00  0.00    -0.151 OA
ATOM     17  O   UNL     1      -1.366  -1.322  -1.094  0.00  0.00    -0.151 OA
BRANCH  15  21
ATOM     18  C   UNL     1       2.822   0.777  -5.007  0.00  0.00    +0.086 C 
ATOM     19  C   UNL     1       1.969   0.440  -3.811  0.00  0.00    +0.109 A 
ATOM     20  N   UNL     1       1.373  -0.701  -3.599  0.00  0.00    -0.213 NA
ATOM     21  C   UNL     1       0.704  -0.642  -2.438  0.00  0.00    +0.212 A 
ATOM     22  C   UNL     1       0.893   0.582  -1.910  0.00  0.00    +0.135 A 
ATOM     23  N   UNL     1       1.700   1.267  -2.778  0.00  0.00    -0.336 N 
ATOM     24  C   UNL     1       2.180   2.642  -2.617  0.00  0.00    +0.150 C 
ENDBRANCH  15  21
ENDBRANCH   1  15
TORSDOF 5
