REMARK  Name = ZINC12876101
REMARK  9 active torsions:
REMARK  status: ('A' for Active; 'I' for Inactive)
REMARK    1  A    between atoms: C_1  and  C_2
REMARK    2  A    between atoms: C_4  and  C_36
REMARK    3  A    between atoms: C_13  and  C_15
REMARK    4  A    between atoms: C_15  and  C_17
REMARK    5  A    between atoms: C_15  and  O_18
REMARK    6  A    between atoms: N_21  and  C_24
REMARK    7  A    between atoms: C_24  and  C_25
REMARK    8  A    between atoms: C_30  and  O_31
REMARK    9  A    between atoms: O_31  and  C_32
REMARK                            x       y       z     vdW  Elec       q    Type
REMARK                         _______ _______ _______ _____ _____    ______ ____
ROOT
ATOM      1  C   UNL     1       2.199  -4.912  -6.639  0.00  0.00    +0.044 C 
ATOM      2  C   UNL     1       1.425  -3.887  -5.851  0.00  0.00    -0.050 A 
ATOM      3  C   UNL     1       0.117  -4.141  -5.479  0.00  0.00    +0.008 A 
ATOM      4  C   UNL     1      -0.596  -3.207  -4.756  0.00  0.00    -0.029 A 
ATOM      5  C   UNL     1      -0.003  -1.999  -4.396  0.00  0.00    +0.039 A 
ATOM      6  C   UNL     1       1.313  -1.753  -4.778  0.00  0.00    -0.027 A 
ATOM      7  C   UNL     1       2.021  -2.689  -5.498  0.00  0.00    +0.008 A 
ATOM      8  C   UNL     1       1.647  -0.389  -4.246  0.00  0.00    +0.050 C 
ATOM      9  C   UNL     1       2.863  -0.439  -3.288  0.00  0.00    +0.088 C 
ATOM     10  C   UNL     1       3.605   0.900  -3.559  0.00  0.00    +0.075 C 
ATOM     11  C   UNL     1       2.769   1.622  -4.637  0.00  0.00    -0.028 C 
ATOM     12  C   UNL     1       3.473   1.642  -2.248  0.00  0.00    +0.224 C 
ATOM     13  O   UNL     1       3.919   2.746  -2.021  0.00  0.00    -0.275 OA
ATOM     14  N   UNL     1       2.788   0.891  -1.379  0.00  0.00    -0.237 N 
ATOM     15  C   UNL     1       2.401  -0.298  -1.855  0.00  0.00    +0.225 C 
ATOM     16  O   UNL     1       1.776  -1.131  -1.236  0.00  0.00    -0.275 OA
ATOM     17  C   UNL     1       0.400   0.072  -3.540  0.00  0.00    +0.211 C 
ATOM     18  O   UNL     1       0.243   1.126  -2.961  0.00  0.00    -0.277 OA
ATOM     19  N   UNL     1      -0.507  -0.914  -3.675  0.00  0.00    -0.286 N 
ATOM     20  C   UNL     1      -2.020  -3.494  -4.356  0.00  0.00    +0.045 C 
ATOM     21  H   UNL     1      -1.406  -0.876  -3.313  0.00  0.00    +0.155 HD
ATOM     22  N   UNL     1       2.030   0.542  -5.293  0.00  0.00    +0.396 N 
ATOM     23  H   UNL     1       1.195   0.915  -5.759  0.00  0.00    -0.083 HD
ATOM     24  H   UNL     1       2.626   0.072  -5.985  0.00  0.00    -0.083 HD
ENDROOT
BRANCH  11  25
ATOM     25  C   UNL     1       3.686   2.352  -5.621  0.00  0.00    +0.098 C 
ATOM     26  C   UNL     1       2.838   3.060  -6.679  0.00  0.00    +0.036 C 
BRANCH  25  27
ATOM     27  O   UNL     1       4.551   1.409  -6.257  0.00  0.00    -0.394 OA
ATOM     28  H   UNL     1       4.086   0.723  -6.755  0.00  0.00    +0.210 HD
ENDBRANCH  25  27
ENDBRANCH  11  25
BRANCH  14  29
ATOM     29  C   UNL     1       2.491   1.332  -0.013  0.00  0.00    +0.155 C 
BRANCH  29  30
ATOM     30  C   UNL     1       1.175   2.066   0.002  0.00  0.00    +0.012 A 
ATOM     31  C   UNL     1       1.153   3.447   0.009  0.00  0.00    +0.009 A 
ATOM     32  C   UNL     1      -0.054   4.121   0.024  0.00  0.00    +0.001 A 
ATOM     33  C   UNL     1      -1.243   3.414   0.032  0.00  0.00    +0.004 A 
ATOM     34  C   UNL     1      -1.227   2.033   0.019  0.00  0.00    +0.046 A 
ATOM     35  C   UNL     1      -0.016   1.355   0.009  0.00  0.00    +0.125 A 
BRANCH  35  36
ATOM     36  O   UNL     1       0.002  -0.004   0.002  0.00  0.00    -0.495 OA
ATOM     37  C   UNL     1      -1.262  -0.670   0.011  0.00  0.00    +0.277 C 
ENDBRANCH  35  36
ENDBRANCH  29  30
ENDBRANCH  14  29
TORSDOF 5
