REMARK  Name = ZINC38966312
REMARK  8 active torsions:
REMARK  status: ('A' for Active; 'I' for Inactive)
REMARK    1  A    between atoms: C_1  and  O_2
REMARK    2  A    between atoms: O_2  and  C_3
REMARK    3  A    between atoms: C_8  and  N_9
REMARK    4  A    between atoms: C_12  and  N_30
REMARK    5  A    between atoms: C_15  and  C_17
REMARK    6  A    between atoms: C_17  and  S_18
REMARK    7  A    between atoms: S_18  and  C_19
REMARK    8  A    between atoms: C_22  and  C_24
REMARK                            x       y       z     vdW  Elec       q    Type
REMARK                         _______ _______ _______ _____ _____    ______ ____
ROOT
ATOM      1  N   UNL     1      -0.102  -2.773  -0.011  0.00  0.00    -0.215 NA
ATOM      2  C   UNL     1      -0.156  -4.080   0.081  0.00  0.00    +0.188 C 
ATOM      3  N   UNL     1      -1.355  -4.783   0.088  0.00  0.00    -0.285 N 
ATOM      4  C   UNL     1      -1.506  -5.795   1.145  0.00  0.00    +0.239 C 
ATOM      5  N   UNL     1      -0.231  -6.478   1.354  0.00  0.00    -0.346 N 
ATOM      6  C   UNL     1       0.889  -6.033   0.914  0.00  0.00    +0.087 C 
ATOM      7  N   UNL     1       0.982  -4.874   0.174  0.00  0.00    -0.277 N 
ATOM      8  H   UNL     1      -2.052  -4.615  -0.565  0.00  0.00    +0.152 HD
ATOM      9  H   UNL     1      -0.232  -7.311   1.852  0.00  0.00    +0.164 HD
ATOM     10  H   UNL     1       1.810  -4.620  -0.264  0.00  0.00    +0.156 HD
ENDROOT
BRANCH   1  16
ATOM     11  C   UNL     1      -1.462  -1.088  -1.050  0.00  0.00    +0.145 A 
ATOM     12  C   UNL     1      -2.635  -0.356  -1.078  0.00  0.00    +0.048 A 
ATOM     13  C   UNL     1      -3.604  -0.561  -0.112  0.00  0.00    +0.004 A 
ATOM     14  C   UNL     1      -3.406  -1.497   0.888  0.00  0.00    +0.002 A 
ATOM     15  C   UNL     1      -2.240  -2.235   0.929  0.00  0.00    +0.031 A 
ATOM     16  C   UNL     1      -1.260  -2.040  -0.044  0.00  0.00    +0.109 A 
BRANCH  11  18
ATOM     17  C   UNL     1      -0.784   0.101  -2.996  0.00  0.00    +0.277 C 
ATOM     18  O   UNL     1      -0.509  -0.887  -2.000  0.00  0.00    -0.493 OA
ENDBRANCH  11  18
ENDBRANCH   1  16
BRANCH   4  19
ATOM     19  N   UNL     1      -1.921  -5.141   2.394  0.00  0.00    -0.296 NA
ATOM     20  H   UNL     1      -2.802  -4.663   2.276  0.00  0.00    +0.122 HD
ATOM     21  H   UNL     1      -1.970  -5.806   3.151  0.00  0.00    +0.122 HD
ENDBRANCH   4  19
BRANCH   6  22
ATOM     22  C   UNL     1       2.147  -6.808   1.213  0.00  0.00    +0.148 C 
BRANCH  22  23
ATOM     23  S   UNL     1       3.570  -5.957   0.477  0.00  0.00    -0.058 S 
BRANCH  23  24
ATOM     24  C   UNL     1       4.944  -6.973   0.909  0.00  0.00    +0.278 A 
ATOM     25  N   UNL     1       4.899  -8.088   1.602  0.00  0.00    -0.101 NA
ATOM     26  N   UNL     1       6.088  -8.563   1.726  0.00  0.00    -0.106 NA
ATOM     27  C   UNL     1       6.938  -7.772   1.119  0.00  0.00    +0.249 A 
ATOM     28  O   UNL     1       6.231  -6.752   0.584  0.00  0.00    -0.411 OA
BRANCH  27  29
ATOM     29  C   UNL     1       8.400  -7.963   1.030  0.00  0.00    +0.041 A 
ATOM     30  C   UNL     1       9.207  -7.039   0.354  0.00  0.00    +0.033 A 
ATOM     31  C   UNL     1      10.568  -7.257   0.296  0.00  0.00    +0.111 A 
ATOM     32  N   UNL     1      11.109  -8.317   0.866  0.00  0.00    -0.263 NA
ATOM     33  C   UNL     1      10.386  -9.211   1.512  0.00  0.00    +0.111 A 
ATOM     34  C   UNL     1       9.019  -9.070   1.625  0.00  0.00    +0.033 A 
ENDBRANCH  27  29
ENDBRANCH  23  24
ENDBRANCH  22  23
ENDBRANCH   6  22
TORSDOF 7
