REMARK  Name = ZINC40808708
REMARK  6 active torsions:
REMARK  status: ('A' for Active; 'I' for Inactive)
REMARK    1  A    between atoms: C_1  and  O_2
REMARK    2  A    between atoms: O_2  and  C_3
REMARK    3  A    between atoms: C_6  and  C_10
REMARK    4  A    between atoms: N_12  and  C_13
REMARK    5  A    between atoms: C_13  and  C_14
REMARK    6  A    between atoms: C_14  and  C_15
REMARK                            x       y       z     vdW  Elec       q    Type
REMARK                         _______ _______ _______ _____ _____    ______ ____
ROOT
ATOM      1  C   UNL     1      -2.523  -4.084   0.214  0.00  0.00    +0.199 C 
ATOM      2  O   UNL     1      -3.732  -4.043   0.125  0.00  0.00    -0.278 OA
ATOM      3  N   UNL     1      -1.929  -5.110   0.855  0.00  0.00    -0.316 N 
ATOM      4  H   UNL     1      -0.962  -5.143   0.926  0.00  0.00    +0.149 HD
ENDROOT
BRANCH   1   7
ATOM      5  C   UNL     1      -1.295  -0.603   0.011  0.00  0.00    +0.100 C 
ATOM      6  C   UNL     1      -1.243  -1.985   0.695  0.00  0.00    +0.023 C 
ATOM      7  C   UNL     1      -1.685  -2.988  -0.392  0.00  0.00    +0.018 C 
ATOM      8  N   UNL     1      -2.493  -2.179  -1.341  0.00  0.00    +0.388 N 
ATOM      9  C   UNL     1      -1.766  -0.885  -1.432  0.00  0.00    -0.050 C 
ATOM     10  H   UNL     1      -2.530  -2.627  -2.244  0.00  0.00    -0.085 HD
ATOM     11  H   UNL     1      -3.424  -2.035  -0.978  0.00  0.00    -0.085 HD
BRANCH   5  13
ATOM     12  C   UNL     1      -0.017   1.425   0.010  0.00  0.00    +0.194 C 
ATOM     13  O   UNL     1       0.002  -0.004   0.002  0.00  0.00    -0.382 OA
ENDBRANCH   5  13
ENDBRANCH   1   7
BRANCH   3  14
ATOM     14  C   UNL     1      -2.743  -6.176   1.444  0.00  0.00    +0.112 C 
BRANCH  14  15
ATOM     15  C   UNL     1      -1.829  -7.209   2.106  0.00  0.00    +0.095 C 
BRANCH  15  16
ATOM     16  C   UNL     1      -2.667  -8.306   2.712  0.00  0.00    +0.139 A 
ATOM     17  N   UNL     1      -3.150  -8.328   3.927  0.00  0.00    -0.134 NA
ATOM     18  N   UNL     1      -3.820  -9.409   4.121  0.00  0.00    -0.129 NA
ATOM     19  C   UNL     1      -3.799 -10.145   3.022  0.00  0.00    +0.161 A 
ATOM     20  N   UNL     1      -3.063  -9.450   2.092  0.00  0.00    -0.286 N 
ATOM     21  C   UNL     1      -2.868  -9.961   0.843  0.00  0.00    +0.094 A 
ATOM     22  C   UNL     1      -3.397 -11.155   0.501  0.00  0.00    +0.018 A 
ATOM     23  C   UNL     1      -4.158 -11.887   1.428  0.00  0.00    +0.005 A 
ATOM     24  C   UNL     1      -4.354 -11.393   2.680  0.00  0.00    +0.048 A 
ENDBRANCH  15  16
ENDBRANCH  14  15
ENDBRANCH   3  14
TORSDOF 5
