REMARK  Name = ZINC66976459
REMARK  6 active torsions:
REMARK  status: ('A' for Active; 'I' for Inactive)
REMARK    1  A    between atoms: C_4  and  C_7
REMARK    2  A    between atoms: C_7  and  C_9
REMARK    3  A    between atoms: C_7  and  N_14
REMARK    4  A    between atoms: N_17  and  C_18
REMARK    5  A    between atoms: C_18  and  C_19
REMARK    6  A    between atoms: C_19  and  O_29
REMARK                            x       y       z     vdW  Elec       q    Type
REMARK                         _______ _______ _______ _____ _____    ______ ____
ROOT
ATOM      1  N   UNL     1       3.692  -2.237   0.449  0.00  0.00    -0.286 N 
ATOM      2  C   UNL     1       4.797  -2.652   1.100  0.00  0.00    +0.301 C 
ATOM      3  O   UNL     1       5.886  -2.204   0.797  0.00  0.00    -0.253 OA
ATOM      4  N   UNL     1       4.695  -3.563   2.088  0.00  0.00    -0.296 N 
ATOM      5  H   UNL     1       2.824  -2.595   0.691  0.00  0.00    +0.151 HD
ATOM      6  H   UNL     1       3.826  -3.921   2.330  0.00  0.00    +0.150 HD
ENDROOT
BRANCH   1   7
ATOM      7  C   UNL     1       3.804  -1.246  -0.625  0.00  0.00    +0.171 C 
BRANCH   7  11
ATOM      8  C   UNL     1       0.098   0.840  -1.027  0.00  0.00    +0.000 A 
ATOM      9  C   UNL     1       1.293   1.527  -1.135  0.00  0.00    +0.000 A 
ATOM     10  C   UNL     1       2.492   0.852  -1.004  0.00  0.00    +0.006 A 
ATOM     11  C   UNL     1       2.496  -0.510  -0.766  0.00  0.00    -0.020 A 
ATOM     12  C   UNL     1       1.301  -1.196  -0.658  0.00  0.00    +0.006 A 
ATOM     13  C   UNL     1       0.102  -0.521  -0.790  0.00  0.00    +0.000 A 
ENDBRANCH   7  11
BRANCH   7  14
ATOM     14  C   UNL     1       4.130  -1.944  -1.920  0.00  0.00    +0.129 A 
ATOM     15  C   UNL     1       4.992  -1.505  -2.854  0.00  0.00    +0.047 A 
ATOM     16  C   UNL     1       4.990  -2.462  -3.895  0.00  0.00    +0.041 A 
ATOM     17  C   UNL     1       4.127  -3.428  -3.535  0.00  0.00    +0.195 A 
ATOM     18  O   UNL     1       3.613  -3.112  -2.335  0.00  0.00    -0.466 OA
ENDBRANCH   7  14
ENDBRANCH   1   7
BRANCH   4  19
ATOM     19  C   UNL     1       5.896  -4.014   2.796  0.00  0.00    +0.145 C 
BRANCH  19  20
ATOM     20  C   UNL     1       5.524  -5.138   3.766  0.00  0.00    +0.107 C 
ATOM     21  C   UNL     1       4.865  -6.276   2.989  0.00  0.00    +0.041 C 
ATOM     22  C   UNL     1       4.700  -7.473   3.933  0.00  0.00    +0.008 C 
ATOM     23  C   UNL     1       6.085  -8.047   4.229  0.00  0.00    +0.035 C 
ATOM     24  C   UNL     1       7.024  -6.958   4.680  0.00  0.00    -0.041 A 
ATOM     25  C   UNL     1       6.768  -5.623   4.463  0.00  0.00    -0.011 A 
ATOM     26  C   UNL     1       7.679  -4.669   4.899  0.00  0.00    +0.007 A 
ATOM     27  C   UNL     1       8.835  -5.049   5.549  0.00  0.00    +0.000 A 
ATOM     28  C   UNL     1       9.090  -6.389   5.769  0.00  0.00    +0.000 A 
ATOM     29  C   UNL     1       8.187  -7.339   5.336  0.00  0.00    +0.004 A 
BRANCH  20  30
ATOM     30  O   UNL     1       4.604  -4.636   4.737  0.00  0.00    -0.382 OA
ATOM     31  H   UNL     1       4.950  -3.904   5.265  0.00  0.00    +0.211 HD
ENDBRANCH  20  30
ENDBRANCH  19  20
ENDBRANCH   4  19
TORSDOF 6
