REMARK  Name = ZINC00809848
REMARK  13 active torsions:
REMARK  status: ('A' for Active; 'I' for Inactive)
REMARK    1  A    between atoms: C_1  and  C_2
REMARK    2  A    between atoms: C_2  and  O_3
REMARK    3  A    between atoms: O_3  and  C_4
REMARK    4  A    between atoms: C_11  and  C_23
REMARK    5  A    between atoms: C_12  and  N_22
REMARK    6  A    between atoms: C_14  and  C_21
REMARK    7  A    between atoms: C_15  and  C_16
REMARK    8  A    between atoms: C_16  and  O_18
REMARK    9  A    between atoms: O_18  and  C_19
REMARK   10  A    between atoms: C_19  and  C_20
REMARK   11  A    between atoms: C_28  and  C_32
REMARK   12  A    between atoms: C_28  and  C_33
REMARK   13  A    between atoms: C_30  and  C_31
REMARK                            x       y       z     vdW  Elec       q    Type
REMARK                         _______ _______ _______ _____ _____    ______ ____
ROOT
ATOM      1  C   UNL     1       0.307   5.813   0.498  0.00  0.00    +0.121 A 
ATOM      2  C   UNL     1      -1.062   5.616   0.611  0.00  0.00    +0.055 A 
ATOM      3  C   UNL     1      -1.571   4.318   0.547  0.00  0.00    +0.003 A 
ATOM      4  C   UNL     1      -0.676   3.270   0.372  0.00  0.00    +0.050 A 
ATOM      5  C   UNL     1       0.682   3.461   0.258  0.00  0.00    +0.003 A 
ATOM      6  C   UNL     1       1.181   4.743   0.322  0.00  0.00    +0.052 A 
ATOM      7  C   UNL     1       1.250   2.078   0.082  0.00  0.00    +0.148 C 
ATOM      8  C   UNL     1       2.195   1.746   1.200  0.00  0.00    +0.110 C 
ATOM      9  C   UNL     1       3.533   1.705   0.979  0.00  0.00    +0.199 C 
ATOM     10  O   UNL     1       4.057   1.960  -0.232  0.00  0.00    -0.445 OA
ATOM     11  C   UNL     1       3.277   1.901  -1.321  0.00  0.00    +0.116 C 
ATOM     12  C   UNL     1       1.940   1.953  -1.246  0.00  0.00    +0.099 C 
ATOM     13  C   UNL     1       3.926   1.772  -2.676  0.00  0.00    +0.087 C 
ATOM     14  C   UNL     1       0.044   1.160   0.128  0.00  0.00    +0.241 C 
ATOM     15  O   UNL     1       0.056  -0.049   0.031  0.00  0.00    -0.273 OA
ATOM     16  N   UNL     1      -1.046   1.939   0.291  0.00  0.00    -0.260 N 
ATOM     17  C   UNL     1      -2.483   1.634   0.392  0.00  0.00    +0.055 C 
ATOM     18  C   UNL     1      -3.450   2.780   0.574  0.00  0.00    +0.002 C 
ATOM     19  C   UNL     1      -3.014   4.033   0.657  0.00  0.00    -0.043 C 
ATOM     20  C   UNL     1      -3.993   5.162   0.844  0.00  0.00    +0.044 C 
ATOM     21  C   UNL     1      -2.889   0.882  -0.877  0.00  0.00    +0.036 C 
ATOM     22  C   UNL     1      -2.673   0.677   1.571  0.00  0.00    +0.036 C 
ENDROOT
BRANCH   9  23
ATOM     23  N   UNL     1       4.373   1.394   2.019  0.00  0.00    -0.328 N 
ATOM     24  H   UNL     1       5.331   1.360   1.875  0.00  0.00    +0.145 HD
ATOM     25  H   UNL     1       4.008   1.207   2.898  0.00  0.00    +0.145 HD
ENDBRANCH   9  23
BRANCH  12  26
ATOM     26  C   UNL     1       1.169   1.889  -2.432  0.00  0.00    +0.340 C 
ATOM     27  O   UNL     1       0.729   2.909  -2.928  0.00  0.00    -0.245 OA
BRANCH  26  28
ATOM     28  O   UNL     1       0.922   0.696  -3.012  0.00  0.00    -0.462 OA
BRANCH  28  29
ATOM     29  C   UNL     1       0.240   0.714  -4.268  0.00  0.00    +0.229 C 
ATOM     30  C   UNL     1      -0.047  -0.721  -4.713  0.00  0.00    +0.048 C 
ENDBRANCH  28  29
ENDBRANCH  26  28
ENDBRANCH  12  26
BRANCH   8  31
ATOM     31  C   UNL     1       1.681   1.470   2.508  0.00  0.00    +0.102 C 
ATOM     32  N   UNL     1       1.274   1.252   3.546  0.00  0.00    -0.191 NA
ENDBRANCH   8  31
BRANCH   1  33
ATOM     33  O   UNL     1       0.806   7.077   0.560  0.00  0.00    -0.492 OA
BRANCH  33  35
ATOM     34  C   UNL     1       0.606   9.475   0.786  0.00  0.00    +0.048 C 
ATOM     35  C   UNL     1      -0.135   8.137   0.741  0.00  0.00    +0.225 C 
ENDBRANCH  33  35
ENDBRANCH   1  33
TORSDOF 7
