REMARK  Name = ZINC62176595
REMARK  5 active torsions:
REMARK  status: ('A' for Active; 'I' for Inactive)
REMARK    1  A    between atoms: C_1  and  C_2
REMARK    2  A    between atoms: C_2  and  O_3
REMARK    3  A    between atoms: O_3  and  C_4
REMARK    4  A    between atoms: C_12  and  N_17
REMARK    5  A    between atoms: C_14  and  O_16
REMARK                            x       y       z     vdW  Elec       q    Type
REMARK                         _______ _______ _______ _____ _____    ______ ____
ROOT
ATOM      1  C   UNL     1       0.760  -1.907  -1.306  0.00  0.00    +0.162 A 
ATOM      2  C   UNL     1       0.319  -2.775  -0.322  0.00  0.00    +0.049 A 
ATOM      3  C   UNL     1       0.526  -4.135  -0.459  0.00  0.00    +0.004 A 
ATOM      4  C   UNL     1       1.170  -4.627  -1.577  0.00  0.00    +0.010 A 
ATOM      5  C   UNL     1       1.614  -3.764  -2.567  0.00  0.00    +0.028 A 
ATOM      6  C   UNL     1       1.409  -2.404  -2.438  0.00  0.00    +0.168 A 
ATOM      7  O   UNL     1       1.833  -1.522  -3.381  0.00  0.00    -0.486 OA
ATOM      8  C   UNL     1       2.152  -2.032  -4.676  0.00  0.00    +0.251 C 
ATOM      9  C   UNL     1       3.077  -3.244  -4.505  0.00  0.00    +0.127 C 
ATOM     10  C   UNL     1       2.309  -4.343  -3.774  0.00  0.00    +0.168 C 
ENDROOT
BRANCH   9  11
ATOM     11  N   UNL     1       3.509  -3.728  -5.823  0.00  0.00    -0.293 NA
ATOM     12  C   UNL     1       4.514  -2.833  -6.409  0.00  0.00    +0.092 C 
ATOM     13  C   UNL     1       5.114  -3.490  -7.658  0.00  0.00    +0.089 C 
ATOM     14  C   UNL     1       3.979  -3.876  -8.582  0.00  0.00    +0.136 C 
ATOM     15  O   UNL     1       4.003  -3.586  -9.755  0.00  0.00    -0.297 OA
ATOM     16  C   UNL     1       2.813  -4.639  -7.988  0.00  0.00    +0.089 C 
ATOM     17  C   UNL     1       2.359  -3.909  -6.719  0.00  0.00    +0.092 C 
ENDBRANCH   9  11
BRANCH  10  18
ATOM     18  O   UNL     1       3.209  -5.371  -3.357  0.00  0.00    -0.385 OA
ATOM     19  H   UNL     1       2.781  -6.105  -2.895  0.00  0.00    +0.210 HD
ENDBRANCH  10  18
BRANCH   1  20
ATOM     20  O   UNL     1       0.556  -0.570  -1.173  0.00  0.00    -0.489 OA
BRANCH  20  22
ATOM     21  C   UNL     1      -0.251   1.393  -0.017  0.00  0.00    +0.048 C 
ATOM     22  C   UNL     1      -0.114  -0.130   0.011  0.00  0.00    +0.226 C 
ENDBRANCH  20  22
ENDBRANCH   1  20
TORSDOF 4
