REMARK  Name = ZINC40464438
REMARK  7 active torsions:
REMARK  status: ('A' for Active; 'I' for Inactive)
REMARK    1  A    between atoms: C_1  and  S_2
REMARK    2  A    between atoms: S_2  and  C_3
REMARK    3  A    between atoms: C_3  and  C_4
REMARK    4  A    between atoms: C_4  and  C_5
REMARK    5  A    between atoms: C_5  and  C_7
REMARK    6  A    between atoms: C_5  and  N_19
REMARK    7  A    between atoms: C_14  and  C_16
REMARK                            x       y       z     vdW  Elec       q    Type
REMARK                         _______ _______ _______ _____ _____    ______ ____
ROOT
ATOM      1  C   UNL     1       1.880  -3.792  -3.013  0.00  0.00    +0.202 C 
ATOM      2  O   UNL     1       1.125  -4.474  -3.674  0.00  0.00    -0.277 OA
ATOM      3  N   UNL     1       2.891  -4.370  -2.335  0.00  0.00    -0.291 N 
ATOM      4  C   UNL     1       3.858  -3.552  -1.590  0.00  0.00    +0.108 C 
ATOM      5  C   UNL     1       5.272  -3.923  -2.046  0.00  0.00    +0.019 C 
ATOM      6  C   UNL     1       5.474  -5.432  -1.890  0.00  0.00    +0.004 C 
ATOM      7  C   UNL     1       4.472  -6.177  -2.774  0.00  0.00    +0.032 C 
ATOM      8  C   UNL     1       3.044  -5.832  -2.322  0.00  0.00    +0.162 C 
ENDROOT
BRANCH   8   9
ATOM      9  C   UNL     1       2.049  -6.453  -3.268  0.00  0.00    +0.231 C 
ATOM     10  O   UNL     1       2.137  -6.250  -4.460  0.00  0.00    -0.274 OA
ATOM     11  N   UNL     1       1.061  -7.234  -2.788  0.00  0.00    -0.328 N 
ATOM     12  H   UNL     1       0.990  -7.396  -1.835  0.00  0.00    +0.145 HD
ATOM     13  H   UNL     1       0.420  -7.633  -3.397  0.00  0.00    +0.145 HD
ENDBRANCH   8   9
BRANCH   1  14
ATOM     14  C   UNL     1       1.686  -2.299  -2.949  0.00  0.00    +0.014 C 
BRANCH  14  15
ATOM     15  N   UNL     1       0.875  -1.861  -4.092  0.00  0.00    +0.386 N 
ATOM     16  H   UNL     1       0.745  -0.861  -4.049  0.00  0.00    -0.089 HD
ATOM     17  H   UNL     1       1.346  -2.103  -4.951  0.00  0.00    -0.089 HD
ATOM     18  H   UNL     1      -0.024  -2.318  -4.061  0.00  0.00    -0.089 HD
ENDBRANCH  14  15
BRANCH  14  19
ATOM     19  C   UNL     1       0.972  -1.933  -1.646  0.00  0.00    +0.003 C 
BRANCH  19  20
ATOM     20  C   UNL     1       0.887  -0.410  -1.522  0.00  0.00    +0.068 C 
BRANCH  20  22
ATOM     21  C   UNL     1       0.022   1.838   0.017  0.00  0.00    +0.084 C 
ATOM     22  S   UNL     1       0.040   0.024   0.022  0.00  0.00    -0.164 S 
ENDBRANCH  20  22
ENDBRANCH  19  20
ENDBRANCH  14  19
ENDBRANCH   1  14
TORSDOF 6
