REMARK  Name = ZINC65385442
REMARK  3 active torsions:
REMARK  status: ('A' for Active; 'I' for Inactive)
REMARK    1  A    between atoms: C_6  and  O_7
REMARK    2  A    between atoms: O_7  and  C_8
REMARK    3  A    between atoms: C_8  and  C_14
REMARK                            x       y       z     vdW  Elec       q    Type
REMARK                         _______ _______ _______ _____ _____    ______ ____
ROOT
ATOM      1  C   UNL     1      -1.198  -2.093   0.020  0.00  0.00    +0.182 C 
ATOM      2  C   UNL     1      -0.507  -2.422   1.347  0.00  0.00    +0.038 C 
ATOM      3  C   UNL     1      -0.486  -3.940   1.541  0.00  0.00    -0.078 C 
ATOM      4  N   UNL     1      -1.861  -4.454   1.562  0.00  0.00    +0.379 N 
ATOM      5  C   UNL     1      -2.506  -4.205   0.268  0.00  0.00    -0.078 C 
ATOM      6  C   UNL     1      -2.605  -2.697   0.024  0.00  0.00    +0.038 C 
ATOM      7  H   UNL     1      -1.845  -5.446   1.744  0.00  0.00    -0.086 HD
ATOM      8  H   UNL     1      -2.381  -3.988   2.291  0.00  0.00    -0.086 HD
ENDROOT
BRANCH   1   9
ATOM      9  C   UNL     1      -0.403  -2.674  -1.121  0.00  0.00    +0.259 C 
ATOM     10  O   UNL     1      -0.784  -3.684  -1.673  0.00  0.00    -0.271 OA
ATOM     11  N   UNL     1       0.730  -2.070  -1.529  0.00  0.00    -0.301 N 
ATOM     12  C   UNL     1       1.183  -0.819  -0.900  0.00  0.00    +0.092 C 
ATOM     13  C   UNL     1       2.680  -0.965  -0.574  0.00  0.00    -0.054 C 
ATOM     14  C   UNL     1       2.858  -2.249   0.268  0.00  0.00    -0.016 C 
ATOM     15  C   UNL     1       3.072  -3.375  -0.765  0.00  0.00    -0.016 C 
ATOM     16  C   UNL     1       3.005  -2.672  -2.140  0.00  0.00    -0.054 C 
ATOM     17  C   UNL     1       1.544  -2.650  -2.610  0.00  0.00    +0.092 C 
ATOM     18  N   UNL     1       3.383  -1.247  -1.854  0.00  0.00    +0.385 N 
ATOM     19  H   UNL     1       3.056  -0.629  -2.581  0.00  0.00    -0.085 HD
ATOM     20  H   UNL     1       4.382  -1.162  -1.736  0.00  0.00    -0.085 HD
ENDBRANCH   1   9
BRANCH   1  21
ATOM     21  O   UNL     1      -1.287  -0.675  -0.133  0.00  0.00    -0.477 OA
BRANCH  21  27
ATOM     22  C   UNL     1      -2.090   1.147  -1.435  0.00  0.00    +0.047 A 
ATOM     23  C   UNL     1      -2.683   1.616  -2.591  0.00  0.00    +0.023 A 
ATOM     24  C   UNL     1      -3.060   0.729  -3.584  0.00  0.00    +0.041 A 
ATOM     25  C   UNL     1      -2.842  -0.628  -3.422  0.00  0.00    +0.023 A 
ATOM     26  C   UNL     1      -2.249  -1.100  -2.267  0.00  0.00    +0.047 A 
ATOM     27  C   UNL     1      -1.871  -0.212  -1.270  0.00  0.00    +0.122 A 
ATOM     28 CL   UNL     1      -3.806   1.320  -5.036  0.00  0.00    -0.084 Cl
ENDBRANCH  21  27
ENDBRANCH   1  21
TORSDOF 3
