REMARK  Name = ZINC62702806
REMARK  8 active torsions:
REMARK  status: ('A' for Active; 'I' for Inactive)
REMARK    1  A    between atoms: C_3  and  O_17
REMARK    2  A    between atoms: C_6  and  C_7
REMARK    3  A    between atoms: C_7  and  N_8
REMARK    4  A    between atoms: N_8  and  C_9
REMARK    5  A    between atoms: C_9  and  C_10
REMARK    6  A    between atoms: C_10  and  C_11
REMARK    7  A    between atoms: C_11  and  S_12
REMARK    8  A    between atoms: S_12  and  N_15
REMARK                            x       y       z     vdW  Elec       q    Type
REMARK                         _______ _______ _______ _____ _____    ______ ____
ROOT
ATOM      1  N   UNL     1      -1.728  -1.017  -1.371  0.00  0.00    +0.382 N 
ATOM      2  H   UNL     1      -1.864  -0.134  -1.841  0.00  0.00    -0.085 HD
ATOM      3  H   UNL     1      -1.023  -1.550  -1.857  0.00  0.00    -0.085 HD
ENDROOT
BRANCH   1   4
ATOM      4  C   UNL     1      -1.293  -0.774   0.011  0.00  0.00    -0.047 C 
BRANCH   4  10
ATOM      5  C   UNL     1      -0.017   1.378   0.010  0.00  0.00    +0.005 A 
ATOM      6  C   UNL     1       1.170   2.087   0.002  0.00  0.00    +0.047 A 
ATOM      7  C   UNL     1       2.380   1.410  -0.013  0.00  0.00    +0.131 A 
ATOM      8  C   UNL     1       2.397   0.022  -0.021  0.00  0.00    +0.059 A 
ATOM      9  C   UNL     1       1.208  -0.682  -0.013  0.00  0.00    +0.020 A 
ATOM     10  C   UNL     1       0.002  -0.004   0.002  0.00  0.00    -0.063 A 
ATOM     11 BR   UNL     1       4.045  -0.905  -0.042  0.00  0.00    -0.047 Br
BRANCH   7  12
ATOM     12  O   UNL     1       3.548   2.105  -0.021  0.00  0.00    -0.506 OA
ATOM     13  H   UNL     1       3.895   2.302   0.860  0.00  0.00    +0.292 HD
ENDBRANCH   7  12
ENDBRANCH   4  10
ENDBRANCH   1   4
BRANCH   1  14
ATOM     14  C   UNL     1      -2.991  -1.767  -1.363  0.00  0.00    -0.081 C 
BRANCH  14  15
ATOM     15  C   UNL     1      -3.444  -2.020  -2.802  0.00  0.00    +0.005 C 
BRANCH  15  16
ATOM     16  C   UNL     1      -4.759  -2.801  -2.794  0.00  0.00    +0.183 C 
BRANCH  16  17
ATOM     17  S   UNL     1      -5.296  -3.101  -4.500  0.00  0.00    +0.027 S 
ATOM     18  O   UNL     1      -5.663  -1.876  -5.120  0.00  0.00    -0.158 OA
ATOM     19  O   UNL     1      -4.402  -3.999  -5.144  0.00  0.00    -0.158 OA
BRANCH  17  20
ATOM     20  N   UNL     1      -6.713  -3.945  -4.359  0.00  0.00    -0.208 NA
ATOM     21  H   UNL     1      -7.063  -4.163  -3.480  0.00  0.00    +0.144 HD
ATOM     22  H   UNL     1      -7.194  -4.222  -5.154  0.00  0.00    +0.144 HD
ENDBRANCH  17  20
ENDBRANCH  16  17
ENDBRANCH  15  16
ENDBRANCH  14  15
ENDBRANCH   1  14
TORSDOF 8
