REMARK  Name = ZINC00529612
REMARK  2 active torsions:
REMARK  status: ('A' for Active; 'I' for Inactive)
REMARK    1  A    between atoms: C_4  and  C_7
REMARK    2  A    between atoms: C_10  and  C_19
REMARK                            x       y       z     vdW  Elec       q    Type
REMARK                         _______ _______ _______ _____ _____    ______ ____
ROOT
ATOM      1  C   UNL     1       3.711  -0.707  -0.038  0.00  0.00    +0.106 C 
ATOM      2  C   UNL     1       4.019  -1.178  -1.464  0.00  0.00    +0.059 C 
ATOM      3  C   UNL     1       5.382  -1.879  -1.495  0.00  0.00    +0.144 C 
ATOM      4  N   UNL     1       5.431  -2.864  -0.414  0.00  0.00    -0.224 N 
ATOM      5  C   UNL     1       4.609  -2.857   0.662  0.00  0.00    +0.216 A 
ATOM      6  N   UNL     1       4.924  -3.872   1.421  0.00  0.00    -0.180 NA
ATOM      7  C   UNL     1       5.941  -4.548   0.865  0.00  0.00    +0.233 A 
ATOM      8  N   UNL     1       6.280  -3.960  -0.261  0.00  0.00    -0.132 NA
ATOM      9  N   UNL     1       6.541  -5.690   1.397  0.00  0.00    -0.326 N 
ATOM     10  N   UNL     1       3.630  -1.887   0.844  0.00  0.00    -0.307 N 
ATOM     11  H   UNL     1       6.226  -6.058   2.237  0.00  0.00    +0.145 HD
ATOM     12  H   UNL     1       7.275  -6.116   0.926  0.00  0.00    +0.145 HD
ATOM     13  H   UNL     1       2.932  -1.982   1.511  0.00  0.00    +0.149 HD
ENDROOT
BRANCH   3  14
ATOM     14  C   UNL     1       5.564  -2.571  -2.821  0.00  0.00    -0.005 A 
ATOM     15  C   UNL     1       4.673  -3.550  -3.218  0.00  0.00    +0.007 A 
ATOM     16  C   UNL     1       4.839  -4.185  -4.434  0.00  0.00    +0.000 A 
ATOM     17  C   UNL     1       5.898  -3.841  -5.255  0.00  0.00    +0.001 A 
ATOM     18  C   UNL     1       6.790  -2.863  -4.859  0.00  0.00    +0.020 A 
ATOM     19  C   UNL     1       6.620  -2.223  -3.644  0.00  0.00    +0.046 A 
ATOM     20 CL   UNL     1       7.736  -0.989  -3.149  0.00  0.00    -0.083 Cl
ENDBRANCH   3  14
BRANCH   1  24
ATOM     21  C   UNL     1      -0.017   1.378   0.010  0.00  0.00    +0.000 A 
ATOM     22  C   UNL     1       1.171   2.086   0.002  0.00  0.00    +0.000 A 
ATOM     23  C   UNL     1       2.377   1.411  -0.013  0.00  0.00    +0.005 A 
ATOM     24  C   UNL     1       2.396   0.029  -0.020  0.00  0.00    -0.027 A 
ATOM     25  C   UNL     1       1.208  -0.679  -0.012  0.00  0.00    +0.005 A 
ATOM     26  C   UNL     1       0.002  -0.004   0.002  0.00  0.00    +0.000 A 
ENDBRANCH   1  24
TORSDOF 2
