REMARK  Name = ZINC43224369
REMARK  7 active torsions:
REMARK  status: ('A' for Active; 'I' for Inactive)
REMARK    1  A    between atoms: C_2  and  C_21
REMARK    2  A    between atoms: C_3  and  N_18
REMARK    3  A    between atoms: C_6  and  N_7
REMARK    4  A    between atoms: N_13  and  C_14
REMARK    5  A    between atoms: C_14  and  C_15
REMARK    6  A    between atoms: C_15  and  C_16
REMARK    7  A    between atoms: C_16  and  N_17
REMARK                            x       y       z     vdW  Elec       q    Type
REMARK                         _______ _______ _______ _____ _____    ______ ____
ROOT
ATOM      1  C   UNL     1      -0.009   1.369  -0.210  0.00  0.00    +0.058 A 
ATOM      2  C   UNL     1       1.191   2.063  -0.216  0.00  0.00    +0.092 A 
ATOM      3  C   UNL     1       2.365   1.358  -0.009  0.00  0.00    +0.177 A 
ATOM      4  C   UNL     1       2.306  -0.015   0.197  0.00  0.00    +0.152 A 
ATOM      5  N   UNL     1       1.143  -0.649   0.197  0.00  0.00    -0.215 NA
ATOM      6  C   UNL     1       0.002  -0.004   0.002  0.00  0.00    +0.124 A 
ATOM      7  N   UNL     1       3.479  -0.730   0.406  0.00  0.00    -0.327 N 
ATOM      8  H   UNL     1       4.334  -0.271   0.406  0.00  0.00    +0.148 HD
ENDROOT
BRANCH   6   9
ATOM      9  N   UNL     1      -1.196  -0.708   0.010  0.00  0.00    -0.311 N 
ATOM     10  C   UNL     1      -1.210  -2.180   0.008  0.00  0.00    +0.134 C 
ATOM     11  C   UNL     1      -2.131  -2.656   1.137  0.00  0.00    +0.178 C 
ATOM     12  O   UNL     1      -3.400  -2.009   1.015  0.00  0.00    -0.377 OA
ATOM     13  C   UNL     1      -3.347  -0.586   1.149  0.00  0.00    +0.178 C 
ATOM     14  C   UNL     1      -2.488  -0.004   0.026  0.00  0.00    +0.134 C 
ENDBRANCH   6   9
BRANCH   2  15
ATOM     15  C   UNL     1       1.217   3.553  -0.444  0.00  0.00    +0.420 C 
ATOM     16  F   UNL     1      -0.089   4.019  -0.626  0.00  0.00    -0.166 F 
ATOM     17  F   UNL     1       1.787   4.184   0.667  0.00  0.00    -0.166 F 
ATOM     18  F   UNL     1       1.977   3.837  -1.583  0.00  0.00    -0.166 F 
ENDBRANCH   2  15
BRANCH   3  19
ATOM     19  N   UNL     1       3.668   2.060  -0.008  0.00  0.00    +0.060 N 
ATOM     20  O   UNL     1       4.114   2.505   1.024  0.00  0.00    -0.126 OA
ATOM     21  O   UNL     1       4.287   2.187  -1.039  0.00  0.00    -0.126 OA
ENDBRANCH   3  19
BRANCH   7  22
ATOM     22  C   UNL     1       3.426  -2.178   0.624  0.00  0.00    +0.101 C 
BRANCH  22  23
ATOM     23  C   UNL     1       4.844  -2.716   0.825  0.00  0.00    -0.001 C 
BRANCH  23  24
ATOM     24  C   UNL     1       4.788  -4.228   1.053  0.00  0.00    -0.085 C 
BRANCH  24  25
ATOM     25  N   UNL     1       6.149  -4.745   1.247  0.00  0.00    +0.378 N 
ATOM     26  H   UNL     1       6.703  -4.549   0.426  0.00  0.00    -0.090 HD
ATOM     27  H   UNL     1       6.567  -4.299   2.049  0.00  0.00    -0.090 HD
ATOM     28  H   UNL     1       6.112  -5.742   1.397  0.00  0.00    -0.090 HD
ENDBRANCH  24  25
ENDBRANCH  23  24
ENDBRANCH  22  23
ENDBRANCH   7  22
TORSDOF 7
