REMARK  Name = ZINC00439023
REMARK  5 active torsions:
REMARK  status: ('A' for Active; 'I' for Inactive)
REMARK    1  A    between atoms: C_1  and  S_2
REMARK    2  A    between atoms: S_2  and  C_3
REMARK    3  A    between atoms: C_6  and  C_9
REMARK    4  A    between atoms: N_10  and  N_11
REMARK    5  A    between atoms: C_12  and  C_14
REMARK                            x       y       z     vdW  Elec       q    Type
REMARK                         _______ _______ _______ _____ _____    ______ ____
ROOT
ATOM      1  N   UNL     1      -0.986  -2.235  -0.000  0.00  0.00    -0.203 N 
ATOM      2  C   UNL     1      -1.163  -0.899   0.009  0.00  0.00    +0.265 C 
ATOM      3  O   UNL     1      -2.287  -0.434   0.022  0.00  0.00    -0.268 OA
ATOM      4  H   UNL     1      -0.089  -2.606  -0.011  0.00  0.00    +0.178 HD
ENDROOT
BRANCH   2   5
ATOM      5  C   UNL     1       0.002  -0.004   0.002  0.00  0.00    +0.063 A 
ATOM      6  C   UNL     1       1.315  -0.373  -0.013  0.00  0.00    +0.096 A 
ATOM      7  N   UNL     1       2.101   0.731  -0.014  0.00  0.00    -0.360 N 
ATOM      8  H   UNL     1       3.071   0.720  -0.023  0.00  0.00    +0.165 HD
ATOM      9  C   UNL     1       1.327   1.873  -0.001  0.00  0.00    +0.047 A 
ATOM     10  C   UNL     1      -0.018   1.470   0.010  0.00  0.00    +0.012 A 
ATOM     11  C   UNL     1      -1.032   2.424   0.030  0.00  0.00    +0.011 A 
ATOM     12  C   UNL     1      -0.709   3.763   0.030  0.00  0.00    +0.001 A 
ATOM     13  C   UNL     1       0.619   4.163   0.019  0.00  0.00    +0.002 A 
ATOM     14  C   UNL     1       1.633   3.230   0.004  0.00  0.00    +0.026 A 
ENDBRANCH   2   5
BRANCH   1  16
ATOM     15  C   UNL     1      -1.926  -4.376  -0.002  0.00  0.00    +0.138 C 
ATOM     16  N   UNL     1      -2.096  -3.089   0.006  0.00  0.00    -0.187 NA
BRANCH  15  20
ATOM     17  C   UNL     1      -5.292  -6.963   0.019  0.00  0.00    +0.008 A 
ATOM     18  C   UNL     1      -4.007  -7.497   0.002  0.00  0.00    +0.015 A 
ATOM     19  C   UNL     1      -2.913  -6.660  -0.005  0.00  0.00    +0.010 A 
ATOM     20  C   UNL     1      -3.094  -5.274   0.004  0.00  0.00    -0.005 A 
ATOM     21  C   UNL     1      -4.387  -4.742   0.026  0.00  0.00    +0.010 A 
ATOM     22  C   UNL     1      -5.476  -5.584   0.028  0.00  0.00    +0.015 A 
BRANCH  17  24
ATOM     23  C   UNL     1      -8.109  -6.909   0.049  0.00  0.00    +0.090 C 
ATOM     24  S   UNL     1      -6.689  -8.037   0.028  0.00  0.00    -0.129 S 
ENDBRANCH  17  24
ENDBRANCH  15  20
ENDBRANCH   1  16
TORSDOF 4
