REMARK  Name = ZINC39727279
REMARK  12 active torsions:
REMARK  status: ('A' for Active; 'I' for Inactive)
REMARK    1  A    between atoms: C_1  and  C_2
REMARK    2  A    between atoms: C_3  and  C_33
REMARK    3  A    between atoms: C_4  and  C_32
REMARK    4  A    between atoms: C_7  and  C_8
REMARK    5  A    between atoms: C_8  and  C_10
REMARK    6  A    between atoms: C_10  and  C_12
REMARK    7  A    between atoms: C_10  and  N_13
REMARK    8  A    between atoms: N_13  and  C_14
REMARK    9  A    between atoms: C_14  and  C_15
REMARK   10  A    between atoms: C_15  and  C_17
REMARK   11  A    between atoms: C_15  and  C_23
REMARK   12  A    between atoms: C_33  and  C_35
REMARK                            x       y       z     vdW  Elec       q    Type
REMARK                         _______ _______ _______ _____ _____    ______ ____
ROOT
ATOM      1  N   UNL     1       0.438  -0.938   4.756  0.00  0.00    +0.386 N 
ATOM      2  H   UNL     1       1.134  -0.253   5.010  0.00  0.00    -0.085 HD
ATOM      3  H   UNL     1      -0.466  -0.493   4.698  0.00  0.00    -0.085 HD
ENDROOT
BRANCH   1   4
ATOM      4  C   UNL     1       0.780  -1.525   3.454  0.00  0.00    -0.001 C 
ATOM      5  C   UNL     1      -0.338  -2.470   3.011  0.00  0.00    -0.006 C 
BRANCH   4   6
ATOM      6  C   UNL     1       0.942  -0.426   2.435  0.00  0.00    +0.165 C 
ATOM      7  O   UNL     1       0.530   0.690   2.675  0.00  0.00    -0.292 OA
BRANCH   6  14
ATOM      8  C   UNL     1       1.391   1.665   0.181  0.00  0.00    +0.047 C 
ATOM      9  C   UNL     1       1.786   0.211   0.182  0.00  0.00    -0.012 A 
ATOM     10  C   UNL     1       2.450  -0.483  -0.854  0.00  0.00    +0.041 A 
ATOM     11  C   UNL     1       2.612  -1.794  -0.430  0.00  0.00    +0.024 A 
ATOM     12  N   UNL     1       2.083  -1.915   0.796  0.00  0.00    -0.355 N 
ATOM     13  H   UNL     1       2.064  -2.731   1.320  0.00  0.00    +0.166 HD
ATOM     14  C   UNL     1       1.574  -0.696   1.197  0.00  0.00    +0.084 A 
ATOM     15  C   UNL     1       3.272  -2.897  -1.215  0.00  0.00    +0.064 C 
BRANCH  10  16
ATOM     16  C   UNL     1       2.886   0.077  -2.138  0.00  0.00    +0.162 C 
ATOM     17  O   UNL     1       2.136   0.063  -3.092  0.00  0.00    -0.292 OA
ATOM     18  C   UNL     1       4.265   0.670  -2.272  0.00  0.00    +0.091 C 
ENDBRANCH  10  16
ENDBRANCH   6  14
ENDBRANCH   4   6
ENDBRANCH   1   4
BRANCH   1  19
ATOM     19  C   UNL     1       0.398  -1.996   5.774  0.00  0.00    -0.072 C 
BRANCH  19  20
ATOM     20  C   UNL     1       0.176  -1.369   7.152  0.00  0.00    +0.018 C 
BRANCH  20  21
ATOM     21  C   UNL     1      -1.188  -0.731   7.201  0.00  0.00    -0.020 A 
ATOM     22  C   UNL     1      -1.481   0.682   7.450  0.00  0.00    +0.003 A 
ATOM     23  C   UNL     1      -0.692   1.807   7.700  0.00  0.00    +0.010 A 
ATOM     24  C   UNL     1      -1.286   3.022   7.896  0.00  0.00    +0.001 A 
ATOM     25  C   UNL     1      -2.668   3.147   7.848  0.00  0.00    +0.002 A 
ATOM     26  C   UNL     1      -3.465   2.050   7.602  0.00  0.00    +0.026 A 
ATOM     27  C   UNL     1      -2.881   0.804   7.399  0.00  0.00    +0.047 A 
ATOM     28  N   UNL     1      -3.389  -0.449   7.139  0.00  0.00    -0.360 N 
ATOM     29  C   UNL     1      -2.365  -1.349   7.018  0.00  0.00    +0.087 A 
ATOM     30  H   UNL     1      -4.331  -0.661   7.050  0.00  0.00    +0.165 HD
ENDBRANCH  20  21
BRANCH  20  31
ATOM     31  C   UNL     1       0.270  -2.454   8.227  0.00  0.00    +0.060 C 
ATOM     32  C   UNL     1       0.238  -1.846   9.654  0.00  0.00    +0.042 C 
ATOM     33  C   UNL     1       1.179  -2.572  10.561  0.00  0.00    -0.019 C 
ATOM     34  C   UNL     1       2.137  -3.321  10.049  0.00  0.00    +0.036 C 
ATOM     35  S   UNL     1       1.949  -3.212   8.277  0.00  0.00    -0.129 S 
ENDBRANCH  20  31
ENDBRANCH  19  20
ENDBRANCH   1  19
TORSDOF 8
