REMARK  Name = ZINC32955220
REMARK  5 active torsions:
REMARK  status: ('A' for Active; 'I' for Inactive)
REMARK    1  A    between atoms: C_1  and  C_2
REMARK    2  A    between atoms: C_11  and  C_23
REMARK    3  A    between atoms: C_14  and  C_16
REMARK    4  A    between atoms: C_21  and  O_22
REMARK    5  A    between atoms: C_28  and  O_29
REMARK                            x       y       z     vdW  Elec       q    Type
REMARK                         _______ _______ _______ _____ _____    ______ ____
ROOT
ATOM      1  C   UNL     1      -6.211  -2.884   0.275  0.00  0.00    +0.109 C 
ATOM      2  C   UNL     1      -5.102  -2.715   1.281  0.00  0.00    +0.212 C 
ATOM      3  O   UNL     1      -5.266  -3.067   2.430  0.00  0.00    -0.276 OA
ATOM      4  N   UNL     1      -3.927  -2.172   0.904  0.00  0.00    -0.302 N 
ATOM      5  C   UNL     1      -3.668  -1.853  -0.506  0.00  0.00    +0.108 C 
ATOM      6  C   UNL     1      -2.356  -2.520  -0.930  0.00  0.00    +0.029 C 
ATOM      7  C   UNL     1      -1.238  -2.090   0.025  0.00  0.00    +0.032 C 
ATOM      8  C   UNL     1      -1.579  -2.554   1.444  0.00  0.00    +0.029 C 
ATOM      9  C   UNL     1      -2.881  -1.887   1.896  0.00  0.00    +0.108 C 
ATOM     10  N   UNL     1       0.023  -2.717  -0.397  0.00  0.00    +0.401 N 
ATOM     11  C   UNL     1       1.146  -2.174   0.386  0.00  0.00    -0.028 C 
ATOM     12  C   UNL     1       1.337  -0.705  -0.007  0.00  0.00    +0.044 C 
ATOM     13  C   UNL     1       0.004  -0.010  -0.004  0.00  0.00    +0.044 C 
ATOM     14  N   UNL     1      -1.113  -0.636   0.010  0.00  0.00    -0.300 NA
ATOM     15  H   UNL     1      -0.036  -3.803  -0.237  0.00  0.00    -0.081 HD
ATOM     16  H   UNL     1       0.195  -2.512  -1.464  0.00  0.00    -0.081 HD
ENDROOT
BRANCH  13  17
ATOM     17  C   UNL     1      -0.019   1.464  -0.012  0.00  0.00    +0.037 A 
ATOM     18  C   UNL     1       1.178   2.184  -0.022  0.00  0.00    +0.013 A 
ATOM     19  C   UNL     1       1.150   3.562  -0.029  0.00  0.00    +0.001 A 
ATOM     20  C   UNL     1      -0.059   4.237  -0.027  0.00  0.00    +0.004 A 
ATOM     21  C   UNL     1      -1.250   3.537  -0.017  0.00  0.00    +0.046 A 
ATOM     22  C   UNL     1      -1.241   2.150  -0.015  0.00  0.00    +0.126 A 
BRANCH  22  23
ATOM     23  O   UNL     1      -2.410   1.461  -0.011  0.00  0.00    -0.506 OA
ATOM     24  H   UNL     1      -3.367   2.002  -0.014  0.00  0.00    +0.292 HD
ENDBRANCH  22  23
ENDBRANCH  13  17
BRANCH  11  25
ATOM     25  C   UNL     1       2.402  -2.949   0.079  0.00  0.00    -0.019 A 
ATOM     26  C   UNL     1       2.519  -3.630  -1.118  0.00  0.00    +0.005 A 
ATOM     27  C   UNL     1       3.670  -4.341  -1.400  0.00  0.00    +0.000 A 
ATOM     28  C   UNL     1       4.707  -4.373  -0.486  0.00  0.00    +0.004 A 
ATOM     29  C   UNL     1       4.596  -3.693   0.711  0.00  0.00    +0.045 A 
ATOM     30  C   UNL     1       3.443  -2.975   0.995  0.00  0.00    +0.118 A 
BRANCH  30  31
ATOM     31  O   UNL     1       3.333  -2.301   2.170  0.00  0.00    -0.507 OA
ATOM     32  H   UNL     1       4.159  -2.322   2.896  0.00  0.00    +0.292 HD
ENDBRANCH  30  31
ENDBRANCH  11  25
TORSDOF 4
