REMARK  Name = ZINC39248330
REMARK  2 active torsions:
REMARK  status: ('A' for Active; 'I' for Inactive)
REMARK    1  A    between atoms: C_3  and  C_4
REMARK    2  A    between atoms: C_6  and  C_10
REMARK                            x       y       z     vdW  Elec       q    Type
REMARK                         _______ _______ _______ _____ _____    ______ ____
ROOT
ATOM      1  C   UNL     1      -0.402  -0.698  -1.273  0.00  0.00    +0.065 C 
ATOM      2  C   UNL     1      -1.429  -1.545  -1.382  0.00  0.00    +0.032 C 
ATOM      3  C   UNL     1      -1.408  -1.957  -2.844  0.00  0.00    +0.213 C 
ATOM      4  N   UNL     1      -0.263  -1.206  -3.384  0.00  0.00    -0.174 NA
ATOM      5  N   UNL     1       0.221  -0.544  -2.462  0.00  0.00    -0.158 NA
ENDROOT
BRANCH   3   6
ATOM      6  C   UNL     1      -2.707  -1.545  -3.540  0.00  0.00    +0.308 C 
ATOM      7  N   UNL     1      -2.701  -1.986  -4.946  0.00  0.00    -0.225 N 
ATOM      8  N   UNL     1      -3.787  -2.867  -5.063  0.00  0.00    -0.139 NA
ATOM      9  C   UNL     1      -4.396  -2.981  -3.932  0.00  0.00    +0.280 C 
ATOM     10  O   UNL     1      -3.827  -2.229  -2.959  0.00  0.00    -0.444 OA
ATOM     11  S   UNL     1      -5.811  -4.001  -3.680  0.00  0.00    +0.012 SA
ATOM     12  H   UNL     1      -2.079  -1.724  -5.642  0.00  0.00    +0.172 HD
ENDBRANCH   3   6
BRANCH   1  15
ATOM     13  C   UNL     1      -0.019   1.526   0.010  0.00  0.00    +0.010 C 
ATOM     14  C   UNL     1       1.317   0.779  -0.006  0.00  0.00    +0.010 C 
ATOM     15  C   UNL     1       0.002  -0.004   0.002  0.00  0.00    +0.039 C 
ENDBRANCH   1  15
TORSDOF 2
