REMARK  Name = ZINC46337928
REMARK  6 active torsions:
REMARK  status: ('A' for Active; 'I' for Inactive)
REMARK    1  A    between atoms: C_1  and  C_2
REMARK    2  A    between atoms: N_8  and  C_9
REMARK    3  A    between atoms: C_9  and  C_11
REMARK    4  A    between atoms: C_9  and  C_12
REMARK    5  A    between atoms: C_12  and  N_13
REMARK    6  A    between atoms: N_16  and  N_17
REMARK                            x       y       z     vdW  Elec       q    Type
REMARK                         _______ _______ _______ _____ _____    ______ ____
ROOT
ATOM      1  N   UNL     1      -0.774   1.936   0.758  0.00  0.00    -0.300 N 
ATOM      2  C   UNL     1      -1.049   3.210   0.414  0.00  0.00    +0.316 C 
ATOM      3  O   UNL     1      -0.592   4.128   1.066  0.00  0.00    -0.251 OA
ATOM      4  N   UNL     1      -1.831   3.465  -0.654  0.00  0.00    -0.219 N 
ATOM      5  H   UNL     1      -1.078   1.205   0.198  0.00  0.00    +0.150 HD
ATOM      6  H   UNL     1      -1.972   4.380  -0.944  0.00  0.00    +0.174 HD
ENDROOT
BRANCH   4   7
ATOM      7  N   UNL     1      -2.440   2.409  -1.345  0.00  0.00    -0.246 N 
ATOM      8  C   UNL     1      -3.157   2.662  -2.510  0.00  0.00    +0.158 A 
ATOM      9  C   UNL     1      -3.769   1.613  -3.197  0.00  0.00    +0.050 A 
ATOM     10  C   UNL     1      -4.471   1.914  -4.351  0.00  0.00    +0.053 A 
ATOM     11  C   UNL     1      -4.522   3.248  -4.756  0.00  0.00    +0.176 A 
ATOM     12  N   UNL     1      -3.911   4.177  -4.042  0.00  0.00    -0.128 NA
ATOM     13  N   UNL     1      -3.264   3.900  -2.969  0.00  0.00    -0.131 NA
ATOM     14  N   UNL     1      -5.220   3.601  -5.917  0.00  0.00    -0.220 N 
ATOM     15  C   UNL     1      -5.344   4.854  -6.425  0.00  0.00    +0.116 A 
ATOM     16  C   UNL     1      -6.091   4.768  -7.551  0.00  0.00    +0.041 A 
ATOM     17  C   UNL     1      -6.434   3.425  -7.738  0.00  0.00    +0.135 A 
ATOM     18  N   UNL     1      -5.909   2.725  -6.765  0.00  0.00    -0.173 NA
ATOM     19  H   UNL     1      -2.363   1.502  -1.010  0.00  0.00    +0.172 HD
ENDBRANCH   4   7
BRANCH   1  20
ATOM     20  C   UNL     1      -0.015   1.655   1.980  0.00  0.00    +0.090 C 
BRANCH  20  21
ATOM     21  C   UNL     1       0.056   0.143   2.199  0.00  0.00    -0.054 C 
ATOM     22  C   UNL     1       0.924  -0.154   3.424  0.00  0.00    -0.012 C 
BRANCH  21  29
ATOM     23  C   UNL     1      -0.811  -2.418   1.440  0.00  0.00    -0.013 C 
ATOM     24  C   UNL     1       0.625  -1.954   1.187  0.00  0.00    -0.071 C 
ATOM     25  C   UNL     1       1.163  -2.628  -0.077  0.00  0.00    -0.016 C 
ATOM     26  C   UNL     1       2.600  -2.162  -0.325  0.00  0.00    -0.003 C 
ATOM     27  C   UNL     1       2.620  -0.634  -0.428  0.00  0.00    -0.019 C 
ATOM     28  C   UNL     1       2.029  -0.034   0.849  0.00  0.00    -0.078 C 
ATOM     29  N   UNL     1       0.645  -0.497   1.015  0.00  0.00    +0.384 N 
ATOM     30  H   UNL     1       0.108  -0.248   0.199  0.00  0.00    -0.081 HD
ENDBRANCH  21  29
ENDBRANCH  20  21
ENDBRANCH   1  20
TORSDOF 4
