REMARK  Name = ZINC40291579
REMARK  5 active torsions:
REMARK  status: ('A' for Active; 'I' for Inactive)
REMARK    1  A    between atoms: C_1  and  C_2
REMARK    2  A    between atoms: C_2  and  C_3
REMARK    3  A    between atoms: C_10  and  C_17
REMARK    4  A    between atoms: C_11  and  C_16
REMARK    5  A    between atoms: C_12  and  C_15
REMARK                            x       y       z     vdW  Elec       q    Type
REMARK                         _______ _______ _______ _____ _____    ______ ____
ROOT
ATOM      1  C   UNL     1      -2.966  -0.996   0.674  0.00  0.00    +0.075 C 
ATOM      2  C   UNL     1      -2.162  -2.277   0.363  0.00  0.00    +0.024 C 
ATOM      3  C   UNL     1      -0.920  -2.139   1.283  0.00  0.00    +0.021 C 
ATOM      4  C   UNL     1      -0.675  -0.610   1.249  0.00  0.00    +0.107 C 
ATOM      5  N   UNL     1      -2.026  -0.011   1.229  0.00  0.00    -0.310 N 
ATOM      6  C   UNL     1      -2.353   1.263   1.657  0.00  0.00    +0.155 A 
ATOM      7  C   UNL     1      -2.864   1.466   2.952  0.00  0.00    +0.058 A 
ATOM      8  C   UNL     1      -3.176   2.778   3.328  0.00  0.00    -0.014 A 
ATOM      9  C   UNL     1      -2.962   3.786   2.403  0.00  0.00    +0.064 A 
ATOM     10  N   UNL     1      -2.479   3.499   1.210  0.00  0.00    -0.152 NA
ATOM     11  N   UNL     1      -2.183   2.304   0.853  0.00  0.00    -0.133 NA
ATOM     12  C   UNL     1      -3.283   5.215   2.760  0.00  0.00    +0.068 C 
ATOM     13  C   UNL     1      -3.729   3.083   4.697  0.00  0.00    +0.046 C 
ENDROOT
BRANCH   7  14
ATOM     14  C   UNL     1      -3.065   0.335   3.882  0.00  0.00    +0.098 C 
ATOM     15  N   UNL     1      -4.294   0.007   4.277  0.00  0.00    -0.387 N 
ATOM     16  N   UNL     1      -2.016  -0.356   4.326  0.00  0.00    -0.344 N 
ATOM     17  H   UNL     1      -5.057   0.510   3.954  0.00  0.00    +0.157 HD
ATOM     18  H   UNL     1      -1.121  -0.117   4.039  0.00  0.00    +0.144 HD
ATOM     19  H   UNL     1      -2.147  -1.098   4.936  0.00  0.00    +0.144 HD
ATOM     20  H   UNL     1      -4.425  -0.736   4.887  0.00  0.00    +0.157 HD
ENDBRANCH   7  14
BRANCH   1  22
ATOM     21  C   UNL     1      -4.490   0.741  -0.274  0.00  0.00    +0.006 C 
ATOM     22  C   UNL     1      -3.593  -0.451  -0.611  0.00  0.00    +0.019 C 
ENDBRANCH   1  22
TORSDOF 2
