REMARK  Name = ZINC08881114
REMARK  10 active torsions:
REMARK  status: ('A' for Active; 'I' for Inactive)
REMARK    1  A    between atoms: C_1  and  N_2
REMARK    2  A    between atoms: C_6  and  C_7
REMARK    3  A    between atoms: C_12  and  C_13
REMARK    4  A    between atoms: C_12  and  N_63
REMARK    5  A    between atoms: N_15  and  C_16
REMARK    6  A    between atoms: C_17  and  C_25
REMARK    7  A    between atoms: N_27  and  C_28
REMARK    8  A    between atoms: C_28  and  C_29
REMARK    9  A    between atoms: C_29  and  O_30
REMARK   10  A    between atoms: O_30  and  C_31
REMARK                            x       y       z     vdW  Elec       q    Type
REMARK                         _______ _______ _______ _____ _____    ______ ____
ROOT
ATOM      1  C   UNL     1      -0.616   5.792  -0.942  0.00  0.00    +0.201 C 
ATOM      2  O   UNL     1      -0.596   6.257   0.178  0.00  0.00    -0.278 OA
ATOM      3  N   UNL     1      -0.505   6.606  -2.011  0.00  0.00    -0.281 N 
ATOM      4  H   UNL     1      -0.521   6.234  -2.907  0.00  0.00    +0.155 HD
ENDROOT
BRANCH   3   5
ATOM      5  C   UNL     1      -0.368   7.974  -1.830  0.00  0.00    +0.084 A 
ATOM      6  C   UNL     1      -0.242   8.963  -2.795  0.00  0.00    +0.069 A 
ATOM      7  C   UNL     1      -0.111  10.335  -2.337  0.00  0.00    -0.023 A 
ATOM      8  C   UNL     1      -0.128  10.498  -0.997  0.00  0.00    -0.004 A 
ATOM      9  S   UNL     1      -0.321   8.864  -0.344  0.00  0.00    -0.077 S 
ATOM     10  C   UNL     1      -0.013  11.787  -0.242  0.00  0.00    +0.043 C 
ATOM     11  C   UNL     1       0.503  12.866  -1.204  0.00  0.00    +0.005 C 
ATOM     12  C   UNL     1      -0.312  12.804  -2.499  0.00  0.00    +0.005 C 
ATOM     13  C   UNL     1       0.035  11.530  -3.272  0.00  0.00    +0.037 C 
BRANCH   6  14
ATOM     14  C   UNL     1      -0.240   8.634  -4.224  0.00  0.00    +0.247 C 
ATOM     15  O   UNL     1      -1.288   8.606  -4.843  0.00  0.00    -0.270 OA
ATOM     16  N   UNL     1       0.921   8.364  -4.853  0.00  0.00    -0.309 N 
ATOM     17  H   UNL     1       1.756   8.386  -4.359  0.00  0.00    +0.149 HD
BRANCH  16  18
ATOM     18  C   UNL     1       0.922   8.036  -6.280  0.00  0.00    +0.132 C 
BRANCH  18  19
ATOM     19  C   UNL     1       2.357   7.774  -6.742  0.00  0.00    +0.178 C 
BRANCH  19  20
ATOM     20  O   UNL     1       2.864   6.609  -6.087  0.00  0.00    -0.381 OA
ATOM     21  C   UNL     1       4.205   6.275  -6.449  0.00  0.00    +0.194 C 
ENDBRANCH  19  20
ENDBRANCH  18  19
ENDBRANCH  16  18
ENDBRANCH   6  14
ENDBRANCH   3   5
BRANCH   1  22
ATOM     22  C   UNL     1      -0.764   4.306  -1.139  0.00  0.00    +0.020 C 
BRANCH  22  27
ATOM     23  C   UNL     1      -1.249   2.226   0.020  0.00  0.00    -0.020 C 
ATOM     24  C   UNL     1      -2.132   1.867   1.229  0.00  0.00    -0.011 C 
ATOM     25  C   UNL     1      -2.247   3.173   2.048  0.00  0.00    -0.020 C 
ATOM     26  C   UNL     1      -1.929   4.268   0.999  0.00  0.00    -0.077 C 
ATOM     27  N   UNL     1      -0.878   3.632   0.190  0.00  0.00    +0.391 N 
ATOM     28  H   UNL     1       0.022   3.696   0.678  0.00  0.00    -0.080 HD
BRANCH  23  34
ATOM     29  C   UNL     1      -1.177  -0.874   0.009  0.00  0.00    +0.148 C 
ATOM     30  N   UNL     1       0.002  -0.004   0.002  0.00  0.00    -0.355 N 
ATOM     31  C   UNL     1       1.299  -0.424  -0.013  0.00  0.00    +0.085 A 
ATOM     32  C   UNL     1       2.095   0.664  -0.014  0.00  0.00    +0.019 A 
ATOM     33  C   UNL     1       1.259   1.798  -0.000  0.00  0.00    +0.021 A 
ATOM     34  C   UNL     1      -0.016   1.359   0.009  0.00  0.00    +0.005 A 
ENDBRANCH  23  34
ENDBRANCH  22  27
ENDBRANCH   1  22
TORSDOF 8
