REMARK  Name = ZINC20422374
REMARK  6 active torsions:
REMARK  status: ('A' for Active; 'I' for Inactive)
REMARK    1  A    between atoms: C_1  and  C_2
REMARK    2  A    between atoms: C_2  and  N_3
REMARK    3  A    between atoms: C_7  and  C_9
REMARK    4  A    between atoms: C_9  and  C_11
REMARK    5  A    between atoms: C_9  and  S_12
REMARK    6  A    between atoms: S_12  and  C_13
REMARK                            x       y       z     vdW  Elec       q    Type
REMARK                         _______ _______ _______ _____ _____    ______ ____
ROOT
ATOM      1  C   UNL     1       4.998   0.885  -0.041  0.00  0.00    +0.135 C 
ATOM      2  C   UNL     1       4.795   1.644   1.272  0.00  0.00    +0.029 C 
ENDROOT
BRANCH   1   7
ATOM      3  N   UNL     1       9.546   1.972  -1.155  0.00  0.00    -0.299 N 
ATOM      4  C   UNL     1       8.646   1.063  -0.730  0.00  0.00    +0.306 C 
ATOM      5  O   UNL     1       9.003  -0.066  -0.459  0.00  0.00    -0.252 OA
ATOM      6  N   UNL     1       7.348   1.408  -0.605  0.00  0.00    -0.239 N 
ATOM      7  C   UNL     1       6.448   0.500  -0.180  0.00  0.00    +0.233 C 
ATOM      8  O   UNL     1       6.804  -0.627   0.090  0.00  0.00    -0.274 OA
ATOM      9  H   UNL     1       9.223   2.994  -1.400  0.00  0.00    +0.150 HD
ATOM     10  H   UNL     1       7.025   2.430  -0.850  0.00  0.00    +0.159 HD
BRANCH   3  12
ATOM     11  C   UNL     1      11.758   2.802  -1.786  0.00  0.00    +0.024 C 
ATOM     12  C   UNL     1      10.956   1.597  -1.290  0.00  0.00    +0.102 C 
ENDBRANCH   3  12
ENDBRANCH   1   7
BRANCH   1  13
ATOM     13  S   UNL     1       3.972  -0.611  -0.039  0.00  0.00    -0.104 S 
BRANCH  13  14
ATOM     14  C   UNL     1       2.321   0.004  -0.020  0.00  0.00    +0.067 A 
ATOM     15  C   UNL     1       1.141  -0.675  -0.013  0.00  0.00    +0.135 A 
ATOM     16  N   UNL     1       0.002  -0.004   0.002  0.00  0.00    -0.232 NA
ATOM     17  C   UNL     1      -0.016   1.316   0.009  0.00  0.00    +0.156 A 
ATOM     18  S   UNL     1       1.732   1.692  -0.005  0.00  0.00    -0.046 S 
ATOM     19  N   UNL     1      -1.103   2.182   0.019  0.00  0.00    -0.337 N 
ATOM     20  H   UNL     1      -0.939   3.270   0.025  0.00  0.00    +0.144 HD
ATOM     21  H   UNL     1      -2.126   1.779   0.022  0.00  0.00    +0.144 HD
ENDBRANCH  13  14
ENDBRANCH   1  13
TORSDOF 4
