REMARK  Name = ZINC20191351
REMARK  8 active torsions:
REMARK  status: ('A' for Active; 'I' for Inactive)
REMARK    1  A    between atoms: C_1  and  C_2
REMARK    2  A    between atoms: C_2  and  C_3
REMARK    3  A    between atoms: C_7  and  N_23
REMARK    4  A    between atoms: C_12  and  N_13
REMARK    5  A    between atoms: N_13  and  C_14
REMARK    6  A    between atoms: N_13  and  C_16
REMARK    7  A    between atoms: C_14  and  C_15
REMARK    8  A    between atoms: C_16  and  C_17
REMARK                            x       y       z     vdW  Elec       q    Type
REMARK                         _______ _______ _______ _____ _____    ______ ____
ROOT
ATOM      1  C   UNL     1       1.139   1.889   0.301  0.00  0.00    -0.009 A 
ATOM      2  C   UNL     1       2.291   1.219   0.014  0.00  0.00    +0.017 A 
ATOM      3  C   UNL     1       2.193  -0.033  -0.628  0.00  0.00    +0.000 A 
ATOM      4  C   UNL     1       3.340  -0.775  -0.951  0.00  0.00    +0.032 A 
ATOM      5  C   UNL     1       3.204  -1.994  -1.578  0.00  0.00    +0.025 A 
ATOM      6  C   UNL     1       1.936  -2.494  -1.894  0.00  0.00    +0.025 A 
ATOM      7  C   UNL     1       0.812  -1.792  -1.591  0.00  0.00    +0.028 A 
ATOM      8  C   UNL     1       0.913  -0.545  -0.951  0.00  0.00    +0.048 A 
ATOM      9  N   UNL     1      -0.183   0.160  -0.644  0.00  0.00    -0.343 N 
ATOM     10  C   UNL     1      -0.099   1.329  -0.044  0.00  0.00    +0.103 A 
ATOM     11  H   UNL     1      -1.179  -0.236  -0.893  0.00  0.00    +0.167 HD
ENDROOT
BRANCH   5  12
ATOM     12  N   UNL     1       4.343  -2.738  -1.901  0.00  0.00    -0.358 N 
ATOM     13  H   UNL     1       4.240  -3.712  -2.402  0.00  0.00    +0.142 HD
ATOM     14  H   UNL     1       5.342  -2.349  -1.655  0.00  0.00    +0.142 HD
ENDBRANCH   5  12
BRANCH   1  16
ATOM     15  C   UNL     1       0.999   3.041   2.492  0.00  0.00    +0.009 C 
ATOM     16  C   UNL     1       1.197   3.229   0.987  0.00  0.00    +0.035 C 
ENDBRANCH   1  16
BRANCH  10  17
ATOM     17  N   UNL     1      -1.263   2.025   0.249  0.00  0.00    -0.312 N 
BRANCH  17  18
ATOM     18  C   UNL     1      -2.209   1.181   0.991  0.00  0.00    +0.103 C 
ATOM     19  C   UNL     1      -1.744   1.049   2.443  0.00  0.00    +0.024 C 
ENDBRANCH  17  18
BRANCH  17  20
ATOM     20  C   UNL     1      -1.879   2.558  -0.973  0.00  0.00    +0.141 C 
BRANCH  20  21
ATOM     21  C   UNL     1      -2.991   3.506  -0.603  0.00  0.00    -0.030 A 
ATOM     22  C   UNL     1      -4.280   3.031  -0.443  0.00  0.00    +0.005 A 
ATOM     23  C   UNL     1      -5.298   3.900  -0.099  0.00  0.00    +0.000 A 
ATOM     24  C   UNL     1      -5.031   5.244   0.076  0.00  0.00    +0.000 A 
ATOM     25  C   UNL     1      -3.744   5.720  -0.089  0.00  0.00    +0.000 A 
ATOM     26  C   UNL     1      -2.724   4.851  -0.428  0.00  0.00    +0.005 A 
ENDBRANCH  20  21
ENDBRANCH  17  20
ENDBRANCH  10  17
TORSDOF 6
