REMARK  Name = ZINC58993266
REMARK  7 active torsions:
REMARK  status: ('A' for Active; 'I' for Inactive)
REMARK    1  A    between atoms: C_3  and  N_27
REMARK    2  A    between atoms: C_6  and  C_7
REMARK    3  A    between atoms: N_8  and  N_9
REMARK    4  A    between atoms: C_12  and  S_15
REMARK    5  A    between atoms: S_15  and  C_16
REMARK    6  A    between atoms: C_16  and  C_17
REMARK    7  A    between atoms: N_19  and  C_20
REMARK                            x       y       z     vdW  Elec       q    Type
REMARK                         _______ _______ _______ _____ _____    ______ ____
ROOT
ATOM      1  N   UNL     1      -2.444  -2.781   0.037  0.00  0.00    -0.205 N 
ATOM      2  C   UNL     1      -2.421  -4.163   0.026  0.00  0.00    +0.232 A 
ATOM      3  N   UNL     1      -1.344  -4.920   0.008  0.00  0.00    -0.186 NA
ATOM      4  C   UNL     1      -1.699  -6.209   0.002  0.00  0.00    +0.211 A 
ATOM      5  N   UNL     1      -3.008  -6.290   0.017  0.00  0.00    -0.144 NA
ATOM      6  N   UNL     1      -3.500  -4.975   0.038  0.00  0.00    -0.245 N 
ATOM      7  H   UNL     1      -3.292  -2.309   0.055  0.00  0.00    +0.177 HD
ATOM      8  H   UNL     1      -4.431  -4.703   0.056  0.00  0.00    +0.192 HD
ENDROOT
BRANCH   1  10
ATOM      9  C   UNL     1      -1.264  -0.762   0.032  0.00  0.00    +0.138 C 
ATOM     10  N   UNL     1      -1.242  -2.060   0.022  0.00  0.00    -0.188 NA
BRANCH   9  16
ATOM     11  C   UNL     1      -0.018   1.393   0.027  0.00  0.00    +0.012 A 
ATOM     12  C   UNL     1       1.169   2.096   0.012  0.00  0.00    +0.033 A 
ATOM     13  C   UNL     1       2.376   1.420  -0.014  0.00  0.00    +0.126 A 
ATOM     14  C   UNL     1       2.403   0.037  -0.024  0.00  0.00    +0.033 A 
ATOM     15  C   UNL     1       1.224  -0.679  -0.010  0.00  0.00    +0.012 A 
ATOM     16  C   UNL     1       0.001  -0.004   0.016  0.00  0.00    -0.005 A 
BRANCH  13  17
ATOM     17  N   UNL     1       3.646   2.182  -0.030  0.00  0.00    +0.056 N 
ATOM     18  O   UNL     1       3.626   3.390  -0.021  0.00  0.00    -0.126 OA
ATOM     19  O   UNL     1       4.703   1.595  -0.052  0.00  0.00    -0.126 OA
ENDBRANCH  13  17
ENDBRANCH   9  16
ENDBRANCH   1  10
BRANCH   4  20
ATOM     20  S   UNL     1      -0.589  -7.577  -0.021  0.00  0.00    -0.075 S 
BRANCH  20  21
ATOM     21  C   UNL     1      -1.679  -9.027  -0.019  0.00  0.00    +0.173 C 
BRANCH  21  22
ATOM     22  C   UNL     1      -0.845 -10.282  -0.038  0.00  0.00    +0.227 C 
ATOM     23  O   UNL     1       0.365 -10.206  -0.052  0.00  0.00    -0.275 OA
ATOM     24  N   UNL     1      -1.444 -11.489  -0.041  0.00  0.00    -0.285 N 
ATOM     25  H   UNL     1      -2.409 -11.552   0.038  0.00  0.00    +0.155 HD
BRANCH  24  26
ATOM     26  C   UNL     1      -0.674 -12.652  -0.156  0.00  0.00    +0.033 A 
ATOM     27  C   UNL     1      -1.165 -13.744  -0.861  0.00  0.00    +0.024 A 
ATOM     28  C   UNL     1      -0.403 -14.890  -0.974  0.00  0.00    +0.017 A 
ATOM     29  C   UNL     1       0.848 -14.952  -0.385  0.00  0.00    +0.018 A 
ATOM     30  C   UNL     1       1.339 -13.866   0.318  0.00  0.00    +0.017 A 
ATOM     31  C   UNL     1       0.583 -12.715   0.429  0.00  0.00    +0.024 A 
ATOM     32 BR   UNL     1       1.888 -16.523  -0.541  0.00  0.00    -0.050 Br
ENDBRANCH  24  26
ENDBRANCH  21  22
ENDBRANCH  20  21
ENDBRANCH   4  20
TORSDOF 7
