REMARK  Name = ZINC67624750
REMARK  13 active torsions:
REMARK  status: ('A' for Active; 'I' for Inactive)
REMARK    1  A    between atoms: C_1  and  C_2
REMARK    2  A    between atoms: C_2  and  C_3
REMARK    3  A    between atoms: C_2  and  C_4
REMARK    4  A    between atoms: C_4  and  C_5
REMARK    5  A    between atoms: C_5  and  C_7
REMARK    6  A    between atoms: C_5  and  N_11
REMARK    7  A    between atoms: C_7  and  N_8
REMARK    8  A    between atoms: N_8  and  C_9
REMARK    9  A    between atoms: N_8  and  C_10
REMARK   10  A    between atoms: N_14  and  N_15
REMARK   11  A    between atoms: C_16  and  C_18
REMARK   12  A    between atoms: C_23  and  O_24
REMARK   13  A    between atoms: O_24  and  C_25
REMARK                            x       y       z     vdW  Elec       q    Type
REMARK                         _______ _______ _______ _____ _____    ______ ____
ROOT
ATOM      1  N   UNL     1       2.022   1.498  -1.135  0.00  0.00    -0.297 N 
ATOM      2  C   UNL     1       1.870   2.082   0.071  0.00  0.00    +0.316 C 
ATOM      3  O   UNL     1       1.835   1.399   1.076  0.00  0.00    -0.251 OA
ATOM      4  N   UNL     1       1.756   3.421   0.161  0.00  0.00    -0.218 N 
ATOM      5  H   UNL     1       2.121   2.045  -1.929  0.00  0.00    +0.150 HD
ATOM      6  H   UNL     1       1.646   3.841   1.029  0.00  0.00    +0.174 HD
ENDROOT
BRANCH   4   7
ATOM      7  N   UNL     1       1.797   4.208  -0.998  0.00  0.00    -0.229 N 
ATOM      8  C   UNL     1       1.683   5.548  -0.907  0.00  0.00    +0.264 C 
ATOM      9  O   UNL     1       1.545   6.074   0.180  0.00  0.00    -0.269 OA
ATOM     10  H   UNL     1       1.907   3.788  -1.865  0.00  0.00    +0.173 HD
BRANCH   8  11
ATOM     11  C   UNL     1       1.726   6.376  -2.127  0.00  0.00    +0.080 A 
ATOM     12  C   UNL     1       1.878   5.775  -3.379  0.00  0.00    +0.017 A 
ATOM     13  C   UNL     1       1.916   6.553  -4.515  0.00  0.00    +0.001 A 
ATOM     14  C   UNL     1       1.805   7.931  -4.422  0.00  0.00    +0.004 A 
ATOM     15  C   UNL     1       1.654   8.538  -3.192  0.00  0.00    +0.046 A 
ATOM     16  C   UNL     1       1.608   7.769  -2.038  0.00  0.00    +0.132 A 
BRANCH  16  17
ATOM     17  O   UNL     1       1.454   8.364  -0.829  0.00  0.00    -0.494 OA
ATOM     18  C   UNL     1       1.340   9.788  -0.816  0.00  0.00    +0.277 C 
ENDBRANCH  16  17
ENDBRANCH   8  11
ENDBRANCH   4   7
BRANCH   1  19
ATOM     19  C   UNL     1       2.039   0.037  -1.244  0.00  0.00    +0.058 C 
BRANCH  19  20
ATOM     20  C   UNL     1       0.603  -0.490  -1.255  0.00  0.00    +0.023 C 
BRANCH  20  22
ATOM     21  C   UNL     1       1.208  -2.492   0.111  0.00  0.00    +0.007 C 
ATOM     22  C   UNL     1       0.620  -2.019  -1.220  0.00  0.00    -0.016 C 
ATOM     23  C   UNL     1      -0.808  -2.549  -1.363  0.00  0.00    +0.007 C 
ENDBRANCH  20  22
ENDBRANCH  19  20
BRANCH  19  24
ATOM     24  C   UNL     1       2.741  -0.369  -2.542  0.00  0.00    -0.057 C 
BRANCH  24  25
ATOM     25  N   UNL     1       4.078   0.237  -2.585  0.00  0.00    +0.377 N 
ATOM     26  C   UNL     1       4.904  -0.321  -1.506  0.00  0.00    -0.097 C 
ATOM     27  C   UNL     1       4.706  -0.053  -3.882  0.00  0.00    -0.097 C 
ATOM     28  H   UNL     1       3.999   1.236  -2.466  0.00  0.00    -0.083 HD
ENDBRANCH  24  25
ENDBRANCH  19  24
ENDBRANCH   1  19
TORSDOF 8
