REMARK  Name = ZINC51144222
REMARK  8 active torsions:
REMARK  status: ('A' for Active; 'I' for Inactive)
REMARK    1  A    between atoms: C_1  and  N_2
REMARK    2  A    between atoms: N_2  and  C_3
REMARK    3  A    between atoms: N_2  and  C_4
REMARK    4  A    between atoms: N_7  and  C_10
REMARK    5  A    between atoms: C_10  and  C_11
REMARK    6  A    between atoms: C_13  and  N_19
REMARK    7  A    between atoms: C_16  and  N_17
REMARK    8  A    between atoms: N_17  and  N_18
REMARK                            x       y       z     vdW  Elec       q    Type
REMARK                         _______ _______ _______ _____ _____    ______ ____
ROOT
ATOM      1  C   UNL     1      -5.348  -2.294  -2.771  0.00  0.00    -0.009 A 
ATOM      2  C   UNL     1      -6.254  -1.260  -2.902  0.00  0.00    +0.039 A 
ATOM      3  C   UNL     1      -6.760  -0.936  -4.147  0.00  0.00    +0.127 A 
ATOM      4  C   UNL     1      -6.362  -1.646  -5.265  0.00  0.00    +0.034 A 
ATOM      5  C   UNL     1      -5.457  -2.682  -5.141  0.00  0.00    +0.027 A 
ATOM      6  C   UNL     1      -4.941  -3.006  -3.892  0.00  0.00    +0.046 A 
ENDROOT
BRANCH   3   7
ATOM      7  N   UNL     1      -7.731   0.173  -4.284  0.00  0.00    +0.056 N 
ATOM      8  O   UNL     1      -8.080   0.794  -3.308  0.00  0.00    -0.126 OA
ATOM      9  O   UNL     1      -8.175   0.457  -5.372  0.00  0.00    -0.126 OA
ENDBRANCH   3   7
BRANCH   6  10
ATOM     10  N   UNL     1      -4.021  -4.049  -3.764  0.00  0.00    -0.283 N 
ATOM     11  H   UNL     1      -3.665  -4.277  -2.891  0.00  0.00    +0.166 HD
BRANCH  10  12
ATOM     12  N   UNL     1      -3.623  -4.748  -4.867  0.00  0.00    -0.257 NA
ATOM     13  H   UNL     1      -2.959  -5.467  -4.620  0.00  0.00    +0.140 HD
ATOM     14  H   UNL     1      -4.416  -5.139  -5.354  0.00  0.00    +0.140 HD
ENDBRANCH  10  12
ENDBRANCH   6  10
BRANCH   1  15
ATOM     15  C   UNL     1      -4.796  -2.646  -1.413  0.00  0.00    +0.121 C 
BRANCH  15  19
ATOM     16  C   UNL     1      -1.376  -0.512   0.012  0.00  0.00    -0.067 C 
ATOM     17  C   UNL     1      -1.357  -2.043  -0.004  0.00  0.00    +0.000 C 
ATOM     18  C   UNL     1      -2.794  -2.566  -0.054  0.00  0.00    +0.083 C 
ATOM     19  N   UNL     1      -3.461  -2.054  -1.259  0.00  0.00    -0.298 NA
ATOM     20  C   UNL     1      -3.533  -0.588  -1.243  0.00  0.00    +0.083 C 
ATOM     21  C   UNL     1      -2.118  -0.006  -1.228  0.00  0.00    +0.000 C 
BRANCH  16  23
ATOM     22  C   UNL     1      -0.018   1.465   0.010  0.00  0.00    -0.096 C 
ATOM     23  N   UNL     1       0.002  -0.004   0.002  0.00  0.00    +0.378 N 
ATOM     24  C   UNL     1       0.713  -0.491   1.192  0.00  0.00    -0.096 C 
ATOM     25  H   UNL     1       0.474  -0.330  -0.828  0.00  0.00    -0.082 HD
ENDBRANCH  16  23
ENDBRANCH  15  19
ENDBRANCH   1  15
TORSDOF 6
