REMARK  Name = ZINC65407626
REMARK  5 active torsions:
REMARK  status: ('A' for Active; 'I' for Inactive)
REMARK    1  A    between atoms: C_1  and  C_2
REMARK    2  A    between atoms: C_2  and  C_3
REMARK    3  A    between atoms: C_2  and  C_4
REMARK    4  A    between atoms: C_7  and  C_20
REMARK    5  A    between atoms: N_9  and  C_11
REMARK                            x       y       z     vdW  Elec       q    Type
REMARK                         _______ _______ _______ _____ _____    ______ ____
ROOT
ATOM      1  C   UNL     1       0.579  -0.924   1.076  0.00  0.00    +0.021 C 
ATOM      2  N   UNL     1       0.153  -0.208   2.310  0.00  0.00    +0.407 N 
ATOM      3  C   UNL     1       0.772  -1.022   3.385  0.00  0.00    +0.088 C 
ATOM      4  N   UNL     1       1.024  -2.348   2.800  0.00  0.00    -0.276 N 
ATOM      5  N   UNL     1       0.563  -2.346   1.503  0.00  0.00    -0.255 NA
ATOM      6  H   UNL     1       0.515   0.734   2.320  0.00  0.00    -0.080 HD
ATOM      7  H   UNL     1       1.149  -2.909   0.906  0.00  0.00    +0.142 HD
ATOM      8  H   UNL     1      -0.852  -0.208   2.395  0.00  0.00    -0.080 HD
ENDROOT
BRANCH   4   9
ATOM      9  C   UNL     1       1.634  -3.428   3.449  0.00  0.00    +0.047 A 
ATOM     10  C   UNL     1       1.675  -4.673   2.836  0.00  0.00    +0.028 A 
ATOM     11  C   UNL     1       2.276  -5.740   3.475  0.00  0.00    +0.051 A 
ATOM     12  C   UNL     1       2.841  -5.571   4.729  0.00  0.00    +0.166 A 
ATOM     13  C   UNL     1       2.802  -4.323   5.346  0.00  0.00    +0.168 A 
ATOM     14  C   UNL     1       2.203  -3.253   4.702  0.00  0.00    +0.074 A 
ATOM     15  O   UNL     1       3.418  -4.417   6.561  0.00  0.00    -0.453 OA
ATOM     16  C   UNL     1       3.473  -5.825   6.856  0.00  0.00    +0.466 C 
ATOM     17  O   UNL     1       3.482  -6.447   5.558  0.00  0.00    -0.453 OA
ENDBRANCH   4   9
BRANCH   3  18
ATOM     18  C   UNL     1      -0.171  -1.140   4.554  0.00  0.00    +0.066 A 
ATOM     19  C   UNL     1      -0.866  -0.006   5.007  0.00  0.00    +0.030 A 
ATOM     20  C   UNL     1      -1.714  -0.147   6.069  0.00  0.00    +0.073 A 
ATOM     21  C   UNL     1      -1.838  -1.429   6.646  0.00  0.00    +0.265 A 
ATOM     22  O   UNL     1      -2.583  -1.608   7.597  0.00  0.00    -0.266 OA
ATOM     23  N   UNL     1      -1.127  -2.454   6.137  0.00  0.00    -0.243 N 
ATOM     24  N   UNL     1      -0.340  -2.295   5.135  0.00  0.00    -0.176 NA
ATOM     25  H   UNL     1      -1.213  -3.334   6.536  0.00  0.00    +0.192 HD
ENDBRANCH   3  18
BRANCH   1  27
ATOM     26  C   UNL     1      -0.451   0.803  -0.408  0.00  0.00    +0.007 C 
ATOM     27  C   UNL     1      -0.418  -0.687  -0.061  0.00  0.00    -0.016 C 
ATOM     28  C   UNL     1       0.012  -1.488  -1.292  0.00  0.00    +0.007 C 
ENDBRANCH   1  27
TORSDOF 3
