REMARK  Name = ZINC39665483
REMARK  7 active torsions:
REMARK  status: ('A' for Active; 'I' for Inactive)
REMARK    1  A    between atoms: C_1  and  C_2
REMARK    2  A    between atoms: C_2  and  C_4
REMARK    3  A    between atoms: C_2  and  O_30
REMARK    4  A    between atoms: C_4  and  N_5
REMARK    5  A    between atoms: C_6  and  C_8
REMARK    6  A    between atoms: C_19  and  C_21
REMARK    7  A    between atoms: O_30  and  C_31
REMARK                            x       y       z     vdW  Elec       q    Type
REMARK                         _______ _______ _______ _____ _____    ______ ____
ROOT
ATOM      1  C   UNL     1       0.698  -4.272  -1.909  0.00  0.00    +0.100 C 
ATOM      2  C   UNL     1       1.241  -4.811  -0.566  0.00  0.00    +0.121 C 
ATOM      3  N   UNL     1       1.798  -6.144  -0.894  0.00  0.00    -0.296 N 
ATOM      4  C   UNL     1       2.449  -5.957  -2.213  0.00  0.00    +0.115 C 
ATOM      5  C   UNL     1       1.494  -5.026  -2.987  0.00  0.00    -0.004 C 
ATOM      6  C   UNL     1       2.291  -4.044  -3.839  0.00  0.00    -0.010 C 
ATOM      7  C   UNL     1       3.028  -4.811  -4.941  0.00  0.00    -0.082 C 
ATOM      8  N   UNL     1       2.057  -5.533  -5.771  0.00  0.00    +0.379 N 
ATOM      9  C   UNL     1       1.360  -6.541  -4.963  0.00  0.00    -0.082 C 
ATOM     10  C   UNL     1       0.552  -5.847  -3.863  0.00  0.00    -0.010 C 
ATOM     11  C   UNL     1       1.728  -7.272  -0.161  0.00  0.00    +0.252 C 
ATOM     12  O   UNL     1       2.240  -8.296  -0.570  0.00  0.00    -0.270 OA
ATOM     13  H   UNL     1       1.385  -4.880  -6.145  0.00  0.00    -0.086 HD
ATOM     14  H   UNL     1       2.539  -5.988  -6.532  0.00  0.00    -0.086 HD
ENDROOT
BRANCH  11  15
ATOM     15  C   UNL     1       1.029  -7.265   1.139  0.00  0.00    +0.108 A 
ATOM     16  C   UNL     1      -0.336  -7.562   1.206  0.00  0.00    +0.138 A 
ATOM     17  C   UNL     1      -0.983  -7.554   2.427  0.00  0.00    +0.041 A 
ATOM     18  C   UNL     1      -0.285  -7.251   3.582  0.00  0.00    +0.026 A 
ATOM     19  C   UNL     1       1.066  -6.955   3.526  0.00  0.00    +0.077 A 
ATOM     20  C   UNL     1       1.730  -6.965   2.312  0.00  0.00    +0.156 A 
ATOM     21  F   UNL     1       3.050  -6.682   2.259  0.00  0.00    -0.203 F 
ATOM     22 CL   UNL     1       1.931  -6.577   4.982  0.00  0.00    -0.081 Cl
ATOM     23  F   UNL     1      -1.021  -7.857   0.079  0.00  0.00    -0.205 F 
ENDBRANCH  11  15
BRANCH   1  25
ATOM     24  N   UNL     1       0.129  -2.026  -2.773  0.00  0.00    -0.312 N 
ATOM     25  C   UNL     1       0.942  -2.789  -2.017  0.00  0.00    +0.218 C 
ATOM     26  O   UNL     1       1.871  -2.283  -1.424  0.00  0.00    -0.275 OA
ATOM     27  H   UNL     1      -0.614  -2.431  -3.247  0.00  0.00    +0.149 HD
BRANCH  24  28
ATOM     28  C   UNL     1       0.366  -0.584  -2.878  0.00  0.00    +0.148 C 
BRANCH  28  30
ATOM     29  C   UNL     1      -0.372   1.523  -3.999  0.00  0.00    +0.053 C 
ATOM     30  C   UNL     1      -0.692   0.042  -3.789  0.00  0.00    +0.187 C 
BRANCH  30  31
ATOM     31  O   UNL     1      -1.979  -0.086  -3.182  0.00  0.00    -0.488 OA
BRANCH  31  32
ATOM     32  C   UNL     1      -3.057  -0.064  -4.010  0.00  0.00    +0.121 A 
ATOM     33  C   UNL     1      -2.888   0.184  -5.364  0.00  0.00    +0.045 A 
ATOM     34  C   UNL     1      -3.985   0.205  -6.203  0.00  0.00    +0.004 A 
ATOM     35  C   UNL     1      -5.250  -0.021  -5.695  0.00  0.00    +0.000 A 
ATOM     36  C   UNL     1      -5.421  -0.269  -4.345  0.00  0.00    +0.004 A 
ATOM     37  C   UNL     1      -4.327  -0.297  -3.503  0.00  0.00    +0.045 A 
ENDBRANCH  31  32
ENDBRANCH  30  31
ENDBRANCH  28  30
ENDBRANCH  24  28
ENDBRANCH   1  25
TORSDOF 6
