REMARK  Name = ZINC31773389
REMARK  5 active torsions:
REMARK  status: ('A' for Active; 'I' for Inactive)
REMARK    1  A    between atoms: C_1  and  C_2
REMARK    2  A    between atoms: C_5  and  N_19
REMARK    3  A    between atoms: C_7  and  N_8
REMARK    4  A    between atoms: N_8  and  C_9
REMARK    5  A    between atoms: C_16  and  O_18
REMARK                            x       y       z     vdW  Elec       q    Type
REMARK                         _______ _______ _______ _____ _____    ______ ____
ROOT
ATOM      1  N   UNL     1       1.163   3.483   0.009  0.00  0.00    -0.337 N 
ATOM      2  H   UNL     1       2.109   4.043   0.003  0.00  0.00    +0.147 HD
ENDROOT
BRANCH   1   9
ATOM      3  C   UNL     1       3.686   2.168  -0.022  0.00  0.00    +0.045 C 
ATOM      4  C   UNL     1       2.387   1.403  -0.013  0.00  0.00    -0.029 A 
ATOM      5  C   UNL     1       2.399   0.022  -0.021  0.00  0.00    +0.007 A 
ATOM      6  C   UNL     1       1.208  -0.681  -0.013  0.00  0.00    +0.033 A 
ATOM      7  C   UNL     1       0.002  -0.004   0.002  0.00  0.00    +0.128 A 
ATOM      8  C   UNL     1      -0.017   1.377   0.010  0.00  0.00    +0.056 A 
ATOM      9  C   UNL     1       1.178   2.086   0.002  0.00  0.00    +0.033 A 
BRANCH   7  10
ATOM     10  N   UNL     1      -1.270  -0.761   0.011  0.00  0.00    +0.056 N 
ATOM     11  O   UNL     1      -2.333  -0.165   0.024  0.00  0.00    -0.126 OA
ATOM     12  O   UNL     1      -1.254  -1.978   0.004  0.00  0.00    -0.126 OA
ENDBRANCH   7  10
ENDBRANCH   1   9
BRANCH   1  13
ATOM     13  C   UNL     1      -0.114   4.201   0.025  0.00  0.00    +0.121 C 
ATOM     14  C   UNL     1      -0.593   4.367   1.487  0.00  0.00    +0.190 C 
ATOM     15  S   UNL     1       0.110   6.000   1.959  0.00  0.00    -0.027 S 
ATOM     16  O   UNL     1      -0.956   6.896   2.245  0.00  0.00    -0.174 OA
ATOM     17  O   UNL     1       1.134   5.802   2.924  0.00  0.00    -0.174 OA
ATOM     18  C   UNL     1       0.879   6.477   0.354  0.00  0.00    +0.199 C 
ATOM     19  C   UNL     1       0.069   5.582  -0.627  0.00  0.00    +0.157 C 
BRANCH  19  20
ATOM     20  O   UNL     1       0.784   5.444  -1.857  0.00  0.00    -0.388 OA
ATOM     21  H   UNL     1       1.009   6.333  -2.465  0.00  0.00    +0.210 HD
ENDBRANCH  19  20
ENDBRANCH   1  13
TORSDOF 4
