REMARK  Name = ZINC42332483
REMARK  6 active torsions:
REMARK  status: ('A' for Active; 'I' for Inactive)
REMARK    1  A    between atoms: C_1  and  C_2
REMARK    2  A    between atoms: C_2  and  C_3
REMARK    3  A    between atoms: C_7  and  C_21
REMARK    4  A    between atoms: N_10  and  C_11
REMARK    5  A    between atoms: C_11  and  C_19
REMARK    6  A    between atoms: C_19  and  N_20
REMARK                            x       y       z     vdW  Elec       q    Type
REMARK                         _______ _______ _______ _____ _____    ______ ____
ROOT
ATOM      1  C   UNL     1      -2.103   2.019  -1.537  0.00  0.00    +0.010 C 
ATOM      2  C   UNL     1      -2.710   3.149  -0.710  0.00  0.00    +0.043 C 
ATOM      3  C   UNL     1      -1.889   4.428  -0.889  0.00  0.00    +0.167 C 
ATOM      4  S   UNL     1      -1.974   4.942  -2.630  0.00  0.00    -0.031 S 
ATOM      5  O   UNL     1      -1.000   5.952  -2.852  0.00  0.00    -0.174 OA
ATOM      6  O   UNL     1      -3.332   5.206  -2.957  0.00  0.00    -0.174 OA
ATOM      7  C   UNL     1      -1.451   3.433  -3.497  0.00  0.00    +0.167 C 
ATOM      8  C   UNL     1      -2.321   2.265  -3.027  0.00  0.00    +0.043 C 
ENDROOT
BRANCH   1  14
ATOM      9  C   UNL     1      -3.944   0.503  -1.958  0.00  0.00    +0.083 C 
ATOM     10  C   UNL     1      -4.603  -0.798  -1.492  0.00  0.00    +0.179 C 
ATOM     11  O   UNL     1      -3.659  -1.868  -1.595  0.00  0.00    -0.374 OA
ATOM     12  C   UNL     1      -2.470  -1.662  -0.827  0.00  0.00    +0.129 C 
ATOM     13  C   UNL     1      -1.790  -0.370  -1.286  0.00  0.00    +0.116 C 
ATOM     14  N   UNL     1      -2.735   0.749  -1.158  0.00  0.00    -0.291 NA
ATOM     15  C   UNL     1      -1.519  -2.843  -1.032  0.00  0.00    +0.039 C 
BRANCH   9  17
ATOM     16  C   UNL     1      -5.287   1.797  -0.295  0.00  0.00    +0.005 C 
ATOM     17  C   UNL     1      -4.923   1.665  -1.776  0.00  0.00    +0.018 C 
ENDBRANCH   9  17
ENDBRANCH   1  14
BRANCH   1  18
ATOM     18  C   UNL     1      -0.602   1.939  -1.254  0.00  0.00    -0.064 C 
BRANCH  18  19
ATOM     19  N   UNL     1       0.079   1.310  -2.393  0.00  0.00    +0.379 N 
ATOM     20  H   UNL     1      -0.353   1.615  -3.253  0.00  0.00    -0.090 HD
ATOM     21  H   UNL     1       1.052   1.576  -2.393  0.00  0.00    -0.090 HD
ATOM     22  H   UNL     1       0.004   0.306  -2.317  0.00  0.00    -0.090 HD
ENDBRANCH  18  19
ENDBRANCH   1  18
TORSDOF 4
