REMARK  Name = ZINC04275265
REMARK  8 active torsions:
REMARK  status: ('A' for Active; 'I' for Inactive)
REMARK    1  A    between atoms: C_1  and  C_2
REMARK    2  A    between atoms: C_2  and  C_29
REMARK    3  A    between atoms: C_5  and  C_26
REMARK    4  A    between atoms: C_6  and  N_12
REMARK    5  A    between atoms: C_9  and  C_10
REMARK    6  A    between atoms: C_9  and  C_11
REMARK    7  A    between atoms: C_13  and  C_15
REMARK    8  A    between atoms: C_15  and  C_16
REMARK                            x       y       z     vdW  Elec       q    Type
REMARK                         _______ _______ _______ _____ _____    ______ ____
ROOT
ATOM      1  C   UNL     1      -5.280   6.103   4.665  0.00  0.00    -0.010 C 
ATOM      2  C   UNL     1      -4.145   6.407   5.647  0.00  0.00    -0.069 C 
ATOM      3  C   UNL     1      -2.841   6.608   4.866  0.00  0.00    +0.024 C 
ATOM      4  C   UNL     1      -2.462   5.265   4.255  0.00  0.00    -0.026 A 
ATOM      5  C   UNL     1      -1.750   5.069   3.011  0.00  0.00    +0.068 A 
ATOM      6  C   UNL     1      -1.512   3.758   2.613  0.00  0.00    +0.084 A 
ATOM      7  S   UNL     1      -2.220   2.821   3.887  0.00  0.00    -0.079 S 
ATOM      8  C   UNL     1      -2.814   4.135   4.912  0.00  0.00    -0.016 A 
ATOM      9  C   UNL     1      -3.537   4.053   6.216  0.00  0.00    -0.041 C 
ATOM     10  C   UNL     1      -4.704   3.063   6.090  0.00  0.00    -0.005 C 
ATOM     11  C   UNL     1      -2.563   3.506   7.277  0.00  0.00    -0.005 C 
ATOM     12  C   UNL     1      -4.478   7.731   6.359  0.00  0.00    -0.010 C 
ATOM     13  N   UNL     1      -4.039   5.370   6.705  0.00  0.00    +0.389 N 
ATOM     14  H   UNL     1      -4.971   5.229   7.113  0.00  0.00    -0.084 HD
ATOM     15  H   UNL     1      -3.396   5.712   7.429  0.00  0.00    -0.084 HD
ENDROOT
BRANCH   5  16
ATOM     16  C   UNL     1      -1.291   6.197   2.195  0.00  0.00    +0.244 C 
ATOM     17  O   UNL     1      -2.016   6.659   1.332  0.00  0.00    -0.270 OA
ATOM     18  N   UNL     1      -0.068   6.723   2.399  0.00  0.00    -0.325 N 
ATOM     19  H   UNL     1       0.509   6.356   3.087  0.00  0.00    +0.145 HD
ATOM     20  H   UNL     1       0.236   7.470   1.859  0.00  0.00    +0.145 HD
ENDBRANCH   5  16
BRANCH   6  21
ATOM     21  N   UNL     1      -0.863   3.311   1.472  0.00  0.00    -0.279 N 
ATOM     22  C   UNL     1      -0.724   1.989   1.250  0.00  0.00    +0.222 C 
ATOM     23  O   UNL     1      -1.166   1.190   2.049  0.00  0.00    -0.275 OA
ATOM     24  H   UNL     1      -0.509   3.950   0.833  0.00  0.00    +0.155 HD
BRANCH  22  25
ATOM     25  C   UNL     1      -0.018   1.503   0.010  0.00  0.00    +0.131 C 
BRANCH  25  26
ATOM     26  C   UNL     1       0.002  -0.004   0.002  0.00  0.00    -0.031 A 
ATOM     27  C   UNL     1       1.083  -0.676   0.485  0.00  0.00    +0.005 A 
ATOM     28  C   UNL     1       1.119  -2.069   0.486  0.00  0.00    +0.001 A 
ATOM     29  C   UNL     1       0.076  -2.798   0.004  0.00  0.00    +0.008 A 
ATOM     30  C   UNL     1      -1.057  -2.139  -0.503  0.00  0.00    -0.018 A 
ATOM     31  C   UNL     1      -1.096  -0.723  -0.499  0.00  0.00    -0.014 A 
ATOM     32  C   UNL     1      -2.228  -0.064  -1.010  0.00  0.00    +0.009 A 
ATOM     33  C   UNL     1      -3.271  -0.792  -1.494  0.00  0.00    +0.001 A 
ATOM     34  C   UNL     1      -3.233  -2.186  -1.494  0.00  0.00    +0.001 A 
ATOM     35  C   UNL     1      -2.153  -2.858  -1.010  0.00  0.00    +0.008 A 
ENDBRANCH  25  26
ENDBRANCH  22  25
ENDBRANCH   6  21
TORSDOF 4
