REMARK  Name = ZINC63182795
REMARK  5 active torsions:
REMARK  status: ('A' for Active; 'I' for Inactive)
REMARK    1  A    between atoms: C_1  and  C_2
REMARK    2  A    between atoms: C_11  and  S_13
REMARK    3  A    between atoms: S_13  and  N_16
REMARK    4  A    between atoms: N_16  and  C_17
REMARK    5  A    between atoms: C_22  and  C_23
REMARK                            x       y       z     vdW  Elec       q    Type
REMARK                         _______ _______ _______ _____ _____    ______ ____
ROOT
ATOM      1  S   UNL     1      -2.285  -6.511  -0.010  0.00  0.00    +0.092 S 
ATOM      2  O   UNL     1      -3.595  -6.621  -0.549  0.00  0.00    -0.148 OA
ATOM      3  O   UNL     1      -1.170  -7.187  -0.576  0.00  0.00    -0.148 OA
ENDROOT
BRANCH   1  14
ATOM      4  C   UNL     1      -0.018   1.503   0.010  0.00  0.00    +0.109 C 
ATOM      5  C   UNL     1       0.002  -0.004   0.002  0.00  0.00    +0.217 C 
ATOM      6  O   UNL     1       1.060  -0.596  -0.011  0.00  0.00    -0.276 OA
ATOM      7  N   UNL     1      -1.156  -0.694   0.009  0.00  0.00    -0.271 N 
ATOM      8  C   UNL     1      -2.492  -0.092   0.019  0.00  0.00    +0.118 C 
ATOM      9  C   UNL     1      -3.469  -1.279   0.025  0.00  0.00    +0.056 C 
ATOM     10  C   UNL     1      -2.581  -2.503   0.018  0.00  0.00    -0.023 A 
ATOM     11  C   UNL     1      -1.258  -2.088   0.003  0.00  0.00    +0.040 A 
ATOM     12  C   UNL     1      -0.246  -3.050  -0.011  0.00  0.00    +0.026 A 
ATOM     13  C   UNL     1      -0.563  -4.392  -0.015  0.00  0.00    +0.031 A 
ATOM     14  C   UNL     1      -1.885  -4.795  -0.005  0.00  0.00    +0.111 A 
ATOM     15  C   UNL     1      -2.893  -3.849   0.018  0.00  0.00    +0.034 A 
ENDBRANCH   1  14
BRANCH   1  16
ATOM     16  N   UNL     1      -2.381  -6.997   1.570  0.00  0.00    -0.097 NA
BRANCH  16  17
ATOM     17  C   UNL     1      -2.686  -8.318   1.874  0.00  0.00    +0.086 A 
ATOM     18  C   UNL     1      -2.905  -9.236   0.854  0.00  0.00    +0.029 A 
ATOM     19  C   UNL     1      -3.208 -10.547   1.157  0.00  0.00    +0.022 A 
ATOM     20  C   UNL     1      -3.296 -10.960   2.479  0.00  0.00    +0.042 A 
ATOM     21  C   UNL     1      -3.081 -10.063   3.504  0.00  0.00    +0.035 A 
ATOM     22  C   UNL     1      -2.768  -8.733   3.212  0.00  0.00    +0.062 A 
ATOM     23 CL   UNL     1      -3.678 -12.613   2.844  0.00  0.00    -0.084 Cl
BRANCH  22  24
ATOM     24  C   UNL     1      -2.531  -7.770   4.303  0.00  0.00    +0.243 C 
ATOM     25  O   UNL     1      -2.264  -6.612   4.045  0.00  0.00    -0.270 OA
ATOM     26  N   UNL     1      -2.611  -8.173   5.586  0.00  0.00    -0.325 N 
ATOM     27  H   UNL     1      -2.825  -9.096   5.792  0.00  0.00    +0.145 HD
ATOM     28  H   UNL     1      -2.455  -7.539   6.304  0.00  0.00    +0.145 HD
ENDBRANCH  22  24
ENDBRANCH  16  17
ENDBRANCH   1  16
TORSDOF 4
