REMARK  Name = ZINC52588385
REMARK  9 active torsions:
REMARK  status: ('A' for Active; 'I' for Inactive)
REMARK    1  A    between atoms: C_1  and  C_2
REMARK    2  A    between atoms: C_7  and  C_9
REMARK    3  A    between atoms: C_7  and  N_27
REMARK    4  A    between atoms: C_9  and  N_10
REMARK    5  A    between atoms: N_13  and  N_14
REMARK    6  A    between atoms: C_15  and  C_17
REMARK    7  A    between atoms: N_19  and  C_26
REMARK    8  A    between atoms: N_27  and  C_28
REMARK    9  A    between atoms: N_27  and  C_29
REMARK                            x       y       z     vdW  Elec       q    Type
REMARK                         _______ _______ _______ _____ _____    ______ ____
ROOT
ATOM      1  N   UNL     1       1.866  -4.013   0.110  0.00  0.00    -0.300 N 
ATOM      2  C   UNL     1       2.681  -4.581  -0.802  0.00  0.00    +0.316 C 
ATOM      3  O   UNL     1       3.383  -3.883  -1.508  0.00  0.00    -0.251 OA
ATOM      4  N   UNL     1       2.718  -5.922  -0.931  0.00  0.00    -0.218 N 
ATOM      5  H   UNL     1       1.306  -4.570   0.673  0.00  0.00    +0.150 HD
ATOM      6  H   UNL     1       3.304  -6.330  -1.587  0.00  0.00    +0.174 HD
ENDROOT
BRANCH   4   7
ATOM      7  N   UNL     1       1.909  -6.726  -0.117  0.00  0.00    -0.229 N 
ATOM      8  C   UNL     1       1.946  -8.067  -0.246  0.00  0.00    +0.262 C 
ATOM      9  O   UNL     1       2.681  -8.579  -1.069  0.00  0.00    -0.269 OA
ATOM     10  H   UNL     1       1.323  -6.318   0.539  0.00  0.00    +0.173 HD
BRANCH   8  11
ATOM     11  C   UNL     1       1.098  -8.911   0.607  0.00  0.00    +0.063 A 
ATOM     12  C   UNL     1       0.224  -8.486   1.563  0.00  0.00    +0.099 A 
ATOM     13  N   UNL     1      -0.379  -9.553   2.141  0.00  0.00    -0.349 N 
ATOM     14  C   UNL     1       0.082 -10.727   1.580  0.00  0.00    +0.050 A 
ATOM     15  C   UNL     1       1.019 -10.383   0.593  0.00  0.00    +0.012 A 
ATOM     16  C   UNL     1       1.650 -11.378  -0.149  0.00  0.00    +0.011 A 
ATOM     17  C   UNL     1       1.347 -12.701   0.089  0.00  0.00    +0.001 A 
ATOM     18  C   UNL     1       0.418 -13.043   1.061  0.00  0.00    +0.002 A 
ATOM     19  C   UNL     1      -0.207 -12.068   1.808  0.00  0.00    +0.026 A 
ATOM     20  C   UNL     1      -1.377  -9.473   3.210  0.00  0.00    +0.149 C 
ENDBRANCH   8  11
ENDBRANCH   4   7
BRANCH   1  21
ATOM     21  C   UNL     1       1.827  -2.556   0.250  0.00  0.00    +0.094 C 
BRANCH  21  27
ATOM     22  C   UNL     1       3.104  -2.691   4.382  0.00  0.00    +0.007 C 
ATOM     23  C   UNL     1       2.642  -2.138   3.033  0.00  0.00    -0.015 C 
ATOM     24  C   UNL     1       2.534  -0.614   3.116  0.00  0.00    +0.003 C 
ATOM     25  C   UNL     1       2.072  -0.061   1.766  0.00  0.00    -0.001 C 
ATOM     26  C   UNL     1       0.705  -0.651   1.414  0.00  0.00    -0.010 C 
ATOM     27  C   UNL     1       0.813  -2.175   1.331  0.00  0.00    -0.050 C 
ATOM     28  C   UNL     1       1.275  -2.728   2.680  0.00  0.00    -0.007 C 
BRANCH  27  29
ATOM     29  N   UNL     1      -0.499  -2.741   0.993  0.00  0.00    +0.381 N 
ATOM     30  C   UNL     1      -1.490  -2.311   1.989  0.00  0.00    -0.096 C 
ATOM     31  C   UNL     1      -0.908  -2.271  -0.338  0.00  0.00    -0.096 C 
ATOM     32  H   UNL     1      -0.441  -3.748   0.990  0.00  0.00    -0.082 HD
ENDBRANCH  27  29
ENDBRANCH  21  27
ENDBRANCH   1  21
TORSDOF 5
