REMARK  Name = ZINC09111510
REMARK  4 active torsions:
REMARK  status: ('A' for Active; 'I' for Inactive)
REMARK    1  A    between atoms: C_4  and  N_7
REMARK    2  A    between atoms: C_11  and  C_16
REMARK    3  A    between atoms: C_16  and  N_50
REMARK    4  A    between atoms: N_19  and  C_22
REMARK                            x       y       z     vdW  Elec       q    Type
REMARK                         _______ _______ _______ _____ _____    ______ ____
ROOT
ATOM      1  N   UNL     1      -2.404   4.945   0.040  0.00  0.00    -0.213 NA
ATOM      2  C   UNL     1      -2.384   3.622   0.028  0.00  0.00    +0.233 A 
ATOM      3  N   UNL     1      -3.563   2.905   0.036  0.00  0.00    -0.314 N 
ATOM      4  H   UNL     1      -4.417   3.365   0.051  0.00  0.00    +0.170 HD
ATOM      5  C   UNL     1      -3.512   1.554   0.022  0.00  0.00    +0.097 A 
ATOM      6  N   UNL     1      -2.356   0.942   0.002  0.00  0.00    -0.204 NA
ATOM      7  C   UNL     1      -1.209   1.637  -0.006  0.00  0.00    +0.217 A 
ATOM      8  N   UNL     1      -1.218   2.960   0.012  0.00  0.00    -0.179 NA
ATOM      9  N   UNL     1      -0.010   0.967  -0.028  0.00  0.00    -0.327 N 
ATOM     10  H   UNL     1       0.004  -0.003  -0.037  0.00  0.00    +0.145 HD
ATOM     11  H   UNL     1       0.823   1.464  -0.037  0.00  0.00    +0.145 HD
ENDROOT
BRANCH   1  15
ATOM     12  C   UNL     1       1.135   7.065   0.347  0.00  0.00    +0.000 A 
ATOM     13  C   UNL     1       0.591   6.809  -0.899  0.00  0.00    +0.002 A 
ATOM     14  C   UNL     1      -0.589   6.104  -1.010  0.00  0.00    +0.028 A 
ATOM     15  C   UNL     1      -1.235   5.645   0.142  0.00  0.00    +0.068 A 
ATOM     16  C   UNL     1      -0.683   5.912   1.398  0.00  0.00    +0.028 A 
ATOM     17  C   UNL     1       0.501   6.614   1.492  0.00  0.00    +0.002 A 
ENDBRANCH   1  15
BRANCH   5  18
ATOM     18  C   UNL     1      -4.788   0.752   0.031  0.00  0.00    -0.003 C 
BRANCH  18  24
ATOM     19  C   UNL     1      -4.216  -0.406   2.080  0.00  0.00    -0.059 C 
ATOM     20  C   UNL     1      -4.622  -0.601   3.542  0.00  0.00    +0.086 C 
ATOM     21  N   UNL     1      -5.975  -1.171   3.601  0.00  0.00    -0.331 N 
ATOM     22  C   UNL     1      -6.945  -0.286   2.940  0.00  0.00    +0.086 C 
ATOM     23  C   UNL     1      -6.539  -0.091   1.477  0.00  0.00    -0.059 C 
ATOM     24  N   UNL     1      -5.186   0.503   1.433  0.00  0.00    +0.386 N 
ATOM     25  H   UNL     1      -5.196   1.395   1.941  0.00  0.00    -0.081 HD
BRANCH  21  26
ATOM     26  C   UNL     1      -6.353  -1.431   4.922  0.00  0.00    +0.065 A 
ATOM     27  C   UNL     1      -7.568  -2.046   5.190  0.00  0.00    +0.026 A 
ATOM     28  C   UNL     1      -7.939  -2.301   6.496  0.00  0.00    +0.002 A 
ATOM     29  C   UNL     1      -7.101  -1.946   7.537  0.00  0.00    +0.003 A 
ATOM     30  C   UNL     1      -5.889  -1.334   7.275  0.00  0.00    +0.040 A 
ATOM     31  C   UNL     1      -5.509  -1.079   5.970  0.00  0.00    +0.144 A 
ATOM     32  F   UNL     1      -4.323  -0.486   5.714  0.00  0.00    -0.204 F 
ENDBRANCH  21  26
ENDBRANCH  18  24
ENDBRANCH   5  18
TORSDOF 4
