REMARK  Name = ZINC45664618
REMARK  13 active torsions:
REMARK  status: ('A' for Active; 'I' for Inactive)
REMARK    1  A    between atoms: C_1  and  C_2
REMARK    2  A    between atoms: C_5  and  N_12
REMARK    3  A    between atoms: C_8  and  C_10
REMARK    4  A    between atoms: C_8  and  C_11
REMARK    5  A    between atoms: N_12  and  C_13
REMARK    6  A    between atoms: C_13  and  C_14
REMARK    7  A    between atoms: C_14  and  C_15
REMARK    8  A    between atoms: C_15  and  C_16
REMARK    9  A    between atoms: C_16  and  N_17
REMARK   10  A    between atoms: N_17  and  C_18
REMARK   11  A    between atoms: N_17  and  C_19
REMARK   12  A    between atoms: C_19  and  C_20
REMARK   13  A    between atoms: C_19  and  C_21
REMARK                            x       y       z     vdW  Elec       q    Type
REMARK                         _______ _______ _______ _____ _____    ______ ____
ROOT
ATOM      1  N   UNL     1      -2.791  -2.572   0.015  0.00  0.00    +0.381 N 
ATOM      2  H   UNL     1      -2.777  -3.578   0.092  0.00  0.00    -0.086 HD
ATOM      3  H   UNL     1      -3.288  -2.181   0.801  0.00  0.00    -0.086 HD
ENDROOT
BRANCH   1   7
ATOM      4  C   UNL     1      -0.019   1.526   0.010  0.00  0.00    +0.007 C 
ATOM      5  C   UNL     1       0.002  -0.004   0.002  0.00  0.00    -0.015 C 
ATOM      6  C   UNL     1      -1.433  -0.534   0.013  0.00  0.00    -0.013 C 
ATOM      7  C   UNL     1      -1.413  -2.063   0.004  0.00  0.00    -0.071 C 
ATOM      8  C   UNL     1      -0.673  -2.570   1.244  0.00  0.00    -0.010 C 
ATOM      9  C   UNL     1       0.763  -2.041   1.233  0.00  0.00    -0.036 C 
ATOM     10  C   UNL     1       0.742  -0.511   1.242  0.00  0.00    +0.009 C 
ATOM     11  C   UNL     1       1.479  -2.534  -0.026  0.00  0.00    +0.011 C 
ATOM     12  C   UNL     1       1.503  -2.548   2.473  0.00  0.00    +0.011 C 
ENDBRANCH   1   7
BRANCH   1  13
ATOM     13  C   UNL     1      -3.465  -2.186  -1.232  0.00  0.00    -0.082 C 
BRANCH  13  14
ATOM     14  C   UNL     1      -4.900  -2.715  -1.221  0.00  0.00    -0.021 C 
BRANCH  14  15
ATOM     15  C   UNL     1      -5.602  -2.313  -2.520  0.00  0.00    -0.020 C 
BRANCH  15  16
ATOM     16  C   UNL     1      -7.037  -2.842  -2.509  0.00  0.00    -0.079 C 
BRANCH  16  17
ATOM     17  N   UNL     1      -7.711  -2.456  -3.756  0.00  0.00    +0.379 N 
ATOM     18  C   UNL     1      -7.060  -3.122  -4.891  0.00  0.00    -0.096 C 
ATOM     19  H   UNL     1      -7.652  -1.456  -3.874  0.00  0.00    -0.082 HD
BRANCH  17  20
ATOM     20  C   UNL     1      -9.122  -2.860  -3.695  0.00  0.00    -0.075 C 
ATOM     21  C   UNL     1      -9.801  -2.166  -2.512  0.00  0.00    -0.014 C 
ATOM     22  C   UNL     1      -9.824  -2.457  -4.993  0.00  0.00    -0.014 C 
ENDBRANCH  17  20
ENDBRANCH  16  17
ENDBRANCH  15  16
ENDBRANCH  14  15
ENDBRANCH  13  14
ENDBRANCH   1  13
TORSDOF 7
