REMARK  Name = ZINC62962953
REMARK  3 active torsions:
REMARK  status: ('A' for Active; 'I' for Inactive)
REMARK    1  A    between atoms: C_5  and  N_8
REMARK    2  A    between atoms: N_8  and  C_9
REMARK    3  A    between atoms: C_9  and  C_16
REMARK                            x       y       z     vdW  Elec       q    Type
REMARK                         _______ _______ _______ _____ _____    ______ ____
ROOT
ATOM      1  C   UNL     1       2.323  -2.358  -2.423  0.00  0.00    +0.031 C 
ATOM      2  C   UNL     1       1.205  -3.170  -1.770  0.00  0.00    +0.021 C 
ATOM      3  C   UNL     1       1.436  -4.689  -2.003  0.00  0.00    +0.165 C 
ATOM      4  S   UNL     1       2.042  -4.645  -3.747  0.00  0.00    -0.032 S 
ATOM      5  O   UNL     1       0.929  -4.546  -4.625  0.00  0.00    -0.174 OA
ATOM      6  O   UNL     1       2.997  -5.681  -3.936  0.00  0.00    -0.174 OA
ATOM      7  C   UNL     1       2.910  -3.023  -3.683  0.00  0.00    +0.162 C 
ENDROOT
BRANCH   1   8
ATOM      8  C   UNL     1       3.429  -2.170  -1.416  0.00  0.00    +0.201 C 
ATOM      9  O   UNL     1       3.518  -2.919  -0.466  0.00  0.00    -0.277 OA
ATOM     10  N   UNL     1       4.318  -1.169  -1.571  0.00  0.00    -0.330 N 
ATOM     11  H   UNL     1       4.291  -0.616  -2.367  0.00  0.00    +0.145 HD
ATOM     12  H   UNL     1       4.985  -1.002  -0.887  0.00  0.00    +0.145 HD
ENDBRANCH   1   8
BRANCH   1  13
ATOM     13  N   UNL     1       1.793  -1.038  -2.790  0.00  0.00    +0.391 N 
ATOM     14  H   UNL     1       1.146  -1.137  -3.558  0.00  0.00    -0.084 HD
ATOM     15  H   UNL     1       2.554  -0.436  -3.067  0.00  0.00    -0.084 HD
BRANCH  13  20
ATOM     16  C   UNL     1       0.099   0.063   1.158  0.00  0.00    -0.000 C 
ATOM     17  C   UNL     1      -0.784   0.785   0.178  0.00  0.00    -0.000 C 
ATOM     18  C   UNL     1      -1.314  -0.142  -0.933  0.00  0.00    -0.002 C 
ATOM     19  C   UNL     1      -0.241  -1.113  -1.463  0.00  0.00    -0.016 C 
ATOM     20  C   UNL     1       1.099  -0.451  -1.637  0.00  0.00    -0.070 C 
ATOM     21  C   UNL     1       1.930  -0.683  -0.358  0.00  0.00    -0.016 C 
ATOM     22  C   UNL     1       1.566   0.232   0.714  0.00  0.00    -0.002 C 
ENDBRANCH  13  20
ENDBRANCH   1  13
TORSDOF 3
