REMARK  Name = ZINC39687149
REMARK  8 active torsions:
REMARK  status: ('A' for Active; 'I' for Inactive)
REMARK    1  A    between atoms: C_1  and  C_2
REMARK    2  A    between atoms: C_2  and  C_4
REMARK    3  A    between atoms: C_2  and  N_12
REMARK    4  A    between atoms: C_4  and  C_5
REMARK    5  A    between atoms: C_13  and  C_15
REMARK    6  A    between atoms: C_26  and  C_28
REMARK    7  A    between atoms: C_31  and  O_35
REMARK    8  A    between atoms: O_35  and  C_36
REMARK                            x       y       z     vdW  Elec       q    Type
REMARK                         _______ _______ _______ _____ _____    ______ ____
ROOT
ATOM      1  C   UNL     1      -1.351  -2.255  -1.120  0.00  0.00    +0.100 C 
ATOM      2  C   UNL     1      -0.630  -1.855  -2.427  0.00  0.00    +0.121 C 
ATOM      3  N   UNL     1       0.641  -2.616  -2.402  0.00  0.00    -0.296 N 
ATOM      4  C   UNL     1       0.265  -3.942  -1.853  0.00  0.00    +0.115 C 
ATOM      5  C   UNL     1      -0.763  -3.627  -0.749  0.00  0.00    -0.004 C 
ATOM      6  C   UNL     1      -1.862  -4.685  -0.733  0.00  0.00    -0.010 C 
ATOM      7  C   UNL     1      -1.264  -6.029  -0.305  0.00  0.00    -0.082 C 
ATOM      8  N   UNL     1      -0.664  -5.896   1.029  0.00  0.00    +0.379 N 
ATOM      9  C   UNL     1       0.453  -4.945   0.983  0.00  0.00    -0.082 C 
ATOM     10  C   UNL     1      -0.073  -3.556   0.610  0.00  0.00    -0.010 C 
ATOM     11  C   UNL     1       1.862  -2.199  -2.790  0.00  0.00    +0.247 C 
ATOM     12  O   UNL     1       2.807  -2.963  -2.750  0.00  0.00    -0.270 OA
ATOM     13  H   UNL     1      -1.361  -5.564   1.678  0.00  0.00    -0.086 HD
ATOM     14  H   UNL     1      -0.325  -6.796   1.334  0.00  0.00    -0.086 HD
ENDROOT
BRANCH  11  15
ATOM     15  C   UNL     1       2.052  -0.814  -3.265  0.00  0.00    +0.040 A 
ATOM     16  C   UNL     1       1.993   0.250  -2.362  0.00  0.00    +0.036 A 
ATOM     17  C   UNL     1       2.171   1.542  -2.809  0.00  0.00    +0.085 A 
ATOM     18  C   UNL     1       2.409   1.786  -4.157  0.00  0.00    +0.157 A 
ATOM     19  C   UNL     1       2.468   0.729  -5.059  0.00  0.00    +0.085 A 
ATOM     20  C   UNL     1       2.297  -0.565  -4.618  0.00  0.00    +0.036 A 
ATOM     21 CL   UNL     1       2.765   1.040  -6.741  0.00  0.00    -0.080 Cl
ATOM     22 CL   UNL     1       2.097   2.865  -1.688  0.00  0.00    -0.080 Cl
BRANCH  18  23
ATOM     23  O   UNL     1       2.582   3.060  -4.594  0.00  0.00    -0.492 OA
ATOM     24  C   UNL     1       3.924   3.548  -4.652  0.00  0.00    +0.277 C 
ENDBRANCH  18  23
ENDBRANCH  11  15
BRANCH   1  26
ATOM     25  N   UNL     1      -1.963  -1.047   0.950  0.00  0.00    -0.312 N 
ATOM     26  C   UNL     1      -1.064  -1.250  -0.034  0.00  0.00    +0.218 C 
ATOM     27  O   UNL     1      -0.025  -0.625  -0.045  0.00  0.00    -0.275 OA
ATOM     28  H   UNL     1      -2.849  -1.437   0.886  0.00  0.00    +0.149 HD
BRANCH  25  30
ATOM     29  C   UNL     1      -1.030  -1.145   3.209  0.00  0.00    +0.028 C 
ATOM     30  C   UNL     1      -1.601  -0.238   2.117  0.00  0.00    +0.074 C 
BRANCH  30  31
ATOM     31  C   UNL     1      -2.845   0.477   2.647  0.00  0.00    +0.060 C 
BRANCH  31  32
ATOM     32  C   UNL     1      -3.823  -0.540   3.175  0.00  0.00    -0.010 A 
ATOM     33  C   UNL     1      -4.784  -1.075   2.337  0.00  0.00    +0.006 A 
ATOM     34  C   UNL     1      -5.681  -2.009   2.821  0.00  0.00    +0.000 A 
ATOM     35  C   UNL     1      -5.619  -2.408   4.144  0.00  0.00    +0.003 A 
ATOM     36  C   UNL     1      -4.659  -1.875   4.983  0.00  0.00    +0.038 A 
ATOM     37  C   UNL     1      -3.756  -0.943   4.497  0.00  0.00    +0.127 A 
ATOM     38  F   UNL     1      -2.815  -0.425   5.316  0.00  0.00    -0.205 F 
ENDBRANCH  31  32
ENDBRANCH  30  31
ENDBRANCH  25  30
ENDBRANCH   1  26
TORSDOF 6
