REMARK  Name = ZINC39021468
REMARK  8 active torsions:
REMARK  status: ('A' for Active; 'I' for Inactive)
REMARK    1  A    between atoms: C_1  and  C_2
REMARK    2  A    between atoms: C_2  and  C_3
REMARK    3  A    between atoms: C_2  and  C_4
REMARK    4  A    between atoms: C_2  and  C_5
REMARK    5  A    between atoms: C_7  and  C_11
REMARK    6  A    between atoms: N_13  and  N_14
REMARK    7  A    between atoms: C_15  and  C_16
REMARK    8  A    between atoms: C_19  and  N_21
REMARK                            x       y       z     vdW  Elec       q    Type
REMARK                         _______ _______ _______ _____ _____    ______ ____
ROOT
ATOM      1  C   UNL     1       3.313  -0.344  -3.325  0.00  0.00    +0.255 C 
ATOM      2  O   UNL     1       4.094  -1.101  -2.788  0.00  0.00    -0.272 OA
ATOM      3  N   UNL     1       3.771   0.716  -4.020  0.00  0.00    -0.205 N 
ATOM      4  H   UNL     1       3.146   1.321  -4.450  0.00  0.00    +0.177 HD
ENDROOT
BRANCH   1   7
ATOM      5  C   UNL     1       0.707  -0.490  -1.238  0.00  0.00    +0.022 C 
ATOM      6  C   UNL     1       1.223   0.304  -2.154  0.00  0.00    +0.022 C 
ATOM      7  C   UNL     1       1.830  -0.589  -3.216  0.00  0.00    +0.184 C 
ATOM      8  N   UNL     1       1.564  -1.959  -2.733  0.00  0.00    -0.227 NA
ATOM      9  N   UNL     1       0.898  -1.822  -1.549  0.00  0.00    -0.283 N 
ATOM     10  H   UNL     1       2.424  -2.470  -2.604  0.00  0.00    +0.145 HD
ATOM     11  H   UNL     1       0.596  -2.562  -1.000  0.00  0.00    +0.166 HD
BRANCH   5  13
ATOM     12  C   UNL     1      -0.019   1.526   0.010  0.00  0.00    +0.017 C 
ATOM     13  C   UNL     1       0.002  -0.004   0.002  0.00  0.00    +0.001 C 
ATOM     14  C   UNL     1       0.742  -0.511   1.242  0.00  0.00    +0.017 C 
ATOM     15  C   UNL     1      -1.433  -0.534   0.013  0.00  0.00    +0.017 C 
ENDBRANCH   5  13
ENDBRANCH   1   7
BRANCH   3  16
ATOM     16  N   UNL     1       5.149   0.944  -4.122  0.00  0.00    -0.185 NA
ATOM     17  C   UNL     1       5.594   1.971  -4.796  0.00  0.00    +0.176 C 
BRANCH  17  18
ATOM     18  C   UNL     1       6.988   2.201  -4.899  0.00  0.00    +0.150 A 
ATOM     19  C   UNL     1       7.595   3.249  -5.573  0.00  0.00    +0.053 A 
ATOM     20  C   UNL     1       8.976   3.079  -5.411  0.00  0.00    +0.076 A 
ATOM     21  C   UNL     1       9.158   1.964  -4.663  0.00  0.00    +0.280 A 
ATOM     22  O   UNL     1       7.961   1.444  -4.354  0.00  0.00    -0.433 OA
BRANCH  21  23
ATOM     23  N   UNL     1      10.534   1.385  -4.229  0.00  0.00    +0.093 N 
ATOM     24  O   UNL     1      11.555   1.940  -4.561  0.00  0.00    -0.123 OA
ATOM     25  O   UNL     1      10.582   0.380  -3.559  0.00  0.00    -0.123 OA
ENDBRANCH  21  23
ENDBRANCH  17  18
ENDBRANCH   3  16
TORSDOF 5
