REMARK  Name = ZINC13278756
REMARK  5 active torsions:
REMARK  status: ('A' for Active; 'I' for Inactive)
REMARK    1  A    between atoms: C_6  and  C_7
REMARK    2  A    between atoms: N_9  and  N_10
REMARK    3  A    between atoms: N_10  and  S_11
REMARK    4  A    between atoms: S_11  and  C_14
REMARK    5  A    between atoms: C_16  and  C_22
REMARK                            x       y       z     vdW  Elec       q    Type
REMARK                         _______ _______ _______ _____ _____    ______ ____
ROOT
ATOM      1  N   UNL     1       5.020  -2.808  -0.159  0.00  0.00    -0.108 NA
ATOM      2  H   UNL     1       5.719  -2.660  -0.815  0.00  0.00    +0.172 HD
ENDROOT
BRANCH   1   5
ATOM      3  C   UNL     1       3.668  -0.874  -0.470  0.00  0.00    +0.259 C 
ATOM      4  O   UNL     1       4.671  -0.187  -0.456  0.00  0.00    -0.269 OA
ATOM      5  N   UNL     1       3.764  -2.210  -0.326  0.00  0.00    -0.228 N 
ATOM      6  H   UNL     1       2.964  -2.758  -0.338  0.00  0.00    +0.171 HD
BRANCH   3  12
ATOM      7  C   UNL     1       1.191  -1.031  -0.663  0.00  0.00    +0.017 A 
ATOM      8  C   UNL     1      -0.043  -0.440  -0.828  0.00  0.00    +0.050 A 
ATOM      9  C   UNL     1      -0.145   0.938  -0.978  0.00  0.00    +0.162 A 
ATOM     10  C   UNL     1       1.002   1.729  -0.959  0.00  0.00    +0.163 A 
ATOM     11  C   UNL     1       2.243   1.142  -0.795  0.00  0.00    +0.062 A 
ATOM     12  C   UNL     1       2.345  -0.244  -0.646  0.00  0.00    +0.042 A 
ATOM     13  O   UNL     1       0.917   3.081  -1.096  0.00  0.00    -0.485 OA
ATOM     14  C   UNL     1      -0.306   3.598  -1.631  0.00  0.00    +0.270 C 
ATOM     15  C   UNL     1      -1.474   2.908  -0.914  0.00  0.00    +0.270 C 
ATOM     16  O   UNL     1      -1.372   1.498  -1.148  0.00  0.00    -0.485 OA
ENDBRANCH   3  12
ENDBRANCH   1   5
BRANCH   1  17
ATOM     17  S   UNL     1       5.311  -3.769   1.158  0.00  0.00    +0.075 S 
ATOM     18  O   UNL     1       6.598  -4.341   0.967  0.00  0.00    -0.152 OA
ATOM     19  O   UNL     1       4.985  -2.995   2.305  0.00  0.00    -0.152 OA
BRANCH  17  20
ATOM     20  C   UNL     1       4.155  -5.097   1.100  0.00  0.00    +0.126 A 
ATOM     21  C   UNL     1       3.204  -5.224   2.090  0.00  0.00    +0.046 A 
ATOM     22  C   UNL     1       2.285  -6.274   2.041  0.00  0.00    +0.083 A 
ATOM     23  C   UNL     1       2.343  -7.198   0.992  0.00  0.00    +0.057 A 
ATOM     24  C   UNL     1       3.304  -7.062   0.011  0.00  0.00    +0.042 A 
ATOM     25  C   UNL     1       4.209  -6.015   0.064  0.00  0.00    +0.069 A 
ATOM     26 CL   UNL     1       5.415  -5.851  -1.174  0.00  0.00    -0.081 Cl
ATOM     27 CL   UNL     1       1.210  -8.511   0.925  0.00  0.00    -0.083 Cl
BRANCH  22  28
ATOM     28  C   UNL     1       1.261  -6.413   3.095  0.00  0.00    +0.388 C 
ATOM     29  O   UNL     1       0.466  -7.331   3.052  0.00  0.00    -0.241 OA
ATOM     30  O   UNL     1       1.207  -5.522   4.104  0.00  0.00    -0.241 OA
ENDBRANCH  22  28
ENDBRANCH  17  20
ENDBRANCH   1  17
TORSDOF 5
