REMARK  Name = ZINC44491064
REMARK  10 active torsions:
REMARK  status: ('A' for Active; 'I' for Inactive)
REMARK    1  A    between atoms: C_1  and  C_2
REMARK    2  A    between atoms: C_2  and  C_3
REMARK    3  A    between atoms: C_2  and  C_4
REMARK    4  A    between atoms: C_4  and  C_6
REMARK    5  A    between atoms: C_4  and  N_10
REMARK    6  A    between atoms: C_6  and  N_7
REMARK    7  A    between atoms: N_7  and  C_8
REMARK    8  A    between atoms: N_7  and  C_9
REMARK    9  A    between atoms: C_11  and  C_13
REMARK   10  A    between atoms: C_18  and  O_19
REMARK                            x       y       z     vdW  Elec       q    Type
REMARK                         _______ _______ _______ _____ _____    ______ ____
ROOT
ATOM      1  N   UNL     1      -2.104  -0.120  -1.359  0.00  0.00    -0.310 N 
ATOM      2  C   UNL     1      -2.609   1.121  -1.511  0.00  0.00    +0.248 C 
ATOM      3  O   UNL     1      -2.482   1.942  -0.623  0.00  0.00    -0.270 OA
ATOM      4  H   UNL     1      -2.205  -0.775  -2.067  0.00  0.00    +0.149 HD
ENDROOT
BRANCH   2   5
ATOM      5  C   UNL     1      -3.315   1.482  -2.754  0.00  0.00    +0.078 A 
ATOM      6  C   UNL     1      -3.467   0.539  -3.775  0.00  0.00    +0.018 A 
ATOM      7  C   UNL     1      -4.128   0.883  -4.934  0.00  0.00    +0.016 A 
ATOM      8  C   UNL     1      -4.643   2.160  -5.093  0.00  0.00    +0.021 A 
ATOM      9  C   UNL     1      -4.499   3.102  -4.092  0.00  0.00    +0.061 A 
ATOM     10  C   UNL     1      -3.841   2.771  -2.917  0.00  0.00    +0.130 A 
ATOM     11 BR   UNL     1      -5.548   2.617  -6.689  0.00  0.00    -0.050 Br
BRANCH  10  12
ATOM     12  O   UNL     1      -3.704   3.692  -1.931  0.00  0.00    -0.506 OA
ATOM     13  H   UNL     1      -2.901   4.226  -2.001  0.00  0.00    +0.292 HD
ENDBRANCH  10  12
ENDBRANCH   2   5
BRANCH   1  14
ATOM     14  C   UNL     1      -1.403  -0.478  -0.123  0.00  0.00    +0.059 C 
BRANCH  14  16
ATOM     15  C   UNL     1       0.356   1.224  -0.627  0.00  0.00    +0.009 C 
ATOM     16  C   UNL     1       0.099  -0.250  -0.305  0.00  0.00    +0.001 C 
ATOM     17  C   UNL     1       0.832  -0.625   0.985  0.00  0.00    +0.009 C 
ENDBRANCH  14  16
BRANCH  14  18
ATOM     18  C   UNL     1      -1.659  -1.952   0.199  0.00  0.00    -0.057 C 
BRANCH  18  19
ATOM     19  N   UNL     1      -3.106  -2.190   0.287  0.00  0.00    +0.377 N 
ATOM     20  C   UNL     1      -3.355  -3.623   0.491  0.00  0.00    -0.097 C 
ATOM     21  C   UNL     1      -3.658  -1.431   1.417  0.00  0.00    -0.097 C 
ATOM     22  H   UNL     1      -3.549  -1.889  -0.568  0.00  0.00    -0.083 HD
ENDBRANCH  18  19
ENDBRANCH  14  18
ENDBRANCH   1  14
TORSDOF 6
