REMARK  Name = ZINC05181940
REMARK  2 active torsions:
REMARK  status: ('A' for Active; 'I' for Inactive)
REMARK    1  A    between atoms: C_4  and  C_8
REMARK    2  A    between atoms: N_9  and  N_10
REMARK                            x       y       z     vdW  Elec       q    Type
REMARK                         _______ _______ _______ _____ _____    ______ ____
ROOT
ATOM      1  C   UNL     1      -1.188  -2.015  -0.096  0.00  0.00    +0.145 C 
ATOM      2  N   UNL     1      -1.202  -0.721   0.010  0.00  0.00    -0.169 NA
ENDROOT
BRANCH   2   3
ATOM      3  N   UNL     1       0.002  -0.004  -0.001  0.00  0.00    -0.171 N 
ATOM      4  C   UNL     1       0.760   0.024  -1.117  0.00  0.00    +0.293 A 
ATOM      5  O   UNL     1       0.407  -0.576  -2.116  0.00  0.00    -0.264 OA
ATOM      6  C   UNL     1       2.015   0.778  -1.109  0.00  0.00    +0.204 A 
ATOM      7  N   UNL     1       2.370   1.406  -0.022  0.00  0.00    -0.175 NA
ATOM      8  N   UNL     1       1.553   1.352   1.113  0.00  0.00    -0.254 N 
ATOM      9  H   UNL     1       1.829   1.835   1.944  0.00  0.00    +0.191 HD
ATOM     10  C   UNL     1       0.401   0.658   1.101  0.00  0.00    +0.198 A 
ATOM     11  S   UNL     1      -0.572   0.614   2.509  0.00  0.00    -0.010 S 
ENDBRANCH   2   3
BRANCH   1  15
ATOM     12  C   UNL     1      -4.840  -4.161  -0.392  0.00  0.00    +0.004 A 
ATOM     13  C   UNL     1      -4.860  -2.782  -0.281  0.00  0.00    +0.039 A 
ATOM     14  C   UNL     1      -3.676  -2.076  -0.177  0.00  0.00    +0.133 A 
ATOM     15  C   UNL     1      -2.455  -2.760  -0.198  0.00  0.00    +0.048 A 
ATOM     16  C   UNL     1      -2.445  -4.153  -0.312  0.00  0.00    +0.052 A 
ATOM     17  C   UNL     1      -3.636  -4.843  -0.408  0.00  0.00    +0.021 A 
ATOM     18 CL   UNL     1      -0.937  -5.013  -0.332  0.00  0.00    -0.083 Cl
ATOM     19  F   UNL     1      -3.698  -0.730  -0.063  0.00  0.00    -0.205 F 
ENDBRANCH   1  15
TORSDOF 2
