REMARK  Name = ZINC42108067
REMARK  11 active torsions:
REMARK  status: ('A' for Active; 'I' for Inactive)
REMARK    1  A    between atoms: C_1  and  C_2
REMARK    2  A    between atoms: N_5  and  C_8
REMARK    3  A    between atoms: C_8  and  C_10
REMARK    4  A    between atoms: C_8  and  C_25
REMARK    5  A    between atoms: C_10  and  N_11
REMARK    6  A    between atoms: N_11  and  C_12
REMARK    7  A    between atoms: C_15  and  S_21
REMARK    8  A    between atoms: C_17  and  N_18
REMARK    9  A    between atoms: S_21  and  N_24
REMARK   10  A    between atoms: C_25  and  C_26
REMARK   11  A    between atoms: C_25  and  C_27
REMARK                            x       y       z     vdW  Elec       q    Type
REMARK                         _______ _______ _______ _____ _____    ______ ____
ROOT
ATOM      1  N   UNL     1       0.751  -3.098   2.570  0.00  0.00    -0.344 N 
ATOM      2  H   UNL     1       1.125  -2.616   1.816  0.00  0.00    +0.146 HD
ENDROOT
BRANCH   1   3
ATOM      3  C   UNL     1       1.576  -3.498   3.623  0.00  0.00    +0.058 A 
ATOM      4  C   UNL     1       1.054  -4.244   4.672  0.00  0.00    +0.027 A 
ATOM      5  C   UNL     1       1.873  -4.638   5.712  0.00  0.00    +0.030 A 
ATOM      6  C   UNL     1       3.212  -4.291   5.709  0.00  0.00    +0.107 A 
ATOM      7  C   UNL     1       3.735  -3.549   4.666  0.00  0.00    +0.063 A 
ATOM      8  C   UNL     1       2.922  -3.156   3.620  0.00  0.00    +0.149 A 
BRANCH   8   9
ATOM      9  N   UNL     1       3.484  -2.366   2.502  0.00  0.00    +0.058 N 
ATOM     10  O   UNL     1       3.128  -2.587   1.367  0.00  0.00    -0.126 OA
ATOM     11  O   UNL     1       4.299  -1.501   2.722  0.00  0.00    -0.126 OA
ENDBRANCH   8   9
BRANCH   6  12
ATOM     12  S   UNL     1       4.254  -4.796   7.037  0.00  0.00    +0.056 S 
ATOM     13  O   UNL     1       5.342  -3.882   7.070  0.00  0.00    -0.153 OA
ATOM     14  O   UNL     1       3.407  -5.014   8.157  0.00  0.00    -0.153 OA
BRANCH  12  15
ATOM     15  N   UNL     1       4.888  -6.271   6.629  0.00  0.00    -0.204 NA
ATOM     16  H   UNL     1       4.653  -6.682   5.782  0.00  0.00    +0.144 HD
ATOM     17  H   UNL     1       5.494  -6.723   7.236  0.00  0.00    +0.144 HD
ENDBRANCH  12  15
ENDBRANCH   6  12
ENDBRANCH   1   3
BRANCH   1  18
ATOM     18  C   UNL     1      -0.681  -3.408   2.603  0.00  0.00    +0.086 C 
BRANCH  18  19
ATOM     19  C   UNL     1      -1.386  -2.685   1.453  0.00  0.00    -0.049 C 
BRANCH  19  24
ATOM     20  C   UNL     1      -1.000   2.613   3.527  0.00  0.00    +0.007 C 
ATOM     21  C   UNL     1      -0.873   1.099   3.343  0.00  0.00    -0.018 C 
ATOM     22  C   UNL     1      -0.131   0.803   2.037  0.00  0.00    -0.016 C 
ATOM     23  C   UNL     1      -0.077  -0.711   1.819  0.00  0.00    -0.078 C 
ATOM     24  N   UNL     1      -1.442  -1.246   1.740  0.00  0.00    +0.383 N 
ATOM     25  C   UNL     1      -2.137  -1.029   3.014  0.00  0.00    -0.078 C 
ATOM     26  C   UNL     1      -2.269   0.472   3.278  0.00  0.00    -0.016 C 
ATOM     27  H   UNL     1      -1.943  -0.777   1.000  0.00  0.00    -0.081 HD
ENDBRANCH  19  24
BRANCH  19  28
ATOM     28  C   UNL     1      -2.807  -3.231   1.303  0.00  0.00    -0.029 C 
ATOM     29  C   UNL     1      -3.538  -2.456   0.204  0.00  0.00    +0.005 C 
ATOM     30  C   UNL     1      -2.748  -4.713   0.928  0.00  0.00    +0.005 C 
ENDBRANCH  19  28
ENDBRANCH  18  19
ENDBRANCH   1  18
TORSDOF 8
