REMARK  Name = ZINC49320305
REMARK  3 active torsions:
REMARK  status: ('A' for Active; 'I' for Inactive)
REMARK    1  A    between atoms: N_3  and  C_7
REMARK    2  A    between atoms: C_7  and  N_8
REMARK    3  A    between atoms: C_11  and  N_14
REMARK                            x       y       z     vdW  Elec       q    Type
REMARK                         _______ _______ _______ _____ _____    ______ ____
ROOT
ATOM      1  N   UNL     1       4.034   1.846   1.311  0.00  0.00    +0.393 N 
ATOM      2  C   UNL     1       3.886   0.740   2.265  0.00  0.00    -0.074 C 
ATOM      3  C   UNL     1       4.236   1.227   3.673  0.00  0.00    +0.004 C 
ATOM      4  C   UNL     1       5.683   1.727   3.689  0.00  0.00    +0.074 C 
ATOM      5  C   UNL     1       5.844   2.829   2.638  0.00  0.00    +0.004 C 
ATOM      6  C   UNL     1       5.434   2.283   1.268  0.00  0.00    -0.074 C 
ATOM      7  H   UNL     1       3.450   2.617   1.599  0.00  0.00    -0.079 HD
ENDROOT
BRANCH   4   8
ATOM      8  N   UNL     1       6.001   2.265   5.014  0.00  0.00    -0.281 N 
ATOM      9  C   UNL     1       7.066   1.772   5.901  0.00  0.00    +0.128 C 
ATOM     10  C   UNL     1       6.961   2.678   7.143  0.00  0.00    +0.124 C 
ATOM     11  N   UNL     1       5.849   3.585   6.824  0.00  0.00    -0.298 N 
ATOM     12  C   UNL     1       5.372   3.287   5.609  0.00  0.00    +0.303 C 
ATOM     13  O   UNL     1       4.449   3.887   5.093  0.00  0.00    -0.253 OA
ATOM     14  H   UNL     1       5.516   4.291   7.401  0.00  0.00    +0.150 HD
ENDBRANCH   4   8
BRANCH   1  15
ATOM     15  C   UNL     1       3.622   1.395  -0.025  0.00  0.00    +0.071 C 
BRANCH  15  18
ATOM     16  C   UNL     1      -0.022   1.781   0.012  0.00  0.00    +0.180 A 
ATOM     17  N   UNL     1       1.247   2.069   0.001  0.00  0.00    -0.173 NA
ATOM     18  N   UNL     1       2.194   1.071  -0.013  0.00  0.00    -0.267 N 
ATOM     19  C   UNL     1       1.775  -0.220  -0.016  0.00  0.00    +0.141 A 
ATOM     20  S   UNL     1       2.697  -1.663  -0.033  0.00  0.00    -0.023 S 
ATOM     21  S   UNL     1       0.002  -0.004   0.002  0.00  0.00    -0.049 S 
ENDBRANCH  15  18
ENDBRANCH   1  15
TORSDOF 3
