REMARK  Name = ZINC66624842
REMARK  6 active torsions:
REMARK  status: ('A' for Active; 'I' for Inactive)
REMARK    1  A    between atoms: C_1  and  C_2
REMARK    2  A    between atoms: C_2  and  C_3
REMARK    3  A    between atoms: C_2  and  C_4
REMARK    4  A    between atoms: C_12  and  C_14
REMARK    5  A    between atoms: C_14  and  C_15
REMARK    6  A    between atoms: C_15  and  C_16
REMARK                            x       y       z     vdW  Elec       q    Type
REMARK                         _______ _______ _______ _____ _____    ______ ____
ROOT
ATOM      1  C   UNL     1      -0.351  -4.217  -0.060  0.00  0.00    +0.105 C 
ENDROOT
BRANCH   1   9
ATOM      2  C   UNL     1      -1.408  -0.531   0.183  0.00  0.00    +0.164 C 
ATOM      3  C   UNL     1      -2.042   0.040   1.422  0.00  0.00    +0.234 C 
ATOM      4  O   UNL     1      -1.942   1.231   1.626  0.00  0.00    -0.274 OA
ATOM      5  N   UNL     1      -2.710  -0.703   2.305  0.00  0.00    -0.312 N 
ATOM      6  C   UNL     1      -2.834  -2.153   2.240  0.00  0.00    +0.123 C 
ATOM      7  C   UNL     1      -2.596  -2.654   0.814  0.00  0.00    +0.127 C 
ATOM      8  N   UNL     1      -1.386  -1.997   0.289  0.00  0.00    -0.288 N 
ATOM      9  C   UNL     1      -0.302  -2.711  -0.076  0.00  0.00    +0.217 C 
ATOM     10  O   UNL     1       0.713  -2.140  -0.417  0.00  0.00    -0.276 OA
ATOM     11  H   UNL     1      -3.143  -0.247   3.043  0.00  0.00    +0.149 HD
BRANCH   2  13
ATOM     12  C   UNL     1      -0.007   1.514  -0.132  0.00  0.00    +0.009 C 
ATOM     13  C   UNL     1       0.023  -0.005   0.051  0.00  0.00    +0.012 C 
ATOM     14  C   UNL     1       0.812  -0.351   1.315  0.00  0.00    +0.009 C 
ENDBRANCH   2  13
ENDBRANCH   1   9
BRANCH   1  15
ATOM     15  C   UNL     1       0.999  -4.776  -0.514  0.00  0.00    +0.105 C 
BRANCH  15  16
ATOM     16  C   UNL     1       0.950  -6.282  -0.498  0.00  0.00    +0.220 C 
ATOM     17  O   UNL     1      -0.034  -6.852  -0.076  0.00  0.00    -0.275 OA
ATOM     18  N   UNL     1       2.000  -6.995  -0.953  0.00  0.00    -0.265 N 
ATOM     19  C   UNL     1       3.246  -6.333  -1.373  0.00  0.00    +0.154 C 
ATOM     20  C   UNL     1       3.726  -7.021  -2.659  0.00  0.00    +0.248 C 
ATOM     21  O   UNL     1       3.917  -8.413  -2.393  0.00  0.00    -0.489 OA
ATOM     22  C   UNL     1       2.912  -9.082  -1.770  0.00  0.00    +0.142 A 
ATOM     23  C   UNL     1       1.945  -8.397  -1.036  0.00  0.00    +0.078 A 
ATOM     24  C   UNL     1       0.932  -9.092  -0.396  0.00  0.00    +0.027 A 
ATOM     25  C   UNL     1       0.881 -10.471  -0.483  0.00  0.00    +0.002 A 
ATOM     26  C   UNL     1       1.839 -11.155  -1.208  0.00  0.00    +0.004 A 
ATOM     27  C   UNL     1       2.850 -10.465  -1.858  0.00  0.00    +0.047 A 
ENDBRANCH  15  16
ENDBRANCH   1  15
TORSDOF 4
