REMARK  Name = ZINC38386209
REMARK  10 active torsions:
REMARK  status: ('A' for Active; 'I' for Inactive)
REMARK    1  A    between atoms: C_1  and  C_2
REMARK    2  A    between atoms: C_2  and  C_4
REMARK    3  A    between atoms: C_2  and  N_14
REMARK    4  A    between atoms: C_7  and  C_10
REMARK    5  A    between atoms: C_10  and  C_11
REMARK    6  A    between atoms: C_11  and  C_12
REMARK    7  A    between atoms: C_11  and  C_13
REMARK    8  A    between atoms: N_14  and  C_15
REMARK    9  A    between atoms: C_15  and  C_17
REMARK   10  A    between atoms: C_15  and  C_18
REMARK                            x       y       z     vdW  Elec       q    Type
REMARK                         _______ _______ _______ _____ _____    ______ ____
ROOT
ATOM      1  N   UNL     1      -1.376  -0.512   0.012  0.00  0.00    +0.391 N 
ATOM      2  H   UNL     1      -1.363  -1.518   0.090  0.00  0.00    -0.084 HD
ATOM      3  H   UNL     1      -1.873  -0.121   0.799  0.00  0.00    -0.084 HD
ENDROOT
BRANCH   1   5
ATOM      4  C   UNL     1      -0.019   1.526   0.010  0.00  0.00    -0.009 C 
ATOM      5  C   UNL     1       0.002  -0.004   0.002  0.00  0.00    -0.043 C 
BRANCH   5   6
ATOM      6  C   UNL     1       0.731  -0.503   1.223  0.00  0.00    -0.062 A 
ATOM      7  C   UNL     1       0.081  -0.558   2.442  0.00  0.00    +0.002 A 
ATOM      8  C   UNL     1       0.749  -1.016   3.562  0.00  0.00    +0.004 A 
ATOM      9  C   UNL     1       2.068  -1.420   3.463  0.00  0.00    -0.047 A 
ATOM     10  C   UNL     1       2.718  -1.365   2.244  0.00  0.00    +0.004 A 
ATOM     11  C   UNL     1       2.048  -0.911   1.123  0.00  0.00    +0.002 A 
BRANCH   9  12
ATOM     12  C   UNL     1       2.797  -1.918   4.684  0.00  0.00    +0.038 C 
BRANCH  12  13
ATOM     13  C   UNL     1       2.611  -3.432   4.807  0.00  0.00    -0.013 C 
ATOM     14  C   UNL     1       3.451  -3.956   5.973  0.00  0.00    +0.007 C 
ATOM     15  C   UNL     1       1.135  -3.745   5.061  0.00  0.00    +0.007 C 
ENDBRANCH  12  13
ENDBRANCH   9  12
ENDBRANCH   5   6
ENDBRANCH   1   5
BRANCH   1  16
ATOM     16  C   UNL     1      -2.050  -0.126  -1.234  0.00  0.00    +0.014 C 
ATOM     17  C   UNL     1      -1.371  -0.820  -2.417  0.00  0.00    -0.004 C 
BRANCH  16  18
ATOM     18  C   UNL     1      -3.498  -0.540  -1.172  0.00  0.00    +0.206 C 
ATOM     19  O   UNL     1      -3.926  -1.102  -0.186  0.00  0.00    -0.277 OA
ATOM     20  N   UNL     1      -4.316  -0.286  -2.212  0.00  0.00    -0.242 N 
ATOM     21  C   UNL     1      -5.611  -0.657  -2.156  0.00  0.00    +0.303 C 
ATOM     22  O   UNL     1      -6.040  -1.220  -1.168  0.00  0.00    -0.253 OA
ATOM     23  N   UNL     1      -6.430  -0.403  -3.196  0.00  0.00    -0.313 N 
ATOM     24  H   UNL     1      -3.974   0.163  -3.001  0.00  0.00    +0.159 HD
ATOM     25  H   UNL     1      -6.088   0.046  -3.985  0.00  0.00    +0.146 HD
ATOM     26  H   UNL     1      -7.362  -0.669  -3.156  0.00  0.00    +0.146 HD
ENDBRANCH  16  18
ENDBRANCH   1  16
TORSDOF 6
