REMARK  Name = ZINC40005088
REMARK  6 active torsions:
REMARK  status: ('A' for Active; 'I' for Inactive)
REMARK    1  A    between atoms: C_1  and  C_2
REMARK    2  A    between atoms: C_2  and  C_3
REMARK    3  A    between atoms: C_2  and  C_4
REMARK    4  A    between atoms: C_2  and  N_5
REMARK    5  A    between atoms: N_5  and  C_6
REMARK    6  A    between atoms: C_9  and  C_12
REMARK                            x       y       z     vdW  Elec       q    Type
REMARK                         _______ _______ _______ _____ _____    ______ ____
ROOT
ATOM      1  C   UNL     1       2.066  -0.443  -1.349  0.00  0.00    +0.109 C 
ATOM      2  N   UNL     1       2.608  -0.973  -2.616  0.00  0.00    -0.292 NA
ATOM      3  C   UNL     1       3.674  -1.665  -2.616  0.00  0.00    +0.052 C 
ATOM      4  C   UNL     1       4.367  -1.931  -1.288  0.00  0.00    +0.124 C 
ATOM      5  S   UNL     1       3.025  -1.431  -0.119  0.00  0.00    -0.147 S 
ENDROOT
BRANCH   3   6
ATOM      6  C   UNL     1       4.226  -2.199  -3.875  0.00  0.00    +0.000 A 
ATOM      7  C   UNL     1       5.397  -2.964  -3.856  0.00  0.00    +0.012 A 
ATOM      8  C   UNL     1       5.913  -3.463  -5.031  0.00  0.00    +0.030 A 
ATOM      9  C   UNL     1       5.272  -3.206  -6.236  0.00  0.00    +0.087 A 
ATOM     10  C   UNL     1       4.103  -2.443  -6.263  0.00  0.00    +0.157 A 
ATOM     11  C   UNL     1       3.577  -1.946  -5.085  0.00  0.00    +0.058 A 
ATOM     12  O   UNL     1       3.707  -2.360  -7.557  0.00  0.00    -0.408 OA
ATOM     13  C   UNL     1       4.575  -3.034  -8.327  0.00  0.00    +0.419 A 
ATOM     14  O   UNL     1       4.500  -3.149  -9.535  0.00  0.00    -0.223 OA
ATOM     15  N   UNL     1       5.544  -3.563  -7.554  0.00  0.00    -0.288 N 
ATOM     16  H   UNL     1       6.294  -4.097  -7.860  0.00  0.00    +0.172 HD
ENDBRANCH   3   6
BRANCH   1  17
ATOM     17  N   UNL     1       0.625  -0.710  -1.235  0.00  0.00    +0.403 N 
ATOM     18  H   UNL     1       0.481  -1.681  -1.002  0.00  0.00    -0.081 HD
ATOM     19  H   UNL     1       0.175  -0.505  -2.115  0.00  0.00    -0.081 HD
BRANCH  17  21
ATOM     20  C   UNL     1       0.152   1.606  -0.598  0.00  0.00    -0.011 C 
ATOM     21  C   UNL     1       0.051   0.137  -0.182  0.00  0.00    -0.073 C 
ATOM     22  C   UNL     1       0.822  -0.077   1.122  0.00  0.00    -0.011 C 
ATOM     23  C   UNL     1      -1.418  -0.234   0.028  0.00  0.00    -0.011 C 
ENDBRANCH  17  21
ENDBRANCH   1  17
TORSDOF 3
