REMARK  Name = ZINC39352445
REMARK  17 active torsions:
REMARK  status: ('A' for Active; 'I' for Inactive)
REMARK    1  A    between atoms: C_1  and  C_2
REMARK    2  A    between atoms: C_2  and  C_4
REMARK    3  A    between atoms: C_2  and  N_7
REMARK    4  A    between atoms: C_4  and  O_5
REMARK    5  A    between atoms: O_5  and  C_6
REMARK    6  A    between atoms: N_7  and  C_8
REMARK    7  A    between atoms: N_14  and  C_30
REMARK    8  A    between atoms: C_15  and  C_26
REMARK    9  A    between atoms: C_17  and  N_19
REMARK   10  A    between atoms: C_20  and  C_22
REMARK   11  A    between atoms: C_22  and  C_23
REMARK   12  A    between atoms: C_23  and  O_24
REMARK   13  A    between atoms: O_24  and  C_25
REMARK   14  A    between atoms: C_26  and  O_28
REMARK   15  A    between atoms: O_28  and  C_29
REMARK   16  A    between atoms: C_30  and  C_31
REMARK   17  A    between atoms: C_31  and  C_32
REMARK                            x       y       z     vdW  Elec       q    Type
REMARK                         _______ _______ _______ _____ _____    ______ ____
ROOT
ATOM      1  C   UNL     1      -2.077  -0.648  -1.190  0.00  0.00    +0.044 A 
ATOM      2  C   UNL     1      -3.388  -1.124  -1.194  0.00  0.00    +0.033 A 
ATOM      3  C   UNL     1      -4.042  -1.241  -2.406  0.00  0.00    +0.015 A 
ATOM      4  C   UNL     1      -3.394  -0.889  -3.582  0.00  0.00    +0.105 A 
ATOM      5  N   UNL     1      -2.141  -0.438  -3.533  0.00  0.00    -0.348 N 
ATOM      6  C   UNL     1      -1.487  -0.307  -2.397  0.00  0.00    +0.107 A 
ATOM      7  N   UNL     1      -4.215  -1.077  -4.692  0.00  0.00    -0.301 N 
ATOM      8  C   UNL     1      -5.521  -1.593  -4.275  0.00  0.00    +0.208 C 
ATOM      9  C   UNL     1      -5.436  -1.714  -2.744  0.00  0.00    +0.138 C 
ATOM     10  H   UNL     1      -1.697  -0.195  -4.360  0.00  0.00    +0.167 HD
ENDROOT
BRANCH   9  11
ATOM     11  N   UNL     1      -6.437  -0.855  -2.107  0.00  0.00    -0.306 N 
ATOM     12  C   UNL     1      -6.838  -1.109  -0.846  0.00  0.00    +0.216 C 
ATOM     13  O   UNL     1      -6.371  -2.050  -0.239  0.00  0.00    -0.276 OA
ATOM     14  H   UNL     1      -6.810  -0.103  -2.592  0.00  0.00    +0.149 HD
BRANCH  12  15
ATOM     15  C   UNL     1      -7.868  -0.225  -0.190  0.00  0.00    +0.124 C 
BRANCH  15  16
ATOM     16  C   UNL     1      -8.143  -0.729   1.228  0.00  0.00    +0.168 C 
BRANCH  16  17
ATOM     17  O   UNL     1      -9.119   0.109   1.850  0.00  0.00    -0.382 OA
ATOM     18  C   UNL     1      -9.450  -0.277   3.186  0.00  0.00    +0.194 C 
ENDBRANCH  16  17
ENDBRANCH  15  16
ENDBRANCH  12  15
ENDBRANCH   9  11
BRANCH   1  19
ATOM     19  N   UNL     1      -1.372  -0.511   0.012  0.00  0.00    -0.338 N 
ATOM     20  H   UNL     1      -1.794  -0.752   0.852  0.00  0.00    +0.146 HD
BRANCH  19  22
ATOM     21  C   UNL     1      -0.019   1.526   0.010  0.00  0.00    +0.030 C 
ATOM     22  C   UNL     1       0.002  -0.004   0.002  0.00  0.00    +0.093 C 
BRANCH  22  23
ATOM     23  C   UNL     1       0.742  -0.511   1.242  0.00  0.00    +0.181 C 
BRANCH  23  24
ATOM     24  O   UNL     1       0.143   0.044   2.414  0.00  0.00    -0.381 OA
ATOM     25  C   UNL     1       0.763  -0.368   3.634  0.00  0.00    +0.194 C 
ENDBRANCH  23  24
ENDBRANCH  22  23
ENDBRANCH  19  22
ENDBRANCH   1  19
BRANCH   8  26
ATOM     26  C   UNL     1      -6.612  -0.630  -4.666  0.00  0.00    +0.330 C 
ATOM     27  O   UNL     1      -6.341   0.518  -4.926  0.00  0.00    -0.249 OA
BRANCH  26  28
ATOM     28  O   UNL     1      -7.887  -1.048  -4.724  0.00  0.00    -0.467 OA
ATOM     29  C   UNL     1      -8.870  -0.082  -5.101  0.00  0.00    +0.280 C 
ENDBRANCH  26  28
ENDBRANCH   8  26
BRANCH   7  30
ATOM     30  C   UNL     1      -3.828  -0.797  -6.077  0.00  0.00    +0.112 C 
BRANCH  30  31
ATOM     31  C   UNL     1      -3.202  -2.050  -6.695  0.00  0.00    +0.056 C 
BRANCH  31  32
ATOM     32  C   UNL     1      -2.804  -1.763  -8.119  0.00  0.00    -0.021 A 
ATOM     33  C   UNL     1      -1.550  -1.153  -8.567  0.00  0.00    +0.003 A 
ATOM     34  C   UNL     1      -0.413  -0.677  -7.911  0.00  0.00    +0.010 A 
ATOM     35  C   UNL     1       0.618  -0.150  -8.636  0.00  0.00    +0.001 A 
ATOM     36  C   UNL     1       0.545  -0.082 -10.020  0.00  0.00    +0.002 A 
ATOM     37  C   UNL     1      -0.568  -0.546 -10.688  0.00  0.00    +0.026 A 
ATOM     38  C   UNL     1      -1.629  -1.087  -9.971  0.00  0.00    +0.047 A 
ATOM     39  N   UNL     1      -2.845  -1.621 -10.334  0.00  0.00    -0.360 N 
ATOM     40  C   UNL     1      -3.528  -2.023  -9.219  0.00  0.00    +0.087 A 
ATOM     41  H   UNL     1      -3.168  -1.703 -11.245  0.00  0.00    +0.165 HD
ENDBRANCH  31  32
ENDBRANCH  30  31
ENDBRANCH   7  30
TORSDOF 13
