REMARK  Name = ZINC67043398
REMARK  7 active torsions:
REMARK  status: ('A' for Active; 'I' for Inactive)
REMARK    1  A    between atoms: C_3  and  N_23
REMARK    2  A    between atoms: C_6  and  C_7
REMARK    3  A    between atoms: C_7  and  N_8
REMARK    4  A    between atoms: N_11  and  N_12
REMARK    5  A    between atoms: C_13  and  C_15
REMARK    6  A    between atoms: C_15  and  C_16
REMARK    7  A    between atoms: C_16  and  C_17
REMARK                            x       y       z     vdW  Elec       q    Type
REMARK                         _______ _______ _______ _____ _____    ______ ____
ROOT
ATOM      1  N   UNL     1      -1.720  -1.028  -1.368  0.00  0.00    -0.294 N 
ATOM      2  C   UNL     1      -2.857  -1.711  -1.606  0.00  0.00    +0.316 C 
ATOM      3  O   UNL     1      -3.524  -2.124  -0.678  0.00  0.00    -0.251 OA
ATOM      4  N   UNL     1      -3.254  -1.937  -2.874  0.00  0.00    -0.218 N 
ATOM      5  H   UNL     1      -1.188  -0.698  -2.108  0.00  0.00    +0.151 HD
ATOM      6  H   UNL     1      -4.072  -2.428  -3.046  0.00  0.00    +0.174 HD
ENDROOT
BRANCH   4   7
ATOM      7  N   UNL     1      -2.485  -1.460  -3.944  0.00  0.00    -0.233 N 
ATOM      8  C   UNL     1      -2.882  -1.686  -5.212  0.00  0.00    +0.229 C 
ATOM      9  O   UNL     1      -3.905  -2.301  -5.427  0.00  0.00    -0.274 OA
ATOM     10  H   UNL     1      -1.667  -0.969  -3.773  0.00  0.00    +0.173 HD
BRANCH   8  11
ATOM     11  C   UNL     1      -2.055  -1.173  -6.363  0.00  0.00    +0.097 C 
BRANCH  11  12
ATOM     12  C   UNL     1      -2.723  -1.562  -7.684  0.00  0.00    +0.013 C 
BRANCH  12  13
ATOM     13  C   UNL     1      -1.884  -1.042  -8.852  0.00  0.00    -0.011 C 
ATOM     14  C   UNL     1      -1.879   0.488  -8.836  0.00  0.00    +0.003 C 
ATOM     15  C   UNL     1      -1.039   1.008 -10.004  0.00  0.00    +0.000 C 
ATOM     16  C   UNL     1      -1.639   0.514 -11.323  0.00  0.00    +0.000 C 
ATOM     17  C   UNL     1      -1.644  -1.015 -11.339  0.00  0.00    +0.000 C 
ATOM     18  C   UNL     1      -2.483  -1.535 -10.171  0.00  0.00    +0.003 C 
ENDBRANCH  12  13
ENDBRANCH  11  12
ENDBRANCH   8  11
ENDBRANCH   4   7
BRANCH   1  19
ATOM     19  C   UNL     1      -1.288  -0.783   0.011  0.00  0.00    +0.142 C 
BRANCH  19  25
ATOM     20  C   UNL     1      -0.017   1.384   0.010  0.00  0.00    +0.010 A 
ATOM     21  C   UNL     1       1.190   2.061   0.002  0.00  0.00    +0.042 A 
ATOM     22  C   UNL     1       2.374   1.332  -0.013  0.00  0.00    +0.099 A 
ATOM     23  N   UNL     1       2.350   0.008  -0.020  0.00  0.00    -0.349 N 
ATOM     24  C   UNL     1       1.215  -0.664  -0.013  0.00  0.00    +0.089 A 
ATOM     25  C   UNL     1       0.002  -0.004   0.002  0.00  0.00    -0.014 A 
ATOM     26  H   UNL     1       3.189  -0.480  -0.031  0.00  0.00    +0.167 HD
BRANCH  22  27
ATOM     27  N   UNL     1       3.594   1.999  -0.022  0.00  0.00    -0.317 N 
ATOM     28  C   UNL     1       3.772   3.458  -0.010  0.00  0.00    +0.106 C 
ATOM     29  C   UNL     1       5.290   3.734  -0.052  0.00  0.00    +0.020 C 
ATOM     30  C   UNL     1       5.865   2.426  -0.657  0.00  0.00    +0.020 C 
ATOM     31  C   UNL     1       4.922   1.360  -0.038  0.00  0.00    +0.106 C 
ENDBRANCH  22  27
ENDBRANCH  19  25
ENDBRANCH   1  19
TORSDOF 7
