REMARK  Name = ZINC22816745
REMARK  6 active torsions:
REMARK  status: ('A' for Active; 'I' for Inactive)
REMARK    1  A    between atoms: C_1  and  C_2
REMARK    2  A    between atoms: C_2  and  C_4
REMARK    3  A    between atoms: C_2  and  N_14
REMARK    4  A    between atoms: C_15  and  C_17
REMARK    5  A    between atoms: C_17  and  N_18
REMARK    6  A    between atoms: N_21  and  C_24
REMARK                            x       y       z     vdW  Elec       q    Type
REMARK                         _______ _______ _______ _____ _____    ______ ____
ROOT
ATOM      1  N   UNL     1       0.711  -0.489   1.189  0.00  0.00    -0.311 N 
ATOM      2  C   UNL     1       2.054  -0.600   1.174  0.00  0.00    +0.227 C 
ATOM      3  O   UNL     1       2.676  -0.297   0.177  0.00  0.00    -0.274 OA
ATOM      4  H   UNL     1       0.213  -0.731   1.986  0.00  0.00    +0.149 HD
ENDROOT
BRANCH   1   6
ATOM      5  C   UNL     1      -0.019   1.526   0.010  0.00  0.00    +0.028 C 
ATOM      6  C   UNL     1       0.002  -0.004   0.002  0.00  0.00    +0.076 C 
BRANCH   6   7
ATOM      7  C   UNL     1      -1.433  -0.534   0.013  0.00  0.00    -0.010 C 
ATOM      8  C   UNL     1      -1.413  -2.063   0.004  0.00  0.00    +0.012 C 
ATOM      9  C   UNL     1      -2.848  -2.593   0.015  0.00  0.00    -0.010 C 
ATOM     10  C   UNL     1      -3.588  -2.086  -1.224  0.00  0.00    +0.007 C 
ATOM     11  C   UNL     1      -3.609  -0.556  -1.216  0.00  0.00    -0.010 C 
ATOM     12  C   UNL     1      -2.173  -0.027  -1.227  0.00  0.00    +0.012 C 
ATOM     13  C   UNL     1      -4.325  -0.063   0.043  0.00  0.00    +0.007 C 
ATOM     14  C   UNL     1      -3.585  -0.570   1.282  0.00  0.00    -0.010 C 
ATOM     15  C   UNL     1      -3.564  -2.100   1.274  0.00  0.00    +0.007 C 
ATOM     16  C   UNL     1      -2.149  -0.040   1.272  0.00  0.00    +0.012 C 
ENDBRANCH   6   7
ENDBRANCH   1   6
BRANCH   2  17
ATOM     17  C   UNL     1       2.783  -1.099   2.395  0.00  0.00    +0.180 C 
BRANCH  17  18
ATOM     18  N   UNL     1       4.226  -1.127   2.125  0.00  0.00    -0.298 NA
ATOM     19  C   UNL     1       4.551  -2.127   1.098  0.00  0.00    +0.066 C 
ATOM     20  C   UNL     1       6.052  -2.083   0.804  0.00  0.00    -0.064 C 
ATOM     21  N   UNL     1       6.801  -2.362   2.037  0.00  0.00    +0.379 N 
ATOM     22  C   UNL     1       6.485  -1.342   3.046  0.00  0.00    -0.064 C 
ATOM     23  C   UNL     1       4.987  -1.379   3.357  0.00  0.00    +0.066 C 
ATOM     24  C   UNL     1       8.241  -2.338   1.751  0.00  0.00    -0.096 C 
ATOM     25  H   UNL     1       6.543  -3.273   2.388  0.00  0.00    -0.082 HD
ENDBRANCH  17  18
ENDBRANCH   2  17
TORSDOF 4
