REMARK  Name = ZINC39988495
REMARK  5 active torsions:
REMARK  status: ('A' for Active; 'I' for Inactive)
REMARK    1  A    between atoms: C_19  and  C_21
REMARK    2  A    between atoms: C_21  and  C_22
REMARK    3  A    between atoms: C_22  and  C_23
REMARK    4  A    between atoms: C_23  and  C_24
REMARK    5  A    between atoms: C_24  and  N_25
REMARK                            x       y       z     vdW  Elec       q    Type
REMARK                         _______ _______ _______ _____ _____    ______ ____
ROOT
ATOM      1  C   UNL     1      -0.018   1.474   0.010  0.00  0.00    +0.136 C 
ATOM      2  C   UNL     1       1.424   1.986  -0.001  0.00  0.00    +0.179 C 
ATOM      3  O   UNL     1       1.589   2.968   1.024  0.00  0.00    -0.376 OA
ATOM      4  C   UNL     1       2.899   3.537   1.078  0.00  0.00    +0.188 C 
ATOM      5  C   UNL     1       3.143   4.123   2.470  0.00  0.00    +0.188 C 
ATOM      6  O   UNL     1       4.118   3.334   3.155  0.00  0.00    -0.375 OA
ATOM      7  C   UNL     1       4.083   3.473   4.577  0.00  0.00    +0.188 C 
ATOM      8  C   UNL     1       4.688   2.226   5.226  0.00  0.00    +0.188 C 
ATOM      9  O   UNL     1       3.707   1.596   6.052  0.00  0.00    -0.375 OA
ATOM     10  C   UNL     1       3.932   0.200   6.260  0.00  0.00    +0.188 C 
ATOM     11  C   UNL     1       2.597  -0.498   6.523  0.00  0.00    +0.188 C 
ATOM     12  O   UNL     1       2.353  -1.462   5.497  0.00  0.00    -0.375 OA
ATOM     13  C   UNL     1       0.980  -1.833   5.362  0.00  0.00    +0.188 C 
ATOM     14  C   UNL     1       0.744  -2.415   3.967  0.00  0.00    +0.188 C 
ATOM     15  O   UNL     1      -0.020  -1.491   3.188  0.00  0.00    -0.376 OA
ATOM     16  C   UNL     1       0.099  -1.684   1.777  0.00  0.00    +0.179 C 
ATOM     17  C   UNL     1      -0.796  -0.678   1.048  0.00  0.00    +0.136 C 
ATOM     18  N   UNL     1       0.002  -0.004   0.002  0.00  0.00    -0.297 N 
ATOM     19  C   UNL     1       0.710  -0.700  -0.910  0.00  0.00    +0.216 C 
ATOM     20  O   UNL     1       1.353  -0.113  -1.754  0.00  0.00    -0.276 OA
ENDROOT
BRANCH  19  21
ATOM     21  C   UNL     1       0.702  -2.206  -0.881  0.00  0.00    +0.096 C 
BRANCH  21  22
ATOM     22  C   UNL     1       1.578  -2.743  -2.014  0.00  0.00    +0.007 C 
BRANCH  22  23
ATOM     23  C   UNL     1       1.570  -4.273  -1.985  0.00  0.00    -0.019 C 
BRANCH  23  24
ATOM     24  C   UNL     1       2.446  -4.810  -3.118  0.00  0.00    -0.086 C 
BRANCH  24  25
ATOM     25  N   UNL     1       2.438  -6.278  -3.090  0.00  0.00    +0.378 N 
ATOM     26  H   UNL     1       3.016  -6.632  -3.837  0.00  0.00    -0.090 HD
ATOM     27  H   UNL     1       2.799  -6.600  -2.204  0.00  0.00    -0.090 HD
ATOM     28  H   UNL     1       1.493  -6.612  -3.208  0.00  0.00    -0.090 HD
ENDBRANCH  24  25
ENDBRANCH  23  24
ENDBRANCH  22  23
ENDBRANCH  21  22
ENDBRANCH  19  21
TORSDOF 5
