REMARK  Name = ZINC65818213
REMARK  8 active torsions:
REMARK  status: ('A' for Active; 'I' for Inactive)
REMARK    1  A    between atoms: C_3  and  N_23
REMARK    2  A    between atoms: C_4  and  N_10
REMARK    3  A    between atoms: C_6  and  C_7
REMARK    4  A    between atoms: N_13  and  C_14
REMARK    5  A    between atoms: C_14  and  C_15
REMARK    6  A    between atoms: C_15  and  C_16
REMARK    7  A    between atoms: C_16  and  C_17
REMARK    8  A    between atoms: C_17  and  N_18
REMARK                            x       y       z     vdW  Elec       q    Type
REMARK                         _______ _______ _______ _____ _____    ______ ____
ROOT
ATOM      1  C   UNL     1      -0.025   1.378   0.046  0.00  0.00    +0.015 A 
ATOM      2  C   UNL     1       1.155   2.089   0.030  0.00  0.00    +0.026 A 
ATOM      3  C   UNL     1       2.373   1.419   0.002  0.00  0.00    +0.051 A 
ATOM      4  C   UNL     1       2.405   0.022  -0.010  0.00  0.00    +0.057 A 
ATOM      5  C   UNL     1       1.224  -0.694   0.007  0.00  0.00    +0.038 A 
ATOM      6  C   UNL     1       0.000  -0.019   0.035  0.00  0.00    +0.038 A 
ENDROOT
BRANCH   4   7
ATOM      7  N   UNL     1       3.634  -0.652  -0.038  0.00  0.00    -0.268 N 
ATOM      8  C   UNL     1       3.706  -1.901  -0.540  0.00  0.00    +0.304 C 
ATOM      9  O   UNL     1       2.730  -2.404  -1.060  0.00  0.00    -0.253 OA
ATOM     10  N   UNL     1       4.861  -2.591  -0.465  0.00  0.00    -0.299 N 
ATOM     11  H   UNL     1       4.432  -0.219   0.302  0.00  0.00    +0.156 HD
ATOM     12  H   UNL     1       5.641  -2.189  -0.050  0.00  0.00    +0.150 HD
BRANCH  10  13
ATOM     13  C   UNL     1       4.940  -3.949  -1.010  0.00  0.00    +0.106 C 
BRANCH  13  14
ATOM     14  C   UNL     1       6.350  -4.503  -0.797  0.00  0.00    +0.020 C 
BRANCH  14  15
ATOM     15  C   UNL     1       6.432  -5.921  -1.367  0.00  0.00    +0.023 C 
BRANCH  15  16
ATOM     16  C   UNL     1       7.842  -6.475  -1.154  0.00  0.00    +0.123 C 
BRANCH  16  17
ATOM     17  N   UNL     1       7.921  -7.832  -1.699  0.00  0.00    -0.338 N 
ATOM     18  C   UNL     1       7.650  -8.994  -1.028  0.00  0.00    +0.104 A 
ATOM     19  C   UNL     1       7.846 -10.002  -1.899  0.00  0.00    +0.101 A 
ATOM     20  N   UNL     1       8.226  -9.470  -3.070  0.00  0.00    -0.352 N 
ATOM     21  C   UNL     1       8.268  -8.171  -2.959  0.00  0.00    +0.173 A 
ATOM     22  H   UNL     1       8.433  -9.972  -3.874  0.00  0.00    +0.166 HD
ENDBRANCH  16  17
ENDBRANCH  15  16
ENDBRANCH  14  15
ENDBRANCH  13  14
ENDBRANCH  10  13
ENDBRANCH   4   7
BRANCH   3  23
ATOM     23  N   UNL     1       3.563   2.142  -0.014  0.00  0.00    -0.328 N 
ATOM     24  C   UNL     1       4.177   2.546  -1.287  0.00  0.00    +0.105 C 
ATOM     25  C   UNL     1       4.419   4.058  -1.260  0.00  0.00    +0.019 C 
ATOM     26  C   UNL     1       5.246   4.416  -0.022  0.00  0.00    +0.003 C 
ATOM     27  C   UNL     1       4.472   4.028   1.240  0.00  0.00    +0.019 C 
ATOM     28  C   UNL     1       4.227   2.521   1.241  0.00  0.00    +0.105 C 
ENDBRANCH   3  23
BRANCH   6  29
ATOM     29  C   UNL     1      -1.264  -0.780   0.052  0.00  0.00    +0.242 C 
ATOM     30  O   UNL     1      -1.241  -1.996   0.042  0.00  0.00    -0.270 OA
ATOM     31  N   UNL     1      -2.443  -0.128   0.079  0.00  0.00    -0.325 N 
ATOM     32  H   UNL     1      -2.461   0.842   0.087  0.00  0.00    +0.145 HD
ATOM     33  H   UNL     1      -3.274  -0.628   0.090  0.00  0.00    +0.145 HD
ENDBRANCH   6  29
TORSDOF 8
