REMARK  Name = ZINC40823495
REMARK  5 active torsions:
REMARK  status: ('A' for Active; 'I' for Inactive)
REMARK    1  A    between atoms: C_1  and  C_2
REMARK    2  A    between atoms: C_6  and  C_7
REMARK    3  A    between atoms: N_23  and  N_24
REMARK    4  A    between atoms: C_25  and  C_27
REMARK    5  A    between atoms: C_31  and  C_32
REMARK                            x       y       z     vdW  Elec       q    Type
REMARK                         _______ _______ _______ _____ _____    ______ ____
ROOT
ATOM      1  C   UNL     1      -0.018   1.503   0.010  0.00  0.00    +0.048 C 
ATOM      2  C   UNL     1       0.002  -0.004   0.002  0.00  0.00    +0.009 A 
ATOM      3  C   UNL     1       0.009  -0.838  -1.122  0.00  0.00    +0.042 A 
ATOM      4  C   UNL     1       0.027  -2.138  -0.672  0.00  0.00    +0.115 A 
ATOM      5  O   UNL     1       0.035  -2.112   0.658  0.00  0.00    -0.454 OA
ATOM      6  C   UNL     1       0.024  -0.831   1.091  0.00  0.00    +0.193 A 
ATOM      7  C   UNL     1       0.033  -3.326  -1.599  0.00  0.00    +0.075 C 
ATOM      8  C   UNL     1      -0.491  -2.903  -2.974  0.00  0.00    +0.014 C 
ATOM      9  C   UNL     1       0.279  -1.685  -3.494  0.00  0.00    +0.058 C 
ATOM     10  C   UNL     1       0.001  -0.512  -2.566  0.00  0.00    +0.070 C 
ATOM     11  N   UNL     1      -0.228   0.686  -3.007  0.00  0.00    -0.184 NA
ENDROOT
BRANCH   6  12
ATOM     12  C   UNL     1       0.032  -0.400   2.493  0.00  0.00    +0.285 C 
ATOM     13  O   UNL     1       0.018   0.786   2.765  0.00  0.00    -0.266 OA
ATOM     14  N   UNL     1       0.054  -1.318   3.480  0.00  0.00    -0.258 N 
ATOM     15  C   UNL     1       0.061  -0.912   4.803  0.00  0.00    +0.166 A 
ATOM     16  N   UNL     1       0.043   0.307   5.290  0.00  0.00    -0.225 NA
ATOM     17  C   UNL     1       0.053   0.559   6.617  0.00  0.00    +0.080 A 
ATOM     18  C   UNL     1       0.036   1.814   7.268  0.00  0.00    +0.029 A 
ATOM     19  C   UNL     1       0.050   1.894   8.636  0.00  0.00    +0.002 A 
ATOM     20  C   UNL     1       0.080   0.755   9.428  0.00  0.00    +0.001 A 
ATOM     21  C   UNL     1       0.097  -0.489   8.825  0.00  0.00    +0.017 A 
ATOM     22  C   UNL     1       0.083  -0.579   7.455  0.00  0.00    +0.041 A 
ATOM     23  S   UNL     1       0.089  -1.913   6.283  0.00  0.00    -0.052 S 
ATOM     24  H   UNL     1       0.065  -2.263   3.263  0.00  0.00    +0.157 HD
ENDBRANCH   6  12
BRANCH  11  25
ATOM     25  N   UNL     1      -0.223   0.938  -4.386  0.00  0.00    -0.203 N 
ATOM     26  C   UNL     1      -0.460   2.183  -4.844  0.00  0.00    +0.267 C 
ATOM     27  O   UNL     1      -0.679   3.088  -4.062  0.00  0.00    -0.268 OA
ATOM     28  H   UNL     1      -0.049   0.216  -5.010  0.00  0.00    +0.178 HD
BRANCH  26  29
ATOM     29  C   UNL     1      -0.455   2.447  -6.294  0.00  0.00    +0.079 A 
ATOM     30  C   UNL     1      -0.218   1.478  -7.373  0.00  0.00    +0.054 A 
ATOM     31  C   UNL     1      -0.312   2.171  -8.519  0.00  0.00    +0.196 A 
ATOM     32  O   UNL     1      -0.580   3.455  -8.235  0.00  0.00    -0.467 OA
ATOM     33  C   UNL     1      -0.675   3.642  -6.915  0.00  0.00    +0.114 A 
ATOM     34  C   UNL     1      -0.973   4.950  -6.229  0.00  0.00    +0.087 C 
ENDBRANCH  26  29
ENDBRANCH  11  25
TORSDOF 3
