REMARK  Name = ZINC06404566
REMARK  4 active torsions:
REMARK  status: ('A' for Active; 'I' for Inactive)
REMARK    1  A    between atoms: C_1  and  C_2
REMARK    2  A    between atoms: C_5  and  N_8
REMARK    3  A    between atoms: N_8  and  N_9
REMARK    4  A    between atoms: C_11  and  C_23
REMARK                            x       y       z     vdW  Elec       q    Type
REMARK                         _______ _______ _______ _____ _____    ______ ____
ROOT
ATOM      1  N   UNL     1       1.600  -4.600   0.196  0.00  0.00    -0.194 NA
ATOM      2  C   UNL     1       1.800  -5.418   1.190  0.00  0.00    +0.165 A 
ATOM      3  C   UNL     1       0.716  -5.802   2.116  0.00  0.00    +0.071 A 
ATOM      4  N   UNL     1       0.397  -7.038   2.271  0.00  0.00    -0.248 NA
ATOM      5  C   UNL     1       0.894  -8.084   1.571  0.00  0.00    +0.088 A 
ATOM      6  C   UNL     1      -0.040  -9.065   1.178  0.00  0.00    +0.030 A 
ATOM      7  C   UNL     1       0.359 -10.171   0.470  0.00  0.00    +0.002 A 
ATOM      8  C   UNL     1       1.695 -10.334   0.135  0.00  0.00    +0.002 A 
ATOM      9  C   UNL     1       2.621  -9.387   0.507  0.00  0.00    +0.028 A 
ATOM     10  C   UNL     1       2.237  -8.248   1.225  0.00  0.00    +0.068 A 
ATOM     11  N   UNL     1       3.245  -7.355   1.533  0.00  0.00    -0.319 N 
ATOM     12  H   UNL     1       4.094  -7.721   1.825  0.00  0.00    +0.169 HD
ATOM     13  C   UNL     1       3.138  -6.027   1.456  0.00  0.00    +0.278 A 
ATOM     14  O   UNL     1       4.119  -5.325   1.603  0.00  0.00    -0.265 OA
ATOM     15  C   UNL     1      -0.024  -4.737   2.883  0.00  0.00    +0.068 C 
ENDROOT
BRANCH   1  16
ATOM     16  N   UNL     1       0.339  -4.156  -0.080  0.00  0.00    -0.315 NA
ATOM     17  H   UNL     1       0.316  -3.149  -0.020  0.00  0.00    +0.148 HD
ATOM     18  H   UNL     1      -0.309  -4.547   0.587  0.00  0.00    +0.148 HD
BRANCH  16  23
ATOM     19  C   UNL     1      -1.135  -5.771  -5.311  0.00  0.00    +0.044 C 
ATOM     20  C   UNL     1      -0.744  -5.341  -3.921  0.00  0.00    -0.050 A 
ATOM     21  C   UNL     1      -0.942  -6.196  -2.852  0.00  0.00    +0.005 A 
ATOM     22  C   UNL     1      -0.582  -5.802  -1.577  0.00  0.00    +0.023 A 
ATOM     23  C   UNL     1      -0.024  -4.554  -1.370  0.00  0.00    +0.029 A 
ATOM     24  C   UNL     1       0.175  -3.700  -2.439  0.00  0.00    +0.023 A 
ATOM     25  C   UNL     1      -0.180  -4.096  -3.715  0.00  0.00    +0.005 A 
ENDBRANCH  16  23
ENDBRANCH   1  16
TORSDOF 2
