REMARK  Name = ZINC05580428
REMARK  1 active torsions:
REMARK  status: ('A' for Active; 'I' for Inactive)
REMARK    1  A    between atoms: C_9  and  O_20
REMARK                            x       y       z     vdW  Elec       q    Type
REMARK                         _______ _______ _______ _____ _____    ______ ____
ROOT
ATOM      1  C   UNL     1      -0.017   1.384   0.010  0.00  0.00    +0.019 C 
ATOM      2  C   UNL     1       1.302   1.802  -0.001  0.00  0.00    +0.029 C 
ATOM      3  C   UNL     1       2.082   0.638  -0.014  0.00  0.00    +0.061 C 
ATOM      4  N   UNL     1       1.254  -0.416  -0.012  0.00  0.00    -0.360 N 
ATOM      5  H   UNL     1       1.535  -1.345  -0.019  0.00  0.00    +0.165 HD
ATOM      6  C   UNL     1       0.002  -0.004   0.002  0.00  0.00    +0.083 C 
ATOM      7  C   UNL     1       3.547   0.583  -0.029  0.00  0.00    +0.058 C 
ATOM      8  C   UNL     1       4.178  -0.657  -0.048  0.00  0.00    +0.071 C 
ATOM      9  C   UNL     1       5.561  -0.731  -0.061  0.00  0.00    +0.128 C 
ATOM     10  C   UNL     1       6.326   0.517  -0.056  0.00  0.00    +0.041 A 
ATOM     11  C   UNL     1       7.726   0.505  -0.067  0.00  0.00    +0.063 A 
ATOM     12  C   UNL     1       8.419   1.695  -0.061  0.00  0.00    +0.167 A 
ATOM     13  C   UNL     1       7.728   2.914  -0.044  0.00  0.00    +0.168 A 
ATOM     14  C   UNL     1       6.346   2.935  -0.033  0.00  0.00    +0.073 A 
ATOM     15  C   UNL     1       5.632   1.743  -0.038  0.00  0.00    +0.046 A 
ATOM     16  N   UNL     1       4.254   1.746  -0.030  0.00  0.00    -0.312 N 
ATOM     17  O   UNL     1       8.641   3.928  -0.042  0.00  0.00    -0.453 OA
ATOM     18  C   UNL     1       9.886   3.326   0.358  0.00  0.00    +0.466 C 
ATOM     19  O   UNL     1       9.760   1.957  -0.069  0.00  0.00    -0.453 OA
ATOM     20  H   UNL     1       3.780   2.592  -0.021  0.00  0.00    +0.152 HD
ENDROOT
BRANCH   9  21
ATOM     21  O   UNL     1       6.189  -1.929  -0.079  0.00  0.00    -0.506 OA
ATOM     22  H   UNL     1       5.590  -2.688  -0.080  0.00  0.00    +0.292 HD
ENDBRANCH   9  21
TORSDOF 1
