REMARK  Name = ZINC12889817
REMARK  5 active torsions:
REMARK  status: ('A' for Active; 'I' for Inactive)
REMARK    1  A    between atoms: C_1  and  C_2
REMARK    2  A    between atoms: C_2  and  C_4
REMARK    3  A    between atoms: C_2  and  O_32
REMARK    4  A    between atoms: N_12  and  C_15
REMARK    5  A    between atoms: C_15  and  C_16
REMARK                            x       y       z     vdW  Elec       q    Type
REMARK                         _______ _______ _______ _____ _____    ______ ____
ROOT
ATOM      1  C   UNL     1       6.156  -3.280  -0.316  0.00  0.00    -0.028 C 
ATOM      2  C   UNL     1       4.853  -2.932   0.434  0.00  0.00    +0.075 C 
ATOM      3  C   UNL     1       5.321  -2.275   1.763  0.00  0.00    +0.088 C 
ATOM      4  C   UNL     1       4.839  -0.848   1.635  0.00  0.00    +0.225 C 
ATOM      5  O   UNL     1       5.001   0.023   2.463  0.00  0.00    -0.275 OA
ATOM      6  N   UNL     1       4.202  -0.696   0.468  0.00  0.00    -0.239 N 
ATOM      7  C   UNL     1       4.154  -1.800  -0.286  0.00  0.00    +0.224 C 
ATOM      8  O   UNL     1       3.631  -1.881  -1.377  0.00  0.00    -0.275 OA
ATOM      9  C   UNL     1       6.852  -2.308   1.691  0.00  0.00    +0.050 C 
ATOM     10  C   UNL     1       7.464  -2.545   3.042  0.00  0.00    -0.028 A 
ATOM     11  C   UNL     1       7.359  -3.560   3.967  0.00  0.00    +0.004 A 
ATOM     12  C   UNL     1       8.066  -3.492   5.154  0.00  0.00    +0.000 A 
ATOM     13  C   UNL     1       8.879  -2.403   5.409  0.00  0.00    +0.002 A 
ATOM     14  C   UNL     1       8.988  -1.383   4.487  0.00  0.00    +0.023 A 
ATOM     15  C   UNL     1       8.279  -1.444   3.289  0.00  0.00    +0.036 A 
ATOM     16  N   UNL     1       8.224  -0.552   2.215  0.00  0.00    -0.286 N 
ATOM     17  C   UNL     1       7.409  -0.987   1.235  0.00  0.00    +0.211 C 
ATOM     18  O   UNL     1       7.169  -0.423   0.189  0.00  0.00    -0.277 OA
ATOM     19  H   UNL     1       8.717   0.283   2.179  0.00  0.00    +0.155 HD
ATOM     20  N   UNL     1       7.163  -3.365   0.744  0.00  0.00    +0.396 N 
ATOM     21  H   UNL     1       8.102  -3.227   0.354  0.00  0.00    -0.083 HD
ATOM     22  H   UNL     1       7.115  -4.281   1.206  0.00  0.00    -0.083 HD
ENDROOT
BRANCH   1  24
ATOM     23  C   UNL     1       7.309  -4.937  -1.788  0.00  0.00    +0.036 C 
ATOM     24  C   UNL     1       6.007  -4.613  -1.053  0.00  0.00    +0.098 C 
BRANCH  24  25
ATOM     25  O   UNL     1       4.938  -4.519  -1.996  0.00  0.00    -0.394 OA
ATOM     26  H   UNL     1       4.786  -5.330  -2.500  0.00  0.00    +0.210 HD
ENDBRANCH  24  25
ENDBRANCH   1  24
BRANCH   6  27
ATOM     27  C   UNL     1       3.613   0.577   0.047  0.00  0.00    +0.148 C 
BRANCH  27  28
ATOM     28  C   UNL     1       2.161   0.650   0.525  0.00  0.00    +0.136 C 
ATOM     29  C   UNL     1       1.477   1.937  -0.002  0.00  0.00    +0.035 C 
ATOM     30  C   UNL     1      -0.019   1.537   0.011  0.00  0.00    +0.031 C 
ATOM     31  C   UNL     1       0.002  -0.004   0.002  0.00  0.00    +0.160 C 
ATOM     32  O   UNL     1       1.379  -0.412  -0.062  0.00  0.00    -0.375 OA
ENDBRANCH  27  28
ENDBRANCH   6  27
TORSDOF 4
