REMARK  Name = ZINC12079556
REMARK  6 active torsions:
REMARK  status: ('A' for Active; 'I' for Inactive)
REMARK    1  A    between atoms: C_1  and  O_2
REMARK    2  A    between atoms: O_2  and  C_3
REMARK    3  A    between atoms: C_8  and  C_9
REMARK    4  A    between atoms: C_20  and  C_21
REMARK    5  A    between atoms: C_20  and  N_60
REMARK    6  A    between atoms: N_23  and  C_24
REMARK                            x       y       z     vdW  Elec       q    Type
REMARK                         _______ _______ _______ _____ _____    ______ ____
ROOT
ATOM      1  C   UNL     1      -5.768  -0.555   4.773  0.00  0.00    +0.191 C 
ATOM      2  C   UNL     1      -4.849  -0.096   3.661  0.00  0.00    -0.027 C 
ATOM      3  C   UNL     1      -4.964   2.303   4.067  0.00  0.00    -0.038 C 
ATOM      4  C   UNL     1      -6.168   2.423   4.981  0.00  0.00    -0.022 A 
ATOM      5  C   UNL     1      -6.987   3.531   4.907  0.00  0.00    +0.005 A 
ATOM      6  C   UNL     1      -8.073   3.639   5.758  0.00  0.00    +0.000 A 
ATOM      7  C   UNL     1      -8.333   2.641   6.680  0.00  0.00    +0.004 A 
ATOM      8  C   UNL     1      -7.516   1.528   6.750  0.00  0.00    +0.046 A 
ATOM      9  C   UNL     1      -6.433   1.416   5.889  0.00  0.00    +0.123 A 
ATOM     10  O   UNL     1      -5.652   0.302   5.915  0.00  0.00    -0.486 OA
ATOM     11  N   UNL     1      -5.237   1.216   3.098  0.00  0.00    +0.391 N 
ATOM     12  H   UNL     1      -6.243   1.202   2.893  0.00  0.00    -0.080 HD
ENDROOT
BRANCH   1  18
ATOM     13  C   UNL     1      -5.907  -3.039   4.455  0.00  0.00    +0.127 A 
ATOM     14  C   UNL     1      -5.564  -4.333   4.819  0.00  0.00    +0.046 A 
ATOM     15  C   UNL     1      -4.727  -4.546   5.897  0.00  0.00    +0.004 A 
ATOM     16  C   UNL     1      -4.228  -3.472   6.611  0.00  0.00    +0.001 A 
ATOM     17  C   UNL     1      -4.564  -2.181   6.246  0.00  0.00    +0.011 A 
ATOM     18  C   UNL     1      -5.401  -1.962   5.168  0.00  0.00    +0.032 A 
BRANCH  13  20
ATOM     19  C   UNL     1      -7.218  -3.981   2.710  0.00  0.00    +0.277 C 
ATOM     20  O   UNL     1      -6.734  -2.826   3.398  0.00  0.00    -0.495 OA
ENDBRANCH  13  20
ENDBRANCH   1  18
BRANCH  11  21
ATOM     21  C   UNL     1      -4.500   1.459   1.847  0.00  0.00    +0.019 C 
BRANCH  21  22
ATOM     22  C   UNL     1      -3.012   1.415   2.079  0.00  0.00    +0.197 C 
ATOM     23  O   UNL     1      -2.578   1.200   3.191  0.00  0.00    -0.278 OA
ATOM     24  N   UNL     1      -2.164   1.616   1.051  0.00  0.00    -0.306 N 
ATOM     25  H   UNL     1      -2.511   1.788   0.162  0.00  0.00    +0.149 HD
BRANCH  24  26
ATOM     26  C   UNL     1      -0.717   1.573   1.277  0.00  0.00    +0.159 C 
ATOM     27  C   UNL     1       0.008   1.414  -0.062  0.00  0.00    +0.032 C 
ATOM     28  C   UNL     1      -0.729   2.156  -1.163  0.00  0.00    +0.004 C 
ATOM     29  C   UNL     1      -0.716   3.665  -0.999  0.00  0.00    +0.019 C 
ATOM     30  C   UNL     1      -1.526   4.087   0.228  0.00  0.00    +0.104 C 
ATOM     31  N   UNL     1      -0.650   4.040   1.410  0.00  0.00    -0.314 N 
ATOM     32  C   UNL     1      -0.262   2.869   1.917  0.00  0.00    +0.233 C 
ATOM     33  O   UNL     1       0.456   2.841   2.894  0.00  0.00    -0.274 OA
ATOM     34  H   UNL     1      -0.352   4.865   1.822  0.00  0.00    +0.149 HD
ENDBRANCH  24  26
ENDBRANCH  21  22
ENDBRANCH  11  21
TORSDOF 5
