REMARK  Name = ZINC50893139
REMARK  6 active torsions:
REMARK  status: ('A' for Active; 'I' for Inactive)
REMARK    1  A    between atoms: C_1  and  C_2
REMARK    2  A    between atoms: C_2  and  C_3
REMARK    3  A    between atoms: C_3  and  C_4
REMARK    4  A    between atoms: N_7  and  C_10
REMARK    5  A    between atoms: C_17  and  C_19
REMARK    6  A    between atoms: C_19  and  N_20
REMARK                            x       y       z     vdW  Elec       q    Type
REMARK                         _______ _______ _______ _____ _____    ______ ____
ROOT
ATOM      1  C   UNL     1       0.067  -5.929   2.808  0.00  0.00    -0.067 C 
ATOM      2  C   UNL     1      -1.357  -6.411   3.144  0.00  0.00    -0.015 C 
ATOM      3  C   UNL     1      -1.397  -7.882   3.603  0.00  0.00    -0.002 C 
ATOM      4  C   UNL     1      -0.498  -8.765   2.781  0.00  0.00    -0.000 C 
ATOM      5  C   UNL     1       0.864  -8.879   3.495  0.00  0.00    +0.000 C 
ATOM      6  C   UNL     1       1.712  -7.720   3.260  0.00  0.00    -0.000 C 
ATOM      7  C   UNL     1       1.088  -6.416   3.801  0.00  0.00    -0.042 C 
ENDROOT
BRANCH   1  11
ATOM      8  C   UNL     1      -1.179  -1.857   2.978  0.00  0.00    -0.014 C 
ATOM      9  C   UNL     1      -0.316  -2.429   4.107  0.00  0.00    -0.015 C 
ATOM     10  C   UNL     1      -0.404  -3.956   4.086  0.00  0.00    -0.078 C 
ATOM     11  N   UNL     1       0.081  -4.460   2.795  0.00  0.00    +0.382 N 
ATOM     12  C   UNL     1      -0.785  -3.974   1.714  0.00  0.00    -0.078 C 
ATOM     13  C   UNL     1      -0.712  -2.447   1.644  0.00  0.00    -0.015 C 
ATOM     14  H   UNL     1       1.023  -4.135   2.641  0.00  0.00    -0.081 HD
BRANCH   8  15
ATOM     15  C   UNL     1      -1.033  -0.335   2.943  0.00  0.00    +0.003 C 
BRANCH  15  17
ATOM     16  C   UNL     1      -1.469   1.786   4.191  0.00  0.00    +0.004 C 
ATOM     17  C   UNL     1      -1.615   0.263   4.225  0.00  0.00    -0.003 C 
ENDBRANCH  15  17
ENDBRANCH   8  15
ENDBRANCH   1  11
BRANCH   7  18
ATOM     18  C   UNL     1       2.179  -5.358   3.977  0.00  0.00    -0.085 C 
BRANCH  18  19
ATOM     19  N   UNL     1       3.103  -5.780   5.038  0.00  0.00    +0.378 N 
ATOM     20  H   UNL     1       3.823  -5.083   5.154  0.00  0.00    -0.090 HD
ATOM     21  H   UNL     1       2.595  -5.887   5.904  0.00  0.00    -0.090 HD
ATOM     22  H   UNL     1       3.526  -6.661   4.785  0.00  0.00    -0.090 HD
ENDBRANCH  18  19
ENDBRANCH   7  18
TORSDOF 5
