REMARK  Name = ZINC40462667
REMARK  7 active torsions:
REMARK  status: ('A' for Active; 'I' for Inactive)
REMARK    1  A    between atoms: C_1  and  S_2
REMARK    2  A    between atoms: S_2  and  C_3
REMARK    3  A    between atoms: C_3  and  C_4
REMARK    4  A    between atoms: C_4  and  C_5
REMARK    5  A    between atoms: C_5  and  C_7
REMARK    6  A    between atoms: C_5  and  N_21
REMARK    7  A    between atoms: C_16  and  N_20
REMARK                            x       y       z     vdW  Elec       q    Type
REMARK                         _______ _______ _______ _____ _____    ______ ____
ROOT
ATOM      1  C   UNL     1      -3.482  -3.878  -0.109  0.00  0.00    +0.214 C 
ATOM      2  O   UNL     1      -3.681  -4.556   0.871  0.00  0.00    -0.277 OA
ATOM      3  N   UNL     1      -3.373  -4.460  -1.320  0.00  0.00    -0.173 N 
ATOM      4  C   UNL     1      -3.147  -3.795  -2.467  0.00  0.00    +0.260 C 
ATOM      5  O   UNL     1      -3.011  -2.593  -2.575  0.00  0.00    -0.269 OA
ATOM      6  C   UNL     1      -3.091  -4.772  -3.573  0.00  0.00    +0.052 A 
ATOM      7  C   UNL     1      -2.891  -4.677  -4.939  0.00  0.00    +0.014 A 
ATOM      8  C   UNL     1      -2.897  -5.824  -5.722  0.00  0.00    +0.003 A 
ATOM      9  C   UNL     1      -3.101  -7.062  -5.152  0.00  0.00    +0.023 A 
ATOM     10  C   UNL     1      -3.305  -7.181  -3.775  0.00  0.00    +0.038 A 
ATOM     11  C   UNL     1      -3.301  -6.037  -2.979  0.00  0.00    +0.070 A 
ATOM     12  C   UNL     1      -3.470  -5.784  -1.539  0.00  0.00    +0.262 C 
ATOM     13  O   UNL     1      -3.668  -6.630  -0.690  0.00  0.00    -0.269 OA
ENDROOT
BRANCH  10  14
ATOM     14  N   UNL     1      -3.510  -8.429  -3.205  0.00  0.00    -0.357 N 
ATOM     15  H   UNL     1      -3.513  -9.223  -3.762  0.00  0.00    +0.142 HD
ATOM     16  H   UNL     1      -3.651  -8.507  -2.248  0.00  0.00    +0.142 HD
ENDBRANCH  10  14
BRANCH   1  17
ATOM     17  C   UNL     1      -3.356  -2.382   0.021  0.00  0.00    +0.014 C 
BRANCH  17  18
ATOM     18  N   UNL     1      -3.967  -1.948   1.285  0.00  0.00    +0.386 N 
ATOM     19  H   UNL     1      -3.495  -2.394   2.057  0.00  0.00    -0.089 HD
ATOM     20  H   UNL     1      -3.883  -0.946   1.372  0.00  0.00    -0.089 HD
ATOM     21  H   UNL     1      -4.943  -2.205   1.293  0.00  0.00    -0.089 HD
ENDBRANCH  17  18
BRANCH  17  22
ATOM     22  C   UNL     1      -1.877  -1.992   0.009  0.00  0.00    +0.003 C 
BRANCH  22  23
ATOM     23  C   UNL     1      -1.752  -0.467   0.016  0.00  0.00    +0.068 C 
BRANCH  23  25
ATOM     24  C   UNL     1      -0.022   1.810   0.012  0.00  0.00    +0.084 C 
ATOM     25  S   UNL     1       0.002  -0.004   0.002  0.00  0.00    -0.164 S 
ENDBRANCH  23  25
ENDBRANCH  22  23
ENDBRANCH  17  22
ENDBRANCH   1  17
TORSDOF 6
