REMARK  Name = ZINC41152861
REMARK  3 active torsions:
REMARK  status: ('A' for Active; 'I' for Inactive)
REMARK    1  A    between atoms: C_5  and  C_6
REMARK    2  A    between atoms: C_8  and  C_11
REMARK    3  A    between atoms: C_11  and  N_16
REMARK                            x       y       z     vdW  Elec       q    Type
REMARK                         _______ _______ _______ _____ _____    ______ ____
ROOT
ATOM      1  C   UNL     1      -1.125  -0.944   0.009  0.00  0.00    +0.265 A 
ATOM      2  N   UNL     1      -1.037  -2.260   0.006  0.00  0.00    -0.193 NA
ATOM      3  C   UNL     1      -2.258  -2.797   0.014  0.00  0.00    +0.161 A 
ATOM      4  N   UNL     1      -3.146  -1.842   0.022  0.00  0.00    -0.062 NA
ATOM      5  O   UNL     1      -2.430  -0.616   0.024  0.00  0.00    -0.332 OA
ENDROOT
BRANCH   1  10
ATOM      6  C   UNL     1      -0.017   1.381   0.010  0.00  0.00    +0.022 A 
ATOM      7  C   UNL     1       1.215   1.996   0.001  0.00  0.00    +0.024 A 
ATOM      8  C   UNL     1       2.333   1.229  -0.014  0.00  0.00    +0.056 A 
ATOM      9  S   UNL     1       1.751  -0.347  -0.017  0.00  0.00    -0.077 S 
ATOM     10  C   UNL     1       0.002  -0.004   0.002  0.00  0.00    +0.078 A 
ATOM     11 BR   UNL     1       4.134   1.803  -0.028  0.00  0.00    -0.043 Br
ENDBRANCH   1  10
BRANCH   3  12
ATOM     12  C   UNL     1      -2.563  -4.272   0.013  0.00  0.00    -0.006 C 
ATOM     13  C   UNL     1      -2.031  -4.921  -1.281  0.00  0.00    -0.005 C 
ATOM     14  C   UNL     1      -3.101  -5.982  -1.642  0.00  0.00    -0.001 C 
ATOM     15  C   UNL     1      -4.426  -5.273  -1.264  0.00  0.00    -0.001 C 
ATOM     16  C   UNL     1      -4.085  -4.496   0.024  0.00  0.00    -0.005 C 
BRANCH  12  17
ATOM     17  N   UNL     1      -1.952  -4.912   1.186  0.00  0.00    +0.387 N 
ATOM     18  H   UNL     1      -2.332  -4.505   2.027  0.00  0.00    -0.089 HD
ATOM     19  H   UNL     1      -2.151  -5.902   1.171  0.00  0.00    -0.089 HD
ATOM     20  H   UNL     1      -0.953  -4.770   1.165  0.00  0.00    -0.089 HD
ENDBRANCH  12  17
ENDBRANCH   3  12
TORSDOF 3
