REMARK  Name = ZINC48605132
REMARK  11 active torsions:
REMARK  status: ('A' for Active; 'I' for Inactive)
REMARK    1  A    between atoms: C_1  and  C_2
REMARK    2  A    between atoms: C_2  and  C_28
REMARK    3  A    between atoms: C_4  and  N_10
REMARK    4  A    between atoms: C_6  and  C_8
REMARK    5  A    between atoms: C_6  and  C_9
REMARK    6  A    between atoms: C_11  and  C_13
REMARK    7  A    between atoms: N_15  and  C_16
REMARK    8  A    between atoms: C_19  and  N_22
REMARK    9  A    between atoms: C_23  and  C_25
REMARK   10  A    between atoms: C_25  and  O_26
REMARK   11  A    between atoms: O_26  and  C_27
REMARK                            x       y       z     vdW  Elec       q    Type
REMARK                         _______ _______ _______ _____ _____    ______ ____
ROOT
ATOM      1  C   UNL     1       4.294  -0.899  -4.409  0.00  0.00    +0.303 C 
ATOM      2  O   UNL     1       3.701  -1.773  -5.008  0.00  0.00    -0.265 OA
ATOM      3  N   UNL     1       5.444  -0.403  -4.907  0.00  0.00    -0.278 N 
ATOM      4  H   UNL     1       5.883   0.341  -4.465  0.00  0.00    +0.155 HD
ENDROOT
BRANCH   3   5
ATOM      5  C   UNL     1       6.005  -0.961  -6.060  0.00  0.00    +0.034 A 
ATOM      6  C   UNL     1       7.386  -1.042  -6.192  0.00  0.00    +0.025 A 
ATOM      7  C   UNL     1       7.939  -1.593  -7.330  0.00  0.00    +0.025 A 
ATOM      8  C   UNL     1       7.115  -2.065  -8.344  0.00  0.00    +0.034 A 
ATOM      9  C   UNL     1       5.735  -1.983  -8.213  0.00  0.00    +0.025 A 
ATOM     10  C   UNL     1       5.181  -1.438  -7.072  0.00  0.00    +0.025 A 
BRANCH   8  11
ATOM     11  N   UNL     1       7.677  -2.624  -9.499  0.00  0.00    -0.284 N 
ATOM     12  C   UNL     1       7.081  -2.442 -10.694  0.00  0.00    +0.243 C 
ATOM     13  O   UNL     1       6.015  -1.867 -10.758  0.00  0.00    -0.273 OA
ATOM     14  H   UNL     1       8.495  -3.142  -9.438  0.00  0.00    +0.155 HD
BRANCH  12  15
ATOM     15  C   UNL     1       7.739  -2.953 -11.949  0.00  0.00    +0.255 C 
BRANCH  15  16
ATOM     16  O   UNL     1       6.919  -2.641 -13.078  0.00  0.00    -0.374 OA
ATOM     17  C   UNL     1       7.455  -3.085 -14.326  0.00  0.00    +0.194 C 
ENDBRANCH  15  16
ENDBRANCH  12  15
ENDBRANCH   8  11
ENDBRANCH   3   5
BRANCH   1  19
ATOM     18  N   UNL     1       2.599  -0.869  -2.625  0.00  0.00    -0.305 N 
ATOM     19  C   UNL     1       3.749  -0.373  -3.122  0.00  0.00    +0.300 C 
ATOM     20  O   UNL     1       4.342   0.501  -2.524  0.00  0.00    -0.265 OA
ATOM     21  H   UNL     1       2.125  -1.567  -3.103  0.00  0.00    +0.149 HD
BRANCH  18  25
ATOM     22  C   UNL     1      -0.067   1.459  -0.003  0.00  0.00    -0.010 C 
ATOM     23  C   UNL     1      -0.029  -0.073  -0.005  0.00  0.00    -0.072 C 
ATOM     24  C   UNL     1       0.551  -0.572  -1.325  0.00  0.00    +0.009 C 
ATOM     25  C   UNL     1       2.063  -0.352  -1.359  0.00  0.00    +0.071 C 
ATOM     26  C   UNL     1       2.684  -1.124  -0.196  0.00  0.00    +0.009 C 
ATOM     27  C   UNL     1       2.121  -0.629   1.132  0.00  0.00    -0.072 C 
ATOM     28  N   UNL     1       0.669  -0.585   1.160  0.00  0.00    +0.386 N 
ATOM     29  C   UNL     1       2.727   0.735   1.476  0.00  0.00    -0.010 C 
ATOM     30  C   UNL     1       2.583  -1.619   2.227  0.00  0.00    -0.010 C 
ATOM     31  C   UNL     1      -1.494  -0.563   0.071  0.00  0.00    -0.010 C 
ATOM     32  H   UNL     1       0.381  -0.034   1.975  0.00  0.00    -0.084 HD
ATOM     33  H   UNL     1       0.324  -1.531   1.350  0.00  0.00    -0.084 HD
ENDBRANCH  18  25
ENDBRANCH   1  19
TORSDOF 6
