REMARK  Name = ZINC48787710
REMARK  11 active torsions:
REMARK  status: ('A' for Active; 'I' for Inactive)
REMARK    1  A    between atoms: C_1  and  C_2
REMARK    2  A    between atoms: C_2  and  C_3
REMARK    3  A    between atoms: C_3  and  C_4
REMARK    4  A    between atoms: C_4  and  C_5
REMARK    5  A    between atoms: C_5  and  N_6
REMARK    6  A    between atoms: C_7  and  C_9
REMARK    7  A    between atoms: C_9  and  C_11
REMARK    8  A    between atoms: C_9  and  O_12
REMARK    9  A    between atoms: O_12  and  C_13
REMARK   10  A    between atoms: C_14  and  C_20
REMARK   11  A    between atoms: C_20  and  N_21
REMARK                            x       y       z     vdW  Elec       q    Type
REMARK                         _______ _______ _______ _____ _____    ______ ____
ROOT
ATOM      1  O   UNL     1       2.621  -6.577  -4.621  0.00  0.00    -0.479 OA
ENDROOT
BRANCH   1   2
ATOM      2  C   UNL     1       2.220  -7.761  -5.156  0.00  0.00    +0.137 A 
ATOM      3  C   UNL     1       1.310  -7.777  -6.202  0.00  0.00    -0.022 A 
ATOM      4  C   UNL     1       0.904  -8.982  -6.744  0.00  0.00    +0.005 A 
ATOM      5  C   UNL     1       1.404 -10.170  -6.244  0.00  0.00    +0.002 A 
ATOM      6  C   UNL     1       2.312 -10.157  -5.201  0.00  0.00    +0.019 A 
ATOM      7  C   UNL     1       2.726  -8.954  -4.659  0.00  0.00    +0.060 A 
ATOM      8 BR   UNL     1       3.974  -8.936  -3.239  0.00  0.00    -0.047 Br
BRANCH   3   9
ATOM      9  C   UNL     1       0.763  -6.483  -6.747  0.00  0.00    -0.047 C 
BRANCH   9  10
ATOM     10  N   UNL     1       1.766  -5.857  -7.619  0.00  0.00    +0.381 N 
ATOM     11  H   UNL     1       2.629  -5.739  -7.109  0.00  0.00    -0.090 HD
ATOM     12  H   UNL     1       1.927  -6.446  -8.422  0.00  0.00    -0.090 HD
ATOM     13  H   UNL     1       1.430  -4.956  -7.924  0.00  0.00    -0.090 HD
ENDBRANCH   9  10
ENDBRANCH   3   9
ENDBRANCH   1   2
BRANCH   1  14
ATOM     14  C   UNL     1       1.773  -5.992  -3.631  0.00  0.00    +0.256 C 
ATOM     15  C   UNL     1       2.247  -6.414  -2.239  0.00  0.00    +0.062 C 
BRANCH  14  17
ATOM     16  N   UNL     1       1.027  -3.726  -2.977  0.00  0.00    -0.312 N 
ATOM     17  C   UNL     1       1.828  -4.490  -3.746  0.00  0.00    +0.254 C 
ATOM     18  O   UNL     1       2.592  -3.970  -4.531  0.00  0.00    -0.272 OA
ATOM     19  H   UNL     1       0.416  -4.142  -2.350  0.00  0.00    +0.149 HD
BRANCH  16  20
ATOM     20  C   UNL     1       1.080  -2.266  -3.089  0.00  0.00    +0.104 C 
BRANCH  20  21
ATOM     21  C   UNL     1       0.080  -1.643  -2.114  0.00  0.00    +0.019 C 
BRANCH  21  22
ATOM     22  C   UNL     1       0.135  -0.118  -2.231  0.00  0.00    +0.001 C 
BRANCH  22  24
ATOM     23  C   UNL     1      -0.810   2.029  -1.373  0.00  0.00    +0.004 C 
ATOM     24  C   UNL     1      -0.866   0.505  -1.256  0.00  0.00    -0.003 C 
ENDBRANCH  22  24
ENDBRANCH  21  22
ENDBRANCH  20  21
ENDBRANCH  16  20
ENDBRANCH  14  17
ENDBRANCH   1  14
TORSDOF 9
