REMARK  Name = ZINC44262406
REMARK  6 active torsions:
REMARK  status: ('A' for Active; 'I' for Inactive)
REMARK    1  A    between atoms: C_1  and  O_2
REMARK    2  A    between atoms: O_2  and  C_3
REMARK    3  A    between atoms: C_3  and  C_5
REMARK    4  A    between atoms: C_8  and  N_16
REMARK    5  A    between atoms: C_9  and  C_11
REMARK    6  A    between atoms: C_12  and  C_13
REMARK                            x       y       z     vdW  Elec       q    Type
REMARK                         _______ _______ _______ _____ _____    ______ ____
ROOT
ATOM      1  C   UNL     1      -0.137  -2.031   2.183  0.00  0.00    +0.060 A 
ATOM      2  C   UNL     1      -0.449  -2.521   0.912  0.00  0.00    +0.017 A 
ATOM      3  C   UNL     1       0.051  -3.739   0.495  0.00  0.00    +0.034 A 
ATOM      4  C   UNL     1       0.860  -4.483   1.329  0.00  0.00    +0.133 A 
ATOM      5  C   UNL     1       1.181  -4.006   2.605  0.00  0.00    +0.006 A 
ATOM      6  C   UNL     1       0.685  -2.772   3.030  0.00  0.00    +0.025 A 
ENDROOT
BRANCH   4   7
ATOM      7  N   UNL     1       1.390  -5.788   0.874  0.00  0.00    +0.057 N 
ATOM      8  O   UNL     1       1.028  -6.252  -0.182  0.00  0.00    -0.126 OA
ATOM      9  O   UNL     1       2.184  -6.390   1.558  0.00  0.00    -0.126 OA
ENDBRANCH   4   7
BRANCH   1  10
ATOM     10  C   UNL     1      -0.672  -0.728   2.627  0.00  0.00    +0.339 C 
ATOM     11  O   UNL     1      -0.397  -0.301   3.730  0.00  0.00    -0.245 OA
BRANCH  10  13
ATOM     12  C   UNL     1      -1.949   1.239   2.300  0.00  0.00    +0.280 C 
ATOM     13  O   UNL     1      -1.467  -0.012   1.807  0.00  0.00    -0.464 OA
ENDBRANCH  10  13
ENDBRANCH   1  10
BRANCH   5  14
ATOM     14  C   UNL     1       2.045  -4.800   3.495  0.00  0.00    +0.015 C 
ATOM     15  C   UNL     1       3.055  -4.206   4.160  0.00  0.00    +0.067 C 
BRANCH  15  16
ATOM     16  C   UNL     1       3.433  -2.829   3.838  0.00  0.00    +0.234 C 
ATOM     17  O   UNL     1       2.921  -2.262   2.891  0.00  0.00    -0.271 OA
ATOM     18  N   UNL     1       4.349  -2.188   4.591  0.00  0.00    -0.326 N 
ATOM     19  H   UNL     1       4.758  -2.640   5.346  0.00  0.00    +0.145 HD
ATOM     20  H   UNL     1       4.600  -1.275   4.379  0.00  0.00    +0.145 HD
ENDBRANCH  15  16
ENDBRANCH   5  14
TORSDOF 5
