REMARK  Name = ZINC10023187
REMARK  9 active torsions:
REMARK  status: ('A' for Active; 'I' for Inactive)
REMARK    1  A    between atoms: C_1  and  C_2
REMARK    2  A    between atoms: C_2  and  C_3
REMARK    3  A    between atoms: C_3  and  C_5
REMARK    4  A    between atoms: C_3  and  C_6
REMARK    5  A    between atoms: C_9  and  S_12
REMARK    6  A    between atoms: S_12  and  N_15
REMARK    7  A    between atoms: C_20  and  C_22
REMARK    8  A    between atoms: C_20  and  C_29
REMARK    9  A    between atoms: C_20  and  N_58
REMARK                            x       y       z     vdW  Elec       q    Type
REMARK                         _______ _______ _______ _____ _____    ______ ____
ROOT
ATOM      1  N   UNL     1      -0.915   1.858  -1.307  0.00  0.00    -0.180 NA
ATOM      2  C   UNL     1      -1.891   0.965  -1.952  0.00  0.00    +0.091 C 
ATOM      3  C   UNL     1      -3.220   1.724  -2.091  0.00  0.00    -0.060 C 
ATOM      4  C   UNL     1      -2.093   3.870  -2.018  0.00  0.00    -0.060 C 
ATOM      5  C   UNL     1      -0.722   3.202  -1.872  0.00  0.00    +0.091 C 
ATOM      6  N   UNL     1      -2.969   2.987  -2.818  0.00  0.00    +0.392 N 
ATOM      7  H   UNL     1      -2.503   2.773  -3.707  0.00  0.00    -0.080 HD
ENDROOT
BRANCH   1   8
ATOM      8  S   UNL     1      -0.053   1.360   0.016  0.00  0.00    +0.061 S 
ATOM      9  O   UNL     1      -0.025  -0.060  -0.028  0.00  0.00    -0.153 OA
ATOM     10  O   UNL     1       1.132   2.144   0.047  0.00  0.00    -0.153 OA
BRANCH   8  14
ATOM     11  C   UNL     1      -2.452   2.495   3.683  0.00  0.00    -0.044 A 
ATOM     12  C   UNL     1      -2.642   1.262   3.087  0.00  0.00    +0.006 A 
ATOM     13  C   UNL     1      -1.909   0.916   1.967  0.00  0.00    +0.029 A 
ATOM     14  C   UNL     1      -0.987   1.802   1.443  0.00  0.00    +0.105 A 
ATOM     15  C   UNL     1      -0.793   3.032   2.043  0.00  0.00    +0.029 A 
ATOM     16  C   UNL     1      -1.529   3.381   3.159  0.00  0.00    +0.006 A 
BRANCH  11  17
ATOM     17  C   UNL     1      -3.251   2.873   4.904  0.00  0.00    +0.016 C 
ATOM     18  C   UNL     1      -4.072   4.129   4.607  0.00  0.00    +0.012 C 
BRANCH  17  20
ATOM     19  C   UNL     1      -3.112   3.411   7.340  0.00  0.00    +0.004 C 
ATOM     20  C   UNL     1      -2.300   3.149   6.070  0.00  0.00    +0.004 C 
ENDBRANCH  17  20
ENDBRANCH  11  17
ENDBRANCH   8  14
ENDBRANCH   1   8
BRANCH   6  21
ATOM     21  C   UNL     1      -4.250   3.669  -3.100  0.00  0.00    +0.050 C 
BRANCH  21  22
ATOM     22  C   UNL     1      -5.101   2.771  -3.959  0.00  0.00    -0.052 A 
ATOM     23  C   UNL     1      -4.932   2.763  -5.331  0.00  0.00    +0.004 A 
ATOM     24  C   UNL     1      -5.710   1.935  -6.119  0.00  0.00    +0.020 A 
ATOM     25  C   UNL     1      -6.665   1.122  -5.535  0.00  0.00    +0.041 A 
ATOM     26  C   UNL     1      -6.838   1.134  -4.162  0.00  0.00    +0.020 A 
ATOM     27  C   UNL     1      -6.056   1.958  -3.375  0.00  0.00    +0.004 A 
ATOM     28 CL   UNL     1      -7.647   0.087  -6.524  0.00  0.00    -0.084 Cl
ENDBRANCH  21  22
BRANCH  21  29
ATOM     29  C   UNL     1      -4.979   3.979  -1.819  0.00  0.00    +0.201 C 
ATOM     30  O   UNL     1      -4.492   3.667  -0.752  0.00  0.00    -0.277 OA
ATOM     31  N   UNL     1      -6.174   4.602  -1.857  0.00  0.00    -0.330 N 
ATOM     32  H   UNL     1      -6.564   4.851  -2.709  0.00  0.00    +0.145 HD
ATOM     33  H   UNL     1      -6.644   4.801  -1.032  0.00  0.00    +0.145 HD
ENDBRANCH  21  29
ENDBRANCH   6  21
TORSDOF 7
