REMARK  Name = ZINC02424092
REMARK  6 active torsions:
REMARK  status: ('A' for Active; 'I' for Inactive)
REMARK    1  A    between atoms: C_1  and  C_2
REMARK    2  A    between atoms: N_5  and  C_7
REMARK    3  A    between atoms: C_14  and  N_36
REMARK    4  A    between atoms: C_15  and  C_34
REMARK    5  A    between atoms: N_23  and  C_26
REMARK    6  A    between atoms: C_26  and  C_27
REMARK                            x       y       z     vdW  Elec       q    Type
REMARK                         _______ _______ _______ _____ _____    ______ ____
ROOT
ATOM      1  C   UNL     1       1.610  -5.965  -1.624  0.00  0.00    +0.068 C 
ATOM      2  C   UNL     1       1.914  -5.889  -3.098  0.00  0.00    +0.069 A 
ATOM      3  C   UNL     1       1.765  -4.768  -3.903  0.00  0.00    +0.062 A 
ATOM      4  C   UNL     1       2.146  -5.104  -5.174  0.00  0.00    +0.230 A 
ATOM      5  N   UNL     1       2.520  -6.402  -5.155  0.00  0.00    -0.200 N 
ATOM      6  N   UNL     1       2.366  -6.872  -3.841  0.00  0.00    -0.168 NA
ATOM      7  O   UNL     1       2.119  -4.222  -6.203  0.00  0.00    -0.423 OA
ATOM      8  C   UNL     1       1.966  -2.915  -5.909  0.00  0.00    +0.201 C 
ATOM      9  C   UNL     1       1.581  -2.459  -4.694  0.00  0.00    +0.110 C 
ATOM     10  C   UNL     1       1.284  -3.389  -3.550  0.00  0.00    +0.145 C 
ATOM     11  C   UNL     1      -0.173  -3.389  -3.216  0.00  0.00    -0.001 A 
ATOM     12  C   UNL     1      -1.282  -3.730  -3.959  0.00  0.00    +0.007 A 
ATOM     13  C   UNL     1      -2.520  -3.614  -3.335  0.00  0.00    +0.000 A 
ATOM     14  C   UNL     1      -2.629  -3.177  -2.031  0.00  0.00    +0.002 A 
ATOM     15  C   UNL     1      -1.518  -2.832  -1.277  0.00  0.00    +0.024 A 
ATOM     16  C   UNL     1      -0.270  -2.948  -1.890  0.00  0.00    +0.041 A 
ATOM     17  N   UNL     1       0.988  -2.670  -1.383  0.00  0.00    -0.265 N 
ATOM     18  C   UNL     1       1.962  -2.902  -2.288  0.00  0.00    +0.241 C 
ATOM     19  O   UNL     1       3.153  -2.749  -2.122  0.00  0.00    -0.274 OA
ENDROOT
BRANCH   5  20
ATOM     20  C   UNL     1       2.978  -7.146  -6.251  0.00  0.00    +0.069 A 
ATOM     21  C   UNL     1       2.452  -6.919  -7.515  0.00  0.00    +0.028 A 
ATOM     22  C   UNL     1       2.910  -7.650  -8.594  0.00  0.00    +0.002 A 
ATOM     23  C   UNL     1       3.883  -8.616  -8.413  0.00  0.00    +0.000 A 
ATOM     24  C   UNL     1       4.404  -8.849  -7.154  0.00  0.00    +0.002 A 
ATOM     25  C   UNL     1       3.955  -8.117  -6.073  0.00  0.00    +0.028 A 
ENDBRANCH   5  20
BRANCH   8  26
ATOM     26  N   UNL     1       2.214  -1.995  -6.898  0.00  0.00    -0.328 N 
ATOM     27  H   UNL     1       2.492  -2.292  -7.778  0.00  0.00    +0.145 HD
ATOM     28  H   UNL     1       2.112  -1.048  -6.716  0.00  0.00    +0.145 HD
ENDBRANCH   8  26
BRANCH   9  29
ATOM     29  C   UNL     1       1.452  -1.047  -4.492  0.00  0.00    +0.102 C 
ATOM     30  N   UNL     1       1.350   0.073  -4.331  0.00  0.00    -0.191 NA
ENDBRANCH   9  29
BRANCH  17  31
ATOM     31  C   UNL     1       1.233  -2.186  -0.022  0.00  0.00    +0.151 C 
BRANCH  31  32
ATOM     32  C   UNL     1       1.211  -0.679  -0.013  0.00  0.00    +0.005 A 
ATOM     33  C   UNL     1       2.397   0.030  -0.021  0.00  0.00    +0.008 A 
ATOM     34  C   UNL     1       2.377   1.412  -0.013  0.00  0.00    +0.000 A 
ATOM     35  C   UNL     1       1.171   2.087   0.002  0.00  0.00    +0.003 A 
ATOM     36  C   UNL     1      -0.017   1.381   0.010  0.00  0.00    +0.038 A 
ATOM     37  C   UNL     1       0.002  -0.004   0.002  0.00  0.00    +0.128 A 
ATOM     38  F   UNL     1      -1.158  -0.696   0.009  0.00  0.00    -0.205 F 
ENDBRANCH  31  32
ENDBRANCH  17  31
TORSDOF 5
