REMARK  Name = ZINC53739776
REMARK  11 active torsions:
REMARK  status: ('A' for Active; 'I' for Inactive)
REMARK    1  A    between atoms: C_1  and  C_2
REMARK    2  A    between atoms: C_2  and  C_3
REMARK    3  A    between atoms: C_3  and  C_4
REMARK    4  A    between atoms: C_3  and  C_6
REMARK    5  A    between atoms: C_3  and  C_12
REMARK    6  A    between atoms: C_4  and  C_5
REMARK    7  A    between atoms: C_6  and  N_7
REMARK    8  A    between atoms: N_7  and  C_8
REMARK    9  A    between atoms: C_8  and  C_9
REMARK   10  A    between atoms: C_8  and  C_10
REMARK   11  A    between atoms: C_8  and  C_11
REMARK                            x       y       z     vdW  Elec       q    Type
REMARK                         _______ _______ _______ _____ _____    ______ ____
ROOT
ATOM      1  C   UNL     1       0.718  -0.497  -1.257  0.00  0.00    -0.020 C 
ENDROOT
BRANCH   1   2
ATOM      2  C   UNL     1       2.132   0.024  -1.268  0.00  0.00    -0.039 A 
ATOM      3  C   UNL     1       2.561   0.835  -2.302  0.00  0.00    +0.008 A 
ATOM      4  C   UNL     1       3.857   1.314  -2.316  0.00  0.00    +0.050 A 
ATOM      5  C   UNL     1       4.731   0.983  -1.292  0.00  0.00    +0.162 A 
ATOM      6  C   UNL     1       4.300   0.170  -0.251  0.00  0.00    +0.162 A 
ATOM      7  C   UNL     1       2.996  -0.304  -0.240  0.00  0.00    +0.053 A 
ATOM      8  O   UNL     1       5.139  -0.161   0.769  0.00  0.00    -0.485 OA
ATOM      9  C   UNL     1       6.539   0.030   0.537  0.00  0.00    +0.270 C 
ATOM     10  C   UNL     1       6.738   1.416  -0.091  0.00  0.00    +0.270 C 
ATOM     11  O   UNL     1       6.006   1.459  -1.321  0.00  0.00    -0.485 OA
ENDBRANCH   1   2
BRANCH   1  13
ATOM     12  C   UNL     1      -0.019   1.526   0.010  0.00  0.00    +0.004 C 
ATOM     13  C   UNL     1       0.002  -0.004   0.002  0.00  0.00    +0.006 C 
ENDBRANCH   1  13
BRANCH   1  14
ATOM     14  C   UNL     1       0.739  -2.027  -1.265  0.00  0.00    +0.006 C 
ATOM     15  C   UNL     1       1.455  -2.521  -2.524  0.00  0.00    +0.004 C 
ENDBRANCH   1  14
BRANCH   1  16
ATOM     16  C   UNL     1      -0.022   0.009  -2.496  0.00  0.00    -0.070 C 
BRANCH  16  17
ATOM     17  N   UNL     1      -1.400  -0.499  -2.486  0.00  0.00    +0.383 N 
ATOM     18  H   UNL     1      -1.386  -1.508  -2.491  0.00  0.00    -0.085 HD
ATOM     19  H   UNL     1      -1.872  -0.174  -1.656  0.00  0.00    -0.085 HD
BRANCH  17  20
ATOM     20  C   UNL     1      -2.110  -0.013  -3.676  0.00  0.00    -0.077 C 
ATOM     21  C   UNL     1      -1.394  -0.506  -4.935  0.00  0.00    -0.011 C 
ATOM     22  C   UNL     1      -3.546  -0.542  -3.665  0.00  0.00    -0.011 C 
ATOM     23  C   UNL     1      -2.131   1.517  -3.668  0.00  0.00    -0.011 C 
ENDBRANCH  17  20
ENDBRANCH  16  17
ENDBRANCH   1  16
TORSDOF 6
