REMARK  Name = ZINC54407289
REMARK  11 active torsions:
REMARK  status: ('A' for Active; 'I' for Inactive)
REMARK    1  A    between atoms: C_1  and  C_2
REMARK    2  A    between atoms: C_5  and  C_29
REMARK    3  A    between atoms: N_8  and  C_10
REMARK    4  A    between atoms: C_10  and  C_11
REMARK    5  A    between atoms: C_10  and  C_12
REMARK    6  A    between atoms: C_10  and  C_13
REMARK    7  A    between atoms: C_13  and  N_14
REMARK    8  A    between atoms: N_17  and  C_18
REMARK    9  A    between atoms: C_23  and  C_24
REMARK   10  A    between atoms: C_24  and  C_25
REMARK   11  A    between atoms: N_27  and  C_28
REMARK                            x       y       z     vdW  Elec       q    Type
REMARK                         _______ _______ _______ _____ _____    ______ ____
ROOT
ATOM      1  N   UNL     1       1.984   1.659   3.428  0.00  0.00    -0.300 N 
ATOM      2  C   UNL     1       1.516   2.458   4.407  0.00  0.00    +0.304 C 
ATOM      3  O   UNL     1       1.195   1.982   5.479  0.00  0.00    -0.253 OA
ATOM      4  N   UNL     1       1.403   3.785   4.198  0.00  0.00    -0.269 N 
ATOM      5  H   UNL     1       2.240   2.039   2.573  0.00  0.00    +0.150 HD
ATOM      6  H   UNL     1       1.730   4.175   3.373  0.00  0.00    +0.156 HD
ENDROOT
BRANCH   4   7
ATOM      7  C   UNL     1       0.814   4.598   5.172  0.00  0.00    +0.038 A 
ATOM      8  C   UNL     1      -0.084   4.056   6.083  0.00  0.00    +0.023 A 
ATOM      9  C   UNL     1      -0.663   4.862   7.043  0.00  0.00    +0.002 A 
ATOM     10  C   UNL     1      -0.350   6.208   7.098  0.00  0.00    +0.000 A 
ATOM     11  C   UNL     1       0.542   6.751   6.193  0.00  0.00    +0.006 A 
ATOM     12  C   UNL     1       1.130   5.949   5.234  0.00  0.00    -0.017 A 
BRANCH  12  13
ATOM     13  C   UNL     1       2.107   6.541   4.252  0.00  0.00    +0.132 C 
BRANCH  13  14
ATOM     14  C   UNL     1       1.382   6.917   2.986  0.00  0.00    +0.217 C 
ATOM     15  O   UNL     1       0.189   6.723   2.890  0.00  0.00    -0.275 OA
ATOM     16  N   UNL     1       2.060   7.468   1.959  0.00  0.00    -0.318 N 
ATOM     17  C   UNL     1       1.354   7.834   0.728  0.00  0.00    +0.128 C 
ATOM     18  H   UNL     1       3.014   7.623   2.036  0.00  0.00    +0.148 HD
ENDBRANCH  13  14
ENDBRANCH  12  13
ENDBRANCH   4   7
BRANCH   1  19
ATOM     19  C   UNL     1       2.107   0.217   3.655  0.00  0.00    +0.093 C 
BRANCH  19  20
ATOM     20  C   UNL     1       2.771  -0.436   2.440  0.00  0.00    -0.055 C 
ATOM     21  C   UNL     1       2.816  -1.952   2.638  0.00  0.00    -0.008 C 
ATOM     22  C   UNL     1       4.195   0.101   2.288  0.00  0.00    -0.008 C 
BRANCH  20  28
ATOM     23  C   UNL     1      -0.303   1.198   0.055  0.00  0.00    +0.005 C 
ATOM     24  C   UNL     1      -0.178  -0.326   0.121  0.00  0.00    -0.031 C 
ATOM     25  C   UNL     1       0.509  -0.838  -1.148  0.00  0.00    +0.003 C 
ATOM     26  C   UNL     1       1.929  -0.270  -1.213  0.00  0.00    -0.031 C 
ATOM     27  C   UNL     1       2.688  -0.663   0.056  0.00  0.00    -0.075 C 
ATOM     28  N   UNL     1       1.997  -0.122   1.232  0.00  0.00    +0.384 N 
ATOM     29  C   UNL     1       0.658  -0.717   1.341  0.00  0.00    -0.075 C 
ATOM     30  C   UNL     1       2.651  -0.837  -2.438  0.00  0.00    +0.005 C 
ATOM     31  H   UNL     1       1.912   0.879   1.139  0.00  0.00    -0.081 HD
ENDBRANCH  20  28
ENDBRANCH  19  20
ENDBRANCH   1  19
TORSDOF 6
