REMARK  Name = ZINC64450387
REMARK  6 active torsions:
REMARK  status: ('A' for Active; 'I' for Inactive)
REMARK    1  A    between atoms: C_1  and  C_2
REMARK    2  A    between atoms: C_2  and  N_3
REMARK    3  A    between atoms: C_5  and  C_9
REMARK    4  A    between atoms: C_6  and  C_8
REMARK    5  A    between atoms: C_18  and  C_30
REMARK    6  A    between atoms: N_20  and  C_21
REMARK                            x       y       z     vdW  Elec       q    Type
REMARK                         _______ _______ _______ _____ _____    ______ ____
ROOT
ATOM      1  C   UNL     1      -4.174  -2.485  -1.233  0.00  0.00    +0.062 C 
ATOM      2  C   UNL     1      -3.633  -3.921  -1.290  0.00  0.00    +0.108 C 
ATOM      3  C   UNL     1      -4.230  -4.699  -2.418  0.00  0.00    +0.215 C 
ATOM      4  O   UNL     1      -4.149  -5.907  -2.336  0.00  0.00    -0.276 OA
ATOM      5  N   UNL     1      -4.841  -4.223  -3.503  0.00  0.00    -0.295 N 
ATOM      6  C   UNL     1      -5.212  -2.820  -3.636  0.00  0.00    +0.194 C 
ATOM      7  C   UNL     1      -4.337  -2.039  -2.665  0.00  0.00    -0.008 C 
ATOM      8  C   UNL     1      -3.824  -1.044  -3.328  0.00  0.00    +0.019 C 
ATOM      9  N   UNL     1      -4.160  -1.106  -4.671  0.00  0.00    -0.277 N 
ATOM     10  N   UNL     1      -4.907  -2.243  -4.949  0.00  0.00    -0.164 NA
ATOM     11  C   UNL     1      -2.974   0.038  -2.713  0.00  0.00    +0.062 C 
ATOM     12  H   UNL     1      -5.047  -4.831  -4.230  0.00  0.00    +0.151 HD
ATOM     13  H   UNL     1      -3.909  -0.441  -5.332  0.00  0.00    +0.166 HD
ENDROOT
BRANCH  10  14
ATOM     14  C   UNL     1      -6.139  -1.912  -5.677  0.00  0.00    +0.270 C 
ATOM     15  N   UNL     1      -6.963  -0.993  -4.882  0.00  0.00    -0.350 N 
ATOM     16  C   UNL     1      -8.098  -1.586  -4.651  0.00  0.00    +0.061 A 
ATOM     17  C   UNL     1      -9.307  -1.180  -3.922  0.00  0.00    +0.027 A 
ATOM     18  C   UNL     1     -10.354  -2.026  -3.847  0.00  0.00    +0.002 A 
ATOM     19  C   UNL     1     -10.344  -3.299  -4.443  0.00  0.00    +0.002 A 
ATOM     20  C   UNL     1      -9.286  -3.770  -5.134  0.00  0.00    +0.027 A 
ATOM     21  C   UNL     1      -8.087  -2.934  -5.282  0.00  0.00    +0.061 A 
ATOM     22  N   UNL     1      -6.946  -3.122  -5.879  0.00  0.00    -0.350 N 
ATOM     23  H   UNL     1      -6.707  -0.106  -4.583  0.00  0.00    +0.163 HD
ATOM     24  H   UNL     1      -6.677  -3.915  -6.368  0.00  0.00    +0.163 HD
ENDBRANCH  10  14
BRANCH   1  27
ATOM     25  N   UNL     1      -1.372  -0.511   0.012  0.00  0.00    -0.271 N 
ATOM     26  C   UNL     1      -1.907  -1.373  -0.878  0.00  0.00    +0.112 A 
ATOM     27  C   UNL     1      -3.194  -1.589  -0.520  0.00  0.00    +0.001 A 
ATOM     28  C   UNL     1      -3.455  -0.834   0.628  0.00  0.00    +0.064 A 
ATOM     29  N   UNL     1      -2.361  -0.192   0.952  0.00  0.00    -0.176 NA
ATOM     30  C   UNL     1      -4.766  -0.775   1.369  0.00  0.00    +0.068 C 
BRANCH  25  32
ATOM     31  C   UNL     1      -0.019   1.526   0.010  0.00  0.00    +0.029 C 
ATOM     32  C   UNL     1       0.002  -0.004   0.002  0.00  0.00    +0.140 C 
ENDBRANCH  25  32
ENDBRANCH   1  27
TORSDOF 3
