REMARK  Name = ZINC66194923
REMARK  12 active torsions:
REMARK  status: ('A' for Active; 'I' for Inactive)
REMARK    1  A    between atoms: C_1  and  C_2
REMARK    2  A    between atoms: C_2  and  C_3
REMARK    3  A    between atoms: C_3  and  C_5
REMARK    4  A    between atoms: C_3  and  N_6
REMARK    5  A    between atoms: N_6  and  C_7
REMARK    6  A    between atoms: N_6  and  C_8
REMARK    7  A    between atoms: C_8  and  C_9
REMARK    8  A    between atoms: C_9  and  N_10
REMARK    9  A    between atoms: N_13  and  C_14
REMARK   10  A    between atoms: C_14  and  C_15
REMARK   11  A    between atoms: C_18  and  C_21
REMARK   12  A    between atoms: C_21  and  C_28
REMARK                            x       y       z     vdW  Elec       q    Type
REMARK                         _______ _______ _______ _____ _____    ______ ____
ROOT
ATOM      1  C   UNL     1      -2.914   6.021  -5.094  0.00  0.00    +0.141 C 
ENDROOT
BRANCH   1   5
ATOM      2  N   UNL     1      -2.240   3.344  -2.666  0.00  0.00    -0.301 N 
ATOM      3  C   UNL     1      -2.639   3.987  -3.781  0.00  0.00    +0.300 C 
ATOM      4  O   UNL     1      -3.141   3.364  -4.696  0.00  0.00    -0.253 OA
ATOM      5  N   UNL     1      -2.481   5.322  -3.882  0.00  0.00    -0.295 N 
ATOM      6  H   UNL     1      -1.839   3.841  -1.936  0.00  0.00    +0.150 HD
ATOM      7  H   UNL     1      -2.080   5.819  -3.152  0.00  0.00    +0.151 HD
BRANCH   2   8
ATOM      8  C   UNL     1      -2.412   1.893  -2.557  0.00  0.00    +0.087 C 
BRANCH   8   9
ATOM      9  C   UNL     1      -1.881   1.417  -1.203  0.00  0.00    -0.060 C 
BRANCH   9  10
ATOM     10  N   UNL     1      -2.053  -0.037  -1.093  0.00  0.00    +0.381 N 
ATOM     11  C   UNL     1      -3.486  -0.360  -1.060  0.00  0.00    -0.096 C 
ATOM     12  H   UNL     1      -1.625  -0.487  -1.888  0.00  0.00    -0.082 HD
BRANCH  10  13
ATOM     13  C   UNL     1      -1.416  -0.514   0.142  0.00  0.00    -0.072 C 
ATOM     14  C   UNL     1      -2.150   0.066   1.352  0.00  0.00    -0.013 C 
BRANCH  13  16
ATOM     15  C   UNL     1      -0.638  -2.624  -0.948  0.00  0.00    +0.002 C 
ATOM     16  C   UNL     1      -1.479  -2.042   0.191  0.00  0.00    -0.019 C 
ENDBRANCH  13  16
ENDBRANCH  10  13
ENDBRANCH   9  10
ENDBRANCH   8   9
ENDBRANCH   2   8
ENDBRANCH   1   5
BRANCH   1  17
ATOM     17  C   UNL     1      -2.628   7.494  -4.954  0.00  0.00    -0.030 A 
ATOM     18  C   UNL     1      -3.578   8.334  -4.402  0.00  0.00    +0.005 A 
ATOM     19  C   UNL     1      -3.315   9.685  -4.273  0.00  0.00    +0.006 A 
ATOM     20  C   UNL     1      -2.102  10.196  -4.695  0.00  0.00    -0.016 A 
ATOM     21  C   UNL     1      -1.152   9.357  -5.246  0.00  0.00    +0.006 A 
ATOM     22  C   UNL     1      -1.413   8.005  -5.371  0.00  0.00    +0.005 A 
BRANCH  20  23
ATOM     23  C   UNL     1      -1.816  11.669  -4.556  0.00  0.00    +0.135 C 
ATOM     24  C   UNL     1      -2.738  12.478  -5.447  0.00  0.00    +0.248 C 
ATOM     25  O   UNL     1      -3.948  12.530  -5.394  0.00  0.00    -0.273 OA
ATOM     26  N   UNL     1      -1.932  13.128  -6.310  0.00  0.00    -0.238 N 
ATOM     27  C   UNL     1      -0.643  12.845  -6.090  0.00  0.00    +0.307 C 
ATOM     28  O   UNL     1       0.271  13.312  -6.741  0.00  0.00    -0.252 OA
ATOM     29  N   UNL     1      -0.472  11.987  -5.068  0.00  0.00    -0.282 N 
ATOM     30  C   UNL     1      -1.953  12.107  -3.096  0.00  0.00    +0.047 C 
ATOM     31  H   UNL     1      -2.248  13.727  -7.005  0.00  0.00    +0.159 HD
ATOM     32  H   UNL     1       0.371  11.645  -4.734  0.00  0.00    +0.152 HD
ENDBRANCH  20  23
ENDBRANCH   1  17
TORSDOF 8
