REMARK  Name = ZINC15938397
REMARK  5 active torsions:
REMARK  status: ('A' for Active; 'I' for Inactive)
REMARK    1  A    between atoms: C_1  and  C_2
REMARK    2  A    between atoms: C_4  and  C_20
REMARK    3  A    between atoms: C_7  and  C_15
REMARK    4  A    between atoms: C_9  and  C_14
REMARK    5  A    between atoms: N_12  and  O_13
REMARK                            x       y       z     vdW  Elec       q    Type
REMARK                         _______ _______ _______ _____ _____    ______ ____
ROOT
ATOM      1  C   UNL     1      -0.799  -1.737  -2.318  0.00  0.00    +0.016 C 
ATOM      2  C   UNL     1      -1.786  -1.004  -1.408  0.00  0.00    +0.058 C 
ATOM      3  C   UNL     1      -1.337  -1.133   0.052  0.00  0.00    +0.129 C 
ATOM      4  N   UNL     1      -2.366  -0.565   0.931  0.00  0.00    -0.296 NA
ATOM      5  C   UNL     1      -3.613  -1.337   0.872  0.00  0.00    +0.129 C 
ATOM      6  C   UNL     1      -4.217  -1.222  -0.532  0.00  0.00    +0.058 C 
ATOM      7  C   UNL     1      -3.160  -1.628  -1.538  0.00  0.00    +0.067 C 
ATOM      8  N   UNL     1      -3.420  -2.469  -2.466  0.00  0.00    -0.096 NA
ATOM      9  C   UNL     1      -4.648   0.223  -0.791  0.00  0.00    +0.016 C 
ATOM     10  H   UNL     1      -2.004  -0.569   1.970  0.00  0.00    +0.123 HD
ENDROOT
BRANCH   5  11
ATOM     11  C   UNL     1      -4.589  -0.795   1.885  0.00  0.00    +0.122 A 
ATOM     12  C   UNL     1      -5.411  -1.529   2.656  0.00  0.00    +0.046 A 
ATOM     13  C   UNL     1      -6.143  -0.620   3.454  0.00  0.00    +0.041 A 
ATOM     14  C   UNL     1      -5.730   0.615   3.118  0.00  0.00    +0.195 A 
ATOM     15  O   UNL     1      -4.788   0.503   2.167  0.00  0.00    -0.466 OA
ENDBRANCH   5  11
BRANCH   3  16
ATOM     16  C   UNL     1      -0.042  -0.388   0.247  0.00  0.00    +0.122 A 
ATOM     17  C   UNL     1       1.185  -0.940   0.285  0.00  0.00    +0.046 A 
ATOM     18  C   UNL     1       2.103   0.117   0.484  0.00  0.00    +0.041 A 
ATOM     19  C   UNL     1       1.382   1.251   0.556  0.00  0.00    +0.195 A 
ATOM     20  O   UNL     1       0.084   0.939   0.411  0.00  0.00    -0.466 OA
ENDBRANCH   3  16
BRANCH   8  21
ATOM     21  O   UNL     1      -4.676  -3.120  -2.501  0.00  0.00    -0.409 OA
ATOM     22  H   UNL     1      -4.899  -3.843  -3.299  0.00  0.00    +0.328 HD
ENDBRANCH   8  21
TORSDOF 3
