REMARK  Name = ZINC03954439
REMARK  5 active torsions:
REMARK  status: ('A' for Active; 'I' for Inactive)
REMARK    1  A    between atoms: C_11  and  N_18
REMARK    2  A    between atoms: C_13  and  N_14
REMARK    3  A    between atoms: N_14  and  C_15
REMARK    4  A    between atoms: C_15  and  C_16
REMARK    5  A    between atoms: C_16  and  O_17
REMARK                            x       y       z     vdW  Elec       q    Type
REMARK                         _______ _______ _______ _____ _____    ______ ____
ROOT
ATOM      1  C   UNL     1      -1.230   1.744   0.017  0.00  0.00    +0.001 A 
ATOM      2  C   UNL     1      -0.013   1.076   0.008  0.00  0.00    +0.001 A 
ATOM      3  C   UNL     1       1.167   1.766   0.000  0.00  0.00    +0.012 A 
ATOM      4  C   UNL     1       1.148   3.162   0.008  0.00  0.00    +0.021 A 
ATOM      5  C   UNL     1      -0.093   3.840   0.023  0.00  0.00    -0.005 A 
ATOM      6  C   UNL     1      -1.280   3.111   0.029  0.00  0.00    +0.009 A 
ATOM      7  C   UNL     1      -0.068   5.307   0.031  0.00  0.00    +0.010 A 
ATOM      8  C   UNL     1      -1.246   6.053   0.047  0.00  0.00    +0.030 A 
ATOM      9  C   UNL     1      -1.183   7.429   0.054  0.00  0.00    +0.044 A 
ATOM     10  C   UNL     1       0.048   8.076   0.045  0.00  0.00    +0.054 A 
ATOM     11  C   UNL     1       1.212   7.367   0.030  0.00  0.00    +0.151 A 
ATOM     12  C   UNL     1       1.183   5.964   0.022  0.00  0.00    +0.079 A 
ATOM     13  C   UNL     1       2.378   3.955   0.001  0.00  0.00    +0.105 A 
ATOM     14 CL   UNL     1      -2.647   8.360   0.073  0.00  0.00    -0.083 Cl
ATOM     15  N   UNL     1       2.410   5.311   0.007  0.00  0.00    -0.341 N 
ATOM     16  H   UNL     1       3.297   5.829   0.002  0.00  0.00    +0.167 HD
ENDROOT
BRANCH  11  17
ATOM     17  N   UNL     1       2.510   8.079   0.021  0.00  0.00    +0.059 N 
ATOM     18  O   UNL     1       2.537   9.296   0.028  0.00  0.00    -0.126 OA
ATOM     19  O   UNL     1       3.551   7.447   0.009  0.00  0.00    -0.126 OA
ENDBRANCH  11  17
BRANCH  13  20
ATOM     20  N   UNL     1       3.603   3.315  -0.015  0.00  0.00    -0.328 N 
ATOM     21  H   UNL     1       3.644   2.346  -0.021  0.00  0.00    +0.147 HD
BRANCH  20  22
ATOM     22  C   UNL     1       4.840   4.101  -0.022  0.00  0.00    +0.130 C 
BRANCH  22  23
ATOM     23  C   UNL     1       6.043   3.156  -0.038  0.00  0.00    +0.174 C 
BRANCH  23  24
ATOM     24  O   UNL     1       6.055   2.421  -1.264  0.00  0.00    -0.393 OA
ATOM     25  H   UNL     1       6.793   1.802  -1.343  0.00  0.00    +0.209 HD
ENDBRANCH  23  24
ENDBRANCH  22  23
ENDBRANCH  20  22
ENDBRANCH  13  20
TORSDOF 5
