REMARK  Name = ZINC50817674
REMARK  7 active torsions:
REMARK  status: ('A' for Active; 'I' for Inactive)
REMARK    1  A    between atoms: C_1  and  N_2
REMARK    2  A    between atoms: N_2  and  C_3
REMARK    3  A    between atoms: N_2  and  C_11
REMARK    4  A    between atoms: C_3  and  C_4
REMARK    5  A    between atoms: C_11  and  C_12
REMARK    6  A    between atoms: C_15  and  N_21
REMARK    7  A    between atoms: C_16  and  N_18
REMARK                            x       y       z     vdW  Elec       q    Type
REMARK                         _______ _______ _______ _____ _____    ______ ____
ROOT
ATOM      1  C   UNL     1       1.043  -0.821   1.578  0.00  0.00    -0.043 C 
ENDROOT
BRANCH   1   2
ATOM      2  C   UNL     1       0.099  -0.267   2.613  0.00  0.00    -0.062 A 
ATOM      3  C   UNL     1       0.166   1.069   2.964  0.00  0.00    +0.004 A 
ATOM      4  C   UNL     1      -0.699   1.580   3.912  0.00  0.00    +0.025 A 
ATOM      5  C   UNL     1      -1.636   0.750   4.514  0.00  0.00    +0.055 A 
ATOM      6  C   UNL     1      -1.700  -0.591   4.160  0.00  0.00    +0.147 A 
ATOM      7  C   UNL     1      -0.837  -1.095   3.207  0.00  0.00    +0.036 A 
BRANCH   6   8
ATOM      8  N   UNL     1      -2.697  -1.479   4.800  0.00  0.00    +0.058 N 
ATOM      9  O   UNL     1      -2.957  -1.350   5.973  0.00  0.00    -0.126 OA
ATOM     10  O   UNL     1      -3.251  -2.334   4.149  0.00  0.00    -0.126 OA
ENDBRANCH   6   8
BRANCH   5  11
ATOM     11  N   UNL     1      -2.511   1.264   5.474  0.00  0.00    -0.356 N 
ATOM     12  H   UNL     1      -2.387   2.165   5.811  0.00  0.00    +0.142 HD
ATOM     13  H   UNL     1      -3.243   0.720   5.803  0.00  0.00    +0.142 HD
ENDBRANCH   5  11
ENDBRANCH   1   2
BRANCH   1  15
ATOM     14  C   UNL     1       0.292   0.735  -0.086  0.00  0.00    -0.095 C 
ATOM     15  N   UNL     1       0.440  -0.688   0.245  0.00  0.00    +0.383 N 
ATOM     16  H   UNL     1      -0.467  -1.131   0.240  0.00  0.00    -0.081 HD
BRANCH  15  17
ATOM     17  C   UNL     1       1.306  -1.335  -0.750  0.00  0.00    -0.043 C 
BRANCH  17  18
ATOM     18  C   UNL     1       0.630  -1.307  -2.097  0.00  0.00    -0.064 A 
ATOM     19  C   UNL     1      -0.199  -2.346  -2.476  0.00  0.00    +0.003 A 
ATOM     20  C   UNL     1      -0.819  -2.321  -3.711  0.00  0.00    +0.020 A 
ATOM     21  C   UNL     1      -0.609  -1.256  -4.569  0.00  0.00    +0.041 A 
ATOM     22  C   UNL     1       0.222  -0.216  -4.189  0.00  0.00    +0.020 A 
ATOM     23  C   UNL     1       0.837  -0.240  -2.952  0.00  0.00    +0.003 A 
ATOM     24 CL   UNL     1      -1.386  -1.224  -6.121  0.00  0.00    -0.084 Cl
ENDBRANCH  17  18
ENDBRANCH  15  17
ENDBRANCH   1  15
TORSDOF 6
