REMARK  Name = ZINC50014299
REMARK  9 active torsions:
REMARK  status: ('A' for Active; 'I' for Inactive)
REMARK    1  A    between atoms: C_1  and  C_2
REMARK    2  A    between atoms: C_2  and  C_3
REMARK    3  A    between atoms: C_3  and  N_4
REMARK    4  A    between atoms: C_6  and  C_9
REMARK    5  A    between atoms: C_9  and  C_10
REMARK    6  A    between atoms: C_9  and  C_11
REMARK    7  A    between atoms: C_9  and  N_19
REMARK    8  A    between atoms: C_14  and  C_18
REMARK    9  A    between atoms: C_15  and  C_17
REMARK                            x       y       z     vdW  Elec       q    Type
REMARK                         _______ _______ _______ _____ _____    ______ ____
ROOT
ATOM      1  C   UNL     1       0.123  -5.266  -2.680  0.00  0.00    -0.019 C 
ATOM      2  C   UNL     1      -1.251  -5.770  -2.234  0.00  0.00    -0.001 C 
ENDROOT
BRANCH   1   3
ATOM      3  C   UNL     1       1.153  -6.341  -2.444  0.00  0.00    -0.054 A 
ATOM      4  C   UNL     1       1.289  -6.904  -1.189  0.00  0.00    +0.003 A 
ATOM      5  C   UNL     1       2.234  -7.889  -0.973  0.00  0.00    +0.004 A 
ATOM      6  C   UNL     1       3.042  -8.312  -2.011  0.00  0.00    -0.048 A 
ATOM      7  C   UNL     1       2.906  -7.749  -3.266  0.00  0.00    -0.047 A 
ATOM      8  C   UNL     1       1.958  -6.767  -3.484  0.00  0.00    +0.006 A 
ATOM      9  C   UNL     1       3.787  -8.210  -4.399  0.00  0.00    +0.044 C 
ATOM     10  C   UNL     1       4.073  -9.386  -1.775  0.00  0.00    +0.044 C 
ENDBRANCH   1   3
BRANCH   1  13
ATOM     11  N   UNL     1       1.261  -2.069  -1.347  0.00  0.00    -0.271 N 
ATOM     12  C   UNL     1       1.122  -2.941  -2.367  0.00  0.00    +0.110 A 
ATOM     13  C   UNL     1       0.488  -4.037  -1.889  0.00  0.00    -0.017 A 
ATOM     14  C   UNL     1       0.232  -3.827  -0.530  0.00  0.00    +0.136 A 
ATOM     15  N   UNL     1       0.701  -2.650  -0.203  0.00  0.00    -0.179 NA
BRANCH  11  16
ATOM     16  C   UNL     1       1.893  -0.749  -1.422  0.00  0.00    +0.143 C 
BRANCH  16  18
ATOM     17  C   UNL     1       1.579   1.691  -0.987  0.00  0.00    +0.005 C 
ATOM     18  C   UNL     1       0.919   0.313  -0.908  0.00  0.00    +0.020 C 
ENDBRANCH  16  18
ENDBRANCH  11  16
ENDBRANCH   1  13
BRANCH   1  19
ATOM     19  N   UNL     1       0.081  -4.933  -4.110  0.00  0.00    +0.387 N 
ATOM     20  H   UNL     1       0.988  -4.601  -4.405  0.00  0.00    -0.088 HD
ATOM     21  H   UNL     1      -0.163  -5.756  -4.640  0.00  0.00    -0.088 HD
ATOM     22  H   UNL     1      -0.608  -4.214  -4.268  0.00  0.00    -0.088 HD
ENDBRANCH   1  19
TORSDOF 5
