REMARK  Name = ZINC67561275
REMARK  9 active torsions:
REMARK  status: ('A' for Active; 'I' for Inactive)
REMARK    1  A    between atoms: C_1  and  C_2
REMARK    2  A    between atoms: C_2  and  N_3
REMARK    3  A    between atoms: C_4  and  C_6
REMARK    4  A    between atoms: C_9  and  N_28
REMARK    5  A    between atoms: N_12  and  S_13
REMARK    6  A    between atoms: S_13  and  C_16
REMARK    7  A    between atoms: C_16  and  C_17
REMARK    8  A    between atoms: C_22  and  C_23
REMARK    9  A    between atoms: C_22  and  C_24
REMARK                            x       y       z     vdW  Elec       q    Type
REMARK                         _______ _______ _______ _____ _____    ______ ____
ROOT
ATOM      1  C   UNL     1       1.059  -4.093  -3.952  0.00  0.00    +0.163 C 
ATOM      2  C   UNL     1       0.651  -2.751  -4.595  0.00  0.00    +0.015 C 
ATOM      3  C   UNL     1       1.445  -1.711  -3.760  0.00  0.00    -0.057 C 
ATOM      4  C   UNL     1       1.408  -2.351  -2.350  0.00  0.00    +0.094 C 
ATOM      5  N   UNL     1       1.528  -3.804  -2.589  0.00  0.00    -0.171 NA
ENDROOT
BRANCH   1   7
ATOM      6  N   UNL     1       1.875  -5.495  -5.820  0.00  0.00    -0.314 N 
ATOM      7  C   UNL     1       2.168  -4.728  -4.751  0.00  0.00    +0.232 C 
ATOM      8  O   UNL     1       3.324  -4.549  -4.433  0.00  0.00    -0.274 OA
ATOM      9  H   UNL     1       0.950  -5.638  -6.075  0.00  0.00    +0.149 HD
BRANCH   6  11
ATOM     10  C   UNL     1       2.352  -6.923  -7.747  0.00  0.00    +0.024 C 
ATOM     11  C   UNL     1       2.953  -6.112  -6.597  0.00  0.00    +0.101 C 
ENDBRANCH   6  11
ENDBRANCH   1   7
BRANCH   3  12
ATOM     12  N   UNL     1       0.769  -0.406  -3.765  0.00  0.00    +0.381 N 
ATOM     13  H   UNL     1      -0.153  -0.504  -3.368  0.00  0.00    -0.090 HD
ATOM     14  H   UNL     1       1.304   0.251  -3.216  0.00  0.00    -0.090 HD
ATOM     15  H   UNL     1       0.694  -0.070  -4.713  0.00  0.00    -0.090 HD
ENDBRANCH   3  12
BRANCH   5  16
ATOM     16  S   UNL     1       2.093  -4.921  -1.506  0.00  0.00    +0.033 S 
ATOM     17  O   UNL     1       2.469  -6.038  -2.300  0.00  0.00    -0.158 OA
ATOM     18  O   UNL     1       3.061  -4.221  -0.735  0.00  0.00    -0.158 OA
BRANCH  16  19
ATOM     19  C   UNL     1       0.659  -5.340  -0.477  0.00  0.00    +0.200 C 
BRANCH  19  20
ATOM     20  C   UNL     1       1.108  -6.231   0.684  0.00  0.00    +0.055 C 
ATOM     21  C   UNL     1       2.129  -5.595   1.675  0.00  0.00    +0.017 C 
ATOM     22  C   UNL     1       2.008  -6.447   2.959  0.00  0.00    +0.005 C 
ATOM     23  C   UNL     1       0.930  -7.521   2.614  0.00  0.00    +0.003 C 
ATOM     24  C   UNL     1      -0.017  -6.689   1.678  0.00  0.00    -0.018 C 
ATOM     25  C   UNL     1      -0.655  -5.507   2.409  0.00  0.00    +0.012 C 
ATOM     26  C   UNL     1      -1.066  -7.569   0.994  0.00  0.00    +0.012 C 
ATOM     27  C   UNL     1       1.632  -8.451   1.578  0.00  0.00    +0.079 C 
ATOM     28  C   UNL     1       1.715  -7.586   0.291  0.00  0.00    +0.142 C 
ATOM     29  O   UNL     1       2.178  -7.898  -0.779  0.00  0.00    -0.297 OA
ENDBRANCH  19  20
ENDBRANCH  16  19
ENDBRANCH   5  16
TORSDOF 6
