REMARK  Name = ZINC31701752
REMARK  7 active torsions:
REMARK  status: ('A' for Active; 'I' for Inactive)
REMARK    1  A    between atoms: C_3  and  O_12
REMARK    2  A    between atoms: C_4  and  C_10
REMARK    3  A    between atoms: C_6  and  N_7
REMARK    4  A    between atoms: O_12  and  C_13
REMARK    5  A    between atoms: C_13  and  C_14
REMARK    6  A    between atoms: N_16  and  C_17
REMARK    7  A    between atoms: C_18  and  C_25
REMARK                            x       y       z     vdW  Elec       q    Type
REMARK                         _______ _______ _______ _____ _____    ______ ____
ROOT
ATOM      1  C   UNL     1       4.817   4.165  -0.023  0.00  0.00    +0.255 C 
ATOM      2  O   UNL     1       5.794   3.446  -0.036  0.00  0.00    -0.272 OA
ATOM      3  N   UNL     1       4.966   5.504  -0.018  0.00  0.00    -0.277 N 
ATOM      4  H   UNL     1       4.185   6.079  -0.007  0.00  0.00    +0.155 HD
ENDROOT
BRANCH   3   5
ATOM      5  C   UNL     1       6.237   6.060  -0.027  0.00  0.00    +0.084 A 
ATOM      6  C   UNL     1       6.578   7.400  -0.018  0.00  0.00    +0.068 A 
ATOM      7  C   UNL     1       8.003   7.728  -0.031  0.00  0.00    -0.023 A 
ATOM      8  C   UNL     1       8.813   6.654  -0.052  0.00  0.00    -0.004 A 
ATOM      9  S   UNL     1       7.712   5.262  -0.045  0.00  0.00    -0.077 S 
ATOM     10  C   UNL     1      10.265   7.048  -0.069  0.00  0.00    +0.043 C 
ATOM     11  C   UNL     1      10.262   8.534  -0.488  0.00  0.00    +0.010 C 
ATOM     12  C   UNL     1       8.863   8.990  -0.025  0.00  0.00    +0.037 C 
BRANCH   6  13
ATOM     13  C   UNL     1       5.554   8.448   0.003  0.00  0.00    +0.244 C 
ATOM     14  O   UNL     1       5.140   8.874   1.066  0.00  0.00    -0.270 OA
ATOM     15  N   UNL     1       5.070   8.941  -1.155  0.00  0.00    -0.325 N 
ATOM     16  H   UNL     1       5.399   8.602  -2.001  0.00  0.00    +0.145 HD
ATOM     17  H   UNL     1       4.392   9.635  -1.141  0.00  0.00    +0.145 HD
ENDBRANCH   6  13
ENDBRANCH   3   5
BRANCH   1  18
ATOM     18  C   UNL     1       3.437   3.560  -0.013  0.00  0.00    +0.324 C 
BRANCH  18  19
ATOM     19  O   UNL     1       3.541   2.135  -0.021  0.00  0.00    -0.482 OA
BRANCH  19  22
ATOM     20  C   UNL     1      -0.017   1.382   0.010  0.00  0.00    +0.036 A 
ATOM     21  C   UNL     1       1.164   2.098   0.002  0.00  0.00    +0.048 A 
ATOM     22  C   UNL     1       2.381   1.433  -0.013  0.00  0.00    +0.132 A 
ATOM     23  C   UNL     1       2.405   0.028  -0.021  0.00  0.00    +0.058 A 
ATOM     24  C   UNL     1       1.200  -0.683  -0.013  0.00  0.00    +0.047 A 
ATOM     25  C   UNL     1       0.002  -0.004   0.002  0.00  0.00    +0.127 A 
BRANCH  25  26
ATOM     26  N   UNL     1      -1.272  -0.758   0.010  0.00  0.00    +0.056 N 
ATOM     27  O   UNL     1      -2.325  -0.165   0.023  0.00  0.00    -0.126 OA
ATOM     28  O   UNL     1      -1.259  -1.967   0.004  0.00  0.00    -0.126 OA
ENDBRANCH  25  26
BRANCH  23  29
ATOM     29  C   UNL     1       3.686  -0.688  -0.037  0.00  0.00    +0.262 C 
ATOM     30  O   UNL     1       3.703  -1.901  -0.044  0.00  0.00    -0.296 OA
ENDBRANCH  23  29
ENDBRANCH  19  22
ENDBRANCH  18  19
ENDBRANCH   1  18
TORSDOF 7
