REMARK  Name = ZINC14265386
REMARK  5 active torsions:
REMARK  status: ('A' for Active; 'I' for Inactive)
REMARK    1  A    between atoms: C_2  and  C_11
REMARK    2  A    between atoms: C_3  and  O_10
REMARK    3  A    between atoms: C_11  and  N_12
REMARK    4  A    between atoms: N_12  and  C_13
REMARK    5  A    between atoms: N_12  and  C_21
REMARK                            x       y       z     vdW  Elec       q    Type
REMARK                         _______ _______ _______ _____ _____    ______ ____
ROOT
ATOM      1  C   UNL     1       1.123   3.646  -0.001  0.00  0.00    -0.038 C 
ENDROOT
BRANCH   1   3
ATOM      2  C   UNL     1      -0.207   1.526  -0.046  0.00  0.00    +0.055 A 
ATOM      3  C   UNL     1       1.031   2.143  -0.032  0.00  0.00    -0.019 A 
ATOM      4  C   UNL     1       2.188   1.378  -0.047  0.00  0.00    +0.122 A 
ATOM      5  C   UNL     1       2.105  -0.006  -0.076  0.00  0.00    +0.095 A 
ATOM      6  C   UNL     1       0.866  -0.625  -0.090  0.00  0.00    +0.170 A 
ATOM      7  C   UNL     1      -0.294   0.145  -0.075  0.00  0.00    +0.167 A 
ATOM      8  O   UNL     1      -1.373  -0.693  -0.093  0.00  0.00    -0.453 OA
ATOM      9  C   UNL     1      -0.863  -1.966  -0.532  0.00  0.00    +0.466 C 
ATOM     10  O   UNL     1       0.515  -1.944  -0.119  0.00  0.00    -0.452 OA
BRANCH   4  11
ATOM     11  O   UNL     1       3.404   1.986  -0.033  0.00  0.00    -0.506 OA
ATOM     12  H   UNL     1       3.755   2.144   0.854  0.00  0.00    +0.292 HD
ENDBRANCH   4  11
ENDBRANCH   1   3
BRANCH   1  13
ATOM     13  N   UNL     1       1.509   4.086   1.347  0.00  0.00    +0.387 N 
ATOM     14  H   UNL     1       2.348   3.603   1.630  0.00  0.00    -0.080 HD
BRANCH  13  15
ATOM     15  C   UNL     1       1.756   5.534   1.338  0.00  0.00    -0.045 C 
ATOM     16  C   UNL     1       2.913   5.857   0.377  0.00  0.00    +0.009 C 
ATOM     17  C   UNL     1       3.390   7.312   0.597  0.00  0.00    +0.164 C 
ATOM     18  S   UNL     1       2.981   7.609   2.365  0.00  0.00    -0.033 S 
ATOM     19  O   UNL     1       4.189   7.709   3.108  0.00  0.00    -0.174 OA
ATOM     20  O   UNL     1       2.020   8.652   2.449  0.00  0.00    -0.174 OA
ATOM     21  C   UNL     1       2.165   6.006   2.762  0.00  0.00    +0.151 C 
ENDBRANCH  13  15
BRANCH  13  22
ATOM     22  C   UNL     1       0.425   3.780   2.291  0.00  0.00    -0.068 C 
ATOM     23  C   UNL     1       0.814   3.167   3.638  0.00  0.00    -0.017 C 
ATOM     24  C   UNL     1       0.131   2.306   2.574  0.00  0.00    -0.017 C 
ENDBRANCH  13  22
ENDBRANCH   1  13
TORSDOF 5
