REMARK  Name = ZINC62043602
REMARK  10 active torsions:
REMARK  status: ('A' for Active; 'I' for Inactive)
REMARK    1  A    between atoms: C_1  and  C_2
REMARK    2  A    between atoms: C_2  and  C_3
REMARK    3  A    between atoms: C_2  and  N_19
REMARK    4  A    between atoms: C_3  and  N_4
REMARK    5  A    between atoms: N_7  and  C_8
REMARK    6  A    between atoms: C_8  and  C_9
REMARK    7  A    between atoms: C_9  and  C_10
REMARK    8  A    between atoms: C_9  and  O_18
REMARK    9  A    between atoms: C_13  and  O_16
REMARK   10  A    between atoms: O_16  and  C_17
REMARK                            x       y       z     vdW  Elec       q    Type
REMARK                         _______ _______ _______ _____ _____    ______ ____
ROOT
ATOM      1  N   UNL     1      -1.054  -2.204   0.163  0.00  0.00    -0.301 N 
ATOM      2  C   UNL     1      -2.074  -3.069   0.329  0.00  0.00    +0.300 C 
ATOM      3  O   UNL     1      -3.216  -2.658   0.395  0.00  0.00    -0.253 OA
ATOM      4  N   UNL     1      -1.827  -4.391   0.423  0.00  0.00    -0.297 N 
ATOM      5  H   UNL     1      -0.143  -2.532   0.110  0.00  0.00    +0.150 HD
ATOM      6  H   UNL     1      -0.916  -4.719   0.371  0.00  0.00    +0.150 HD
ENDROOT
BRANCH   1   7
ATOM      7  C   UNL     1      -1.322  -0.767   0.060  0.00  0.00    +0.090 C 
BRANCH   7   9
ATOM      8  C   UNL     1      -0.277   1.501  -0.014  0.00  0.00    -0.012 C 
ATOM      9  C   UNL     1       0.002  -0.003   0.015  0.00  0.00    -0.054 C 
BRANCH   9  10
ATOM     10  N   UNL     1       0.798  -0.330   1.206  0.00  0.00    +0.385 N 
ATOM     11  C   UNL     1       0.125   0.190   2.406  0.00  0.00    -0.073 C 
ATOM     12  C   UNL     1       0.792  -0.416   3.641  0.00  0.00    +0.017 C 
ATOM     13  C   UNL     1       2.285  -0.229   3.558  0.00  0.00    -0.048 A 
ATOM     14  C   UNL     1       3.041  -0.388   4.709  0.00  0.00    +0.004 A 
ATOM     15  C   UNL     1       4.412  -0.228   4.670  0.00  0.00    +0.000 A 
ATOM     16  C   UNL     1       5.033   0.093   3.478  0.00  0.00    +0.000 A 
ATOM     17  C   UNL     1       4.282   0.254   2.331  0.00  0.00    +0.002 A 
ATOM     18  C   UNL     1       2.904   0.095   2.369  0.00  0.00    -0.061 A 
ATOM     19  C   UNL     1       2.123   0.287   1.096  0.00  0.00    -0.042 C 
ATOM     20  H   UNL     1       0.897  -1.332   1.280  0.00  0.00    -0.081 HD
ENDBRANCH   9  10
ENDBRANCH   7   9
ENDBRANCH   1   7
BRANCH   4  21
ATOM     21  C   UNL     1      -2.935  -5.332   0.605  0.00  0.00    +0.141 C 
BRANCH  21  22
ATOM     22  C   UNL     1      -2.386  -6.758   0.681  0.00  0.00    +0.162 C 
BRANCH  22  23
ATOM     23  C   UNL     1      -3.526  -7.726   0.868  0.00  0.00    -0.017 A 
ATOM     24  C   UNL     1      -4.218  -8.198  -0.233  0.00  0.00    +0.010 A 
ATOM     25  C   UNL     1      -5.263  -9.085  -0.064  0.00  0.00    +0.046 A 
ATOM     26  C   UNL     1      -5.619  -9.502   1.210  0.00  0.00    +0.120 A 
ATOM     27  C   UNL     1      -4.923  -9.027   2.312  0.00  0.00    +0.046 A 
ATOM     28  C   UNL     1      -3.874  -8.145   2.138  0.00  0.00    +0.010 A 
BRANCH  26  29
ATOM     29  O   UNL     1      -6.647 -10.374   1.379  0.00  0.00    -0.495 OA
ATOM     30  C   UNL     1      -6.957 -10.760   2.719  0.00  0.00    +0.277 C 
ENDBRANCH  26  29
ENDBRANCH  22  23
BRANCH  22  31
ATOM     31  O   UNL     1      -1.692  -7.066  -0.530  0.00  0.00    -0.386 OA
ATOM     32  H   UNL     1      -2.243  -7.015  -1.323  0.00  0.00    +0.210 HD
ENDBRANCH  22  31
ENDBRANCH  21  22
ENDBRANCH   4  21
TORSDOF 8
