REMARK  Name = ZINC09949781
REMARK  7 active torsions:
REMARK  status: ('A' for Active; 'I' for Inactive)
REMARK    1  A    between atoms: C_1  and  O_2
REMARK    2  A    between atoms: O_2  and  C_3
REMARK    3  A    between atoms: C_8  and  C_9
REMARK    4  A    between atoms: C_12  and  C_14
REMARK    5  A    between atoms: C_14  and  C_23
REMARK    6  A    between atoms: C_15  and  C_16
REMARK    7  A    between atoms: C_21  and  O_22
REMARK                            x       y       z     vdW  Elec       q    Type
REMARK                         _______ _______ _______ _____ _____    ______ ____
ROOT
ATOM      1  C   UNL     1       3.603   3.273   0.089  0.00  0.00    +0.069 C 
ATOM      2  C   UNL     1       2.408   3.932   0.049  0.00  0.00    +0.027 C 
ENDROOT
BRANCH   2   3
ATOM      3  C   UNL     1       1.155   3.188   0.207  0.00  0.00    +0.017 A 
ATOM      4  C   UNL     1       1.033   2.217   1.210  0.00  0.00    +0.011 A 
ATOM      5  C   UNL     1      -0.147   1.523   1.352  0.00  0.00    +0.001 A 
ATOM      6  C   UNL     1      -1.214   1.775   0.503  0.00  0.00    +0.004 A 
ATOM      7  C   UNL     1      -1.111   2.733  -0.487  0.00  0.00    +0.046 A 
ATOM      8  C   UNL     1       0.068   3.443  -0.647  0.00  0.00    +0.124 A 
BRANCH   8   9
ATOM      9  O   UNL     1       0.172   4.381  -1.622  0.00  0.00    -0.506 OA
ATOM     10  H   UNL     1       0.498   4.037  -2.465  0.00  0.00    +0.292 HD
ENDBRANCH   8   9
ENDBRANCH   2   3
BRANCH   1  14
ATOM     11  C   UNL     1       7.134   4.425   0.227  0.00  0.00    +0.082 A 
ATOM     12  C   UNL     1       6.902   5.776   0.226  0.00  0.00    +0.075 A 
ATOM     13  S   UNL     1       5.115   5.806   0.153  0.00  0.00    -0.075 S 
ATOM     14  C   UNL     1       4.864   4.036   0.141  0.00  0.00    +0.114 A 
ATOM     15  N   UNL     1       6.111   3.591   0.185  0.00  0.00    -0.239 NA
BRANCH  11  21
ATOM     16  C   UNL     1       8.755   2.526   0.283  0.00  0.00    +0.129 A 
ATOM     17  C   UNL     1      10.054   2.047   0.323  0.00  0.00    +0.049 A 
ATOM     18  C   UNL     1      11.117   2.930   0.367  0.00  0.00    +0.042 A 
ATOM     19  C   UNL     1      10.890   4.297   0.367  0.00  0.00    +0.124 A 
ATOM     20  C   UNL     1       9.599   4.787   0.322  0.00  0.00    +0.052 A 
ATOM     21  C   UNL     1       8.522   3.904   0.276  0.00  0.00    +0.045 A 
ATOM     22  F   UNL     1      11.935   5.153   0.411  0.00  0.00    -0.205 F 
BRANCH  16  24
ATOM     23  C   UNL     1       8.023   0.264   0.254  0.00  0.00    +0.277 C 
ATOM     24  O   UNL     1       7.709   1.658   0.245  0.00  0.00    -0.494 OA
ENDBRANCH  16  24
ENDBRANCH  11  21
ENDBRANCH   1  14
BRANCH   1  25
ATOM     25  C   UNL     1       3.633   1.802   0.081  0.00  0.00    +0.244 C 
ATOM     26  O   UNL     1       2.606   1.174  -0.096  0.00  0.00    -0.270 OA
ATOM     27  N   UNL     1       4.798   1.151   0.270  0.00  0.00    -0.325 N 
ATOM     28  H   UNL     1       5.616   1.652   0.411  0.00  0.00    +0.145 HD
ATOM     29  H   UNL     1       4.817   0.181   0.265  0.00  0.00    +0.145 HD
ENDBRANCH   1  25
TORSDOF 6
