REMARK  Name = ZINC63110618
REMARK  6 active torsions:
REMARK  status: ('A' for Active; 'I' for Inactive)
REMARK    1  A    between atoms: C_7  and  C_10
REMARK    2  A    between atoms: C_10  and  C_11
REMARK    3  A    between atoms: N_13  and  C_14
REMARK    4  A    between atoms: C_14  and  C_15
REMARK    5  A    between atoms: C_15  and  C_17
REMARK    6  A    between atoms: C_15  and  C_22
REMARK                            x       y       z     vdW  Elec       q    Type
REMARK                         _______ _______ _______ _____ _____    ______ ____
ROOT
ATOM      1  C   UNL     1      -0.577  -5.141  -3.061  0.00  0.00    +0.117 C 
ENDROOT
BRANCH   1   4
ATOM      2  C   UNL     1       0.460  -3.646  -1.440  0.00  0.00    +0.217 C 
ATOM      3  O   UNL     1       1.006  -3.075  -2.360  0.00  0.00    -0.275 OA
ATOM      4  N   UNL     1      -0.353  -4.693  -1.684  0.00  0.00    -0.314 N 
ATOM      5  H   UNL     1      -0.790  -5.150  -0.948  0.00  0.00    +0.149 HD
BRANCH   2   6
ATOM      6  C   UNL     1       0.691  -3.186  -0.024  0.00  0.00    +0.129 C 
BRANCH   6  13
ATOM      7  C   UNL     1      -0.016   1.348   0.009  0.00  0.00    +0.001 A 
ATOM      8  C   UNL     1       1.166   2.101   0.002  0.00  0.00    +0.002 A 
ATOM      9  C   UNL     1       2.391   1.535  -0.013  0.00  0.00    +0.026 A 
ATOM     10  C   UNL     1       2.529   0.120  -0.022  0.00  0.00    +0.043 A 
ATOM     11  N   UNL     1       3.587  -0.654  -0.037  0.00  0.00    -0.380 N 
ATOM     12  C   UNL     1       3.143  -2.053  -0.041  0.00  0.00    +0.145 C 
ATOM     13  C   UNL     1       1.631  -2.008  -0.025  0.00  0.00    -0.033 C 
ATOM     14  C   UNL     1       1.295  -0.698  -0.014  0.00  0.00    -0.001 A 
ATOM     15  C   UNL     1       0.002  -0.004   0.002  0.00  0.00    +0.010 A 
ATOM     16  H   UNL     1       4.509  -0.353  -0.045  0.00  0.00    +0.160 HD
ENDBRANCH   6  13
ENDBRANCH   2   6
ENDBRANCH   1   4
BRANCH   1  17
ATOM     17  C   UNL     1      -1.532  -6.336  -3.059  0.00  0.00    +0.071 C 
BRANCH  17  18
ATOM     18  C   UNL     1      -1.667  -6.874  -4.461  0.00  0.00    -0.032 C 
ATOM     19  C   UNL     1      -1.364  -8.122  -4.886  0.00  0.00    -0.000 A 
ATOM     20  C   UNL     1      -0.838  -9.306  -4.197  0.00  0.00    +0.010 A 
ATOM     21  C   UNL     1      -0.632 -10.440  -4.905  0.00  0.00    +0.001 A 
ATOM     22  C   UNL     1      -0.907 -10.511  -6.277  0.00  0.00    +0.002 A 
ATOM     23  C   UNL     1      -1.393  -9.465  -6.979  0.00  0.00    +0.026 A 
ATOM     24  C   UNL     1      -1.647  -8.223  -6.335  0.00  0.00    +0.043 A 
ATOM     25  N   UNL     1      -2.108  -7.083  -6.789  0.00  0.00    -0.380 N 
ATOM     26  C   UNL     1      -2.174  -6.129  -5.676  0.00  0.00    +0.145 C 
ATOM     27  H   UNL     1      -2.365  -6.901  -7.706  0.00  0.00    +0.160 HD
ENDBRANCH  17  18
BRANCH  17  28
ATOM     28  C   UNL     1      -2.884  -5.898  -2.558  0.00  0.00    -0.002 A 
ATOM     29  C   UNL     1      -3.577  -6.336  -1.478  0.00  0.00    +0.012 A 
ATOM     30  C   UNL     1      -4.815  -5.783  -1.206  0.00  0.00    +0.008 A 
ATOM     31  C   UNL     1      -5.298  -4.819  -2.027  0.00  0.00    +0.045 A 
ATOM     32  S   UNL     1      -3.985  -4.661  -3.226  0.00  0.00    -0.101 S 
ENDBRANCH  17  28
ENDBRANCH   1  17
TORSDOF 6
