REMARK  Name = ZINC67119793
REMARK  2 active torsions:
REMARK  status: ('A' for Active; 'I' for Inactive)
REMARK    1  A    between atoms: N_7  and  C_8
REMARK    2  A    between atoms: C_8  and  C_9
REMARK                            x       y       z     vdW  Elec       q    Type
REMARK                         _______ _______ _______ _____ _____    ______ ____
ROOT
ATOM      1  C   UNL     1      -0.016   1.319   0.009  0.00  0.00    +0.131 A 
ATOM      2  C   UNL     1       1.185   2.011   0.002  0.00  0.00    +0.054 A 
ATOM      3  C   UNL     1       2.368   1.287  -0.014  0.00  0.00    +0.131 A 
ATOM      4  N   UNL     1       2.315  -0.035  -0.020  0.00  0.00    -0.222 NA
ATOM      5  C   UNL     1       1.150  -0.666  -0.013  0.00  0.00    +0.215 A 
ATOM      6  N   UNL     1       0.002  -0.004   0.002  0.00  0.00    -0.222 NA
ATOM      7  N   UNL     1       1.131  -2.050  -0.020  0.00  0.00    -0.313 N 
ATOM      8 BR   UNL     1       1.211   3.902   0.011  0.00  0.00    -0.047 Br
ATOM      9  H   UNL     1       1.964  -2.546  -0.030  0.00  0.00    +0.149 HD
ENDROOT
BRANCH   7  10
ATOM     10  C   UNL     1      -0.147  -2.766  -0.011  0.00  0.00    +0.109 C 
BRANCH  10  11
ATOM     11  C   UNL     1       0.112  -4.274  -0.022  0.00  0.00    +0.029 C 
ATOM     12  C   UNL     1       0.759  -4.680  -1.356  0.00  0.00    +0.029 C 
ATOM     13  C   UNL     1       0.732  -6.220  -1.509  0.00  0.00    +0.166 C 
ATOM     14  S   UNL     1      -0.748  -6.696  -0.525  0.00  0.00    -0.031 S 
ATOM     15  O   UNL     1      -0.336  -7.511   0.564  0.00  0.00    -0.174 OA
ATOM     16  O   UNL     1      -1.757  -7.167  -1.407  0.00  0.00    -0.174 OA
ATOM     17  C   UNL     1      -1.235  -5.039   0.115  0.00  0.00    +0.171 C 
ENDBRANCH  10  11
ENDBRANCH   7  10
TORSDOF 2
