REMARK  Name = ZINC39431376
REMARK  6 active torsions:
REMARK  status: ('A' for Active; 'I' for Inactive)
REMARK    1  A    between atoms: C_1  and  C_2
REMARK    2  A    between atoms: C_5  and  C_23
REMARK    3  A    between atoms: C_6  and  C_8
REMARK    4  A    between atoms: C_10  and  C_21
REMARK    5  A    between atoms: C_11  and  N_20
REMARK    6  A    between atoms: C_16  and  C_19
REMARK                            x       y       z     vdW  Elec       q    Type
REMARK                         _______ _______ _______ _____ _____    ______ ____
ROOT
ATOM      1  C   UNL     1       0.054  -2.845   2.489  0.00  0.00    +0.098 C 
ATOM      2  C   UNL     1      -1.156  -2.475   3.328  0.00  0.00    +0.097 C 
ATOM      3  C   UNL     1      -1.034  -2.077   4.612  0.00  0.00    +0.195 C 
ATOM      4  O   UNL     1       0.112  -1.930   5.302  0.00  0.00    -0.448 OA
ATOM      5  C   UNL     1       1.260  -2.637   4.828  0.00  0.00    +0.343 C 
ATOM      6  C   UNL     1       1.251  -2.448   3.308  0.00  0.00    +0.030 C 
ATOM      7  C   UNL     1       2.411  -1.909   3.025  0.00  0.00    +0.066 C 
ATOM      8  N   UNL     1       3.099  -1.645   4.165  0.00  0.00    -0.155 NA
ATOM      9  N   UNL     1       2.518  -1.995   5.219  0.00  0.00    -0.138 NA
ATOM     10  C   UNL     1       2.911  -1.623   1.632  0.00  0.00    +0.067 C 
ENDROOT
BRANCH   1  16
ATOM     11  C   UNL     1      -0.018   1.503   0.010  0.00  0.00    +0.044 C 
ATOM     12  C   UNL     1       0.002  -0.004   0.002  0.00  0.00    -0.050 A 
ATOM     13  C   UNL     1       0.006  -0.689  -1.199  0.00  0.00    +0.003 A 
ATOM     14  C   UNL     1       0.025  -2.071  -1.207  0.00  0.00    +0.004 A 
ATOM     15  C   UNL     1       0.040  -2.768  -0.013  0.00  0.00    -0.046 A 
ATOM     16  C   UNL     1       0.037  -2.084   1.188  0.00  0.00    -0.032 A 
ATOM     17  C   UNL     1       0.023  -0.702   1.195  0.00  0.00    +0.008 A 
ATOM     18  C   UNL     1       0.059  -4.275  -0.021  0.00  0.00    +0.044 C 
ENDBRANCH   1  16
BRANCH   3  19
ATOM     19  N   UNL     1      -2.197  -1.794   5.282  0.00  0.00    -0.329 N 
ATOM     20  H   UNL     1      -3.051  -1.884   4.830  0.00  0.00    +0.145 HD
ATOM     21  H   UNL     1      -2.165  -1.504   6.207  0.00  0.00    +0.145 HD
ENDBRANCH   3  19
BRANCH   2  22
ATOM     22  C   UNL     1      -2.460  -2.551   2.742  0.00  0.00    +0.101 C 
ATOM     23  N   UNL     1      -3.495  -2.611   2.278  0.00  0.00    -0.191 NA
ENDBRANCH   2  22
TORSDOF 3
