REMARK  Name = ZINC39681963
REMARK  7 active torsions:
REMARK  status: ('A' for Active; 'I' for Inactive)
REMARK    1  A    between atoms: C_1  and  C_2
REMARK    2  A    between atoms: C_2  and  C_3
REMARK    3  A    between atoms: C_3  and  C_5
REMARK    4  A    between atoms: C_3  and  C_6
REMARK    5  A    between atoms: C_6  and  C_7
REMARK    6  A    between atoms: C_11  and  C_20
REMARK    7  A    between atoms: N_22  and  C_23
REMARK                            x       y       z     vdW  Elec       q    Type
REMARK                         _______ _______ _______ _____ _____    ______ ____
ROOT
ATOM      1  C   UNL     1      -2.482  -2.623   0.110  0.00  0.00    +0.216 C 
ATOM      2  O   UNL     1      -3.334  -1.762   0.058  0.00  0.00    -0.276 OA
ATOM      3  N   UNL     1      -2.836  -3.912   0.282  0.00  0.00    -0.300 N 
ATOM      4  C   UNL     1      -1.946  -5.093   0.377  0.00  0.00    +0.121 C 
ATOM      5  C   UNL     1      -2.586  -5.977   1.470  0.00  0.00    +0.100 C 
ATOM      6  C   UNL     1      -4.067  -5.564   1.492  0.00  0.00    -0.004 C 
ATOM      7  C   UNL     1      -4.203  -4.467   0.425  0.00  0.00    +0.115 C 
ATOM      8  C   UNL     1      -4.954  -6.755   1.142  0.00  0.00    -0.010 C 
ATOM      9  C   UNL     1      -6.423  -6.334   1.227  0.00  0.00    -0.082 C 
ATOM     10  N   UNL     1      -6.721  -5.859   2.584  0.00  0.00    +0.379 N 
ATOM     11  C   UNL     1      -5.931  -4.658   2.878  0.00  0.00    -0.082 C 
ATOM     12  C   UNL     1      -4.440  -5.008   2.863  0.00  0.00    -0.010 C 
ATOM     13  H   UNL     1      -7.703  -5.640   2.655  0.00  0.00    -0.086 HD
ATOM     14  H   UNL     1      -6.491  -6.582   3.250  0.00  0.00    -0.086 HD
ENDROOT
BRANCH   5  15
ATOM     15  C   UNL     1      -1.944  -5.707   2.806  0.00  0.00    +0.218 C 
ATOM     16  O   UNL     1      -1.512  -4.602   3.059  0.00  0.00    -0.275 OA
ATOM     17  N   UNL     1      -1.848  -6.692   3.720  0.00  0.00    -0.314 N 
ATOM     18  H   UNL     1      -2.193  -7.576   3.518  0.00  0.00    +0.149 HD
BRANCH  17  19
ATOM     19  C   UNL     1      -1.224  -6.429   5.019  0.00  0.00    +0.059 C 
ATOM     20  C   UNL     1      -2.264  -5.848   5.980  0.00  0.00    -0.056 C 
ATOM     21  N   UNL     1      -2.413  -6.722   7.146  0.00  0.00    +0.381 N 
ATOM     22  C   UNL     1      -2.884  -8.048   6.739  0.00  0.00    -0.078 C 
ATOM     23  C   UNL     1      -1.865  -8.703   5.803  0.00  0.00    -0.014 C 
ATOM     24  C   UNL     1      -0.683  -7.740   5.605  0.00  0.00    +0.004 C 
ATOM     25  C   UNL     1      -0.069  -7.440   6.979  0.00  0.00    -0.014 C 
ATOM     26  C   UNL     1      -1.149  -6.826   7.878  0.00  0.00    -0.078 C 
ATOM     27  H   UNL     1      -3.105  -6.320   7.760  0.00  0.00    -0.082 HD
ENDBRANCH  17  19
ENDBRANCH   5  15
BRANCH   1  28
ATOM     28  C   UNL     1      -1.027  -2.252  -0.017  0.00  0.00    +0.099 C 
BRANCH  28  29
ATOM     29  C   UNL     1      -0.901  -0.738  -0.202  0.00  0.00    -0.006 C 
ATOM     30  C   UNL     1      -1.540  -0.332  -1.531  0.00  0.00    +0.008 C 
BRANCH  29  32
ATOM     31  C   UNL     1       0.702   1.178  -0.265  0.00  0.00    +0.004 C 
ATOM     32  C   UNL     1       0.578  -0.346  -0.206  0.00  0.00    +0.000 C 
ENDBRANCH  29  32
ENDBRANCH  28  29
ENDBRANCH   1  28
TORSDOF 5
