REMARK  Name = ZINC40509637
REMARK  8 active torsions:
REMARK  status: ('A' for Active; 'I' for Inactive)
REMARK    1  A    between atoms: C_1  and  C_2
REMARK    2  A    between atoms: C_2  and  C_3
REMARK    3  A    between atoms: C_9  and  O_11
REMARK    4  A    between atoms: O_11  and  C_12
REMARK    5  A    between atoms: C_13  and  C_20
REMARK    6  A    between atoms: C_14  and  C_19
REMARK    7  A    between atoms: C_16  and  C_18
REMARK    8  A    between atoms: C_20  and  N_21
REMARK                            x       y       z     vdW  Elec       q    Type
REMARK                         _______ _______ _______ _____ _____    ______ ____
ROOT
ATOM      1  C   UNL     1       0.760  -3.776  -0.316  0.00  0.00    +0.217 A 
ATOM      2  C   UNL     1       1.305  -4.369  -1.448  0.00  0.00    -0.000 A 
ATOM      3  C   UNL     1       0.793  -5.577  -1.889  0.00  0.00    -0.042 A 
ATOM      4  C   UNL     1      -0.252  -6.151  -1.178  0.00  0.00    +0.026 A 
ATOM      5  C   UNL     1      -0.745  -5.506  -0.062  0.00  0.00    +0.042 A 
ATOM      6  N   UNL     1      -0.232  -4.357   0.337  0.00  0.00    -0.218 NA
ATOM      7  C   UNL     1      -1.879  -6.124   0.715  0.00  0.00    +0.066 C 
ATOM      8  C   UNL     1       1.355  -6.252  -3.113  0.00  0.00    +0.044 C 
ENDROOT
BRANCH   1   9
ATOM      9  O   UNL     1       1.254  -2.593   0.126  0.00  0.00    -0.473 OA
BRANCH   9  15
ATOM     10  C   UNL     1       0.742  -0.511   1.242  0.00  0.00    +0.030 C 
ATOM     11  C   UNL     1       2.210  -0.086   1.169  0.00  0.00    +0.007 C 
ATOM     12  C   UNL     1       2.950  -0.593   2.408  0.00  0.00    +0.001 C 
ATOM     13  C   UNL     1       2.863  -2.119   2.465  0.00  0.00    +0.004 C 
ATOM     14  C   UNL     1       1.395  -2.544   2.538  0.00  0.00    +0.045 C 
ATOM     15  C   UNL     1       0.655  -2.037   1.299  0.00  0.00    +0.178 C 
BRANCH  10  17
ATOM     16  C   UNL     1      -0.019   1.526   0.010  0.00  0.00    +0.004 C 
ATOM     17  C   UNL     1       0.002  -0.004   0.002  0.00  0.00    +0.004 C 
ENDBRANCH  10  17
ENDBRANCH   9  15
ENDBRANCH   1   9
BRANCH   2  18
ATOM     18  C   UNL     1       2.439  -3.706  -2.187  0.00  0.00    -0.045 C 
BRANCH  18  19
ATOM     19  N   UNL     1       3.720  -4.167  -1.634  0.00  0.00    +0.381 N 
ATOM     20  H   UNL     1       4.479  -3.723  -2.128  0.00  0.00    -0.090 HD
ATOM     21  H   UNL     1       3.769  -3.926  -0.655  0.00  0.00    -0.090 HD
ATOM     22  H   UNL     1       3.791  -5.168  -1.738  0.00  0.00    -0.090 HD
ENDBRANCH  18  19
ENDBRANCH   2  18
TORSDOF 5
