REMARK  Name = ZINC42854206
REMARK  10 active torsions:
REMARK  status: ('A' for Active; 'I' for Inactive)
REMARK    1  A    between atoms: C_1  and  C_2
REMARK    2  A    between atoms: C_4  and  O_5
REMARK    3  A    between atoms: C_14  and  C_16
REMARK    4  A    between atoms: C_16  and  C_18
REMARK    5  A    between atoms: C_16  and  N_23
REMARK    6  A    between atoms: C_18  and  C_19
REMARK    7  A    between atoms: C_19  and  C_20
REMARK    8  A    between atoms: C_20  and  C_21
REMARK    9  A    between atoms: C_21  and  N_22
REMARK   10  A    between atoms: C_24  and  C_26
REMARK                            x       y       z     vdW  Elec       q    Type
REMARK                         _______ _______ _______ _____ _____    ______ ____
ROOT
ATOM      1  C   UNL     1       0.308   1.444  -0.040  0.00  0.00    +0.045 C 
ATOM      2  C   UNL     1      -0.134   0.004   0.011  0.00  0.00    -0.033 A 
ATOM      3  C   UNL     1      -0.600  -0.632  -1.122  0.00  0.00    +0.091 A 
ATOM      4  C   UNL     1      -1.002  -1.958  -1.056  0.00  0.00    +0.285 A 
ATOM      5  O   UNL     1      -0.949  -2.646   0.091  0.00  0.00    -0.425 OA
ATOM      6  C   UNL     1      -0.501  -2.073   1.227  0.00  0.00    +0.141 A 
ATOM      7  C   UNL     1      -0.073  -0.726   1.217  0.00  0.00    +0.021 A 
ATOM      8  C   UNL     1       0.399  -0.128   2.398  0.00  0.00    +0.013 A 
ATOM      9  C   UNL     1       0.449  -0.847   3.550  0.00  0.00    +0.024 A 
ATOM     10  C   UNL     1       0.031  -2.190   3.568  0.00  0.00    +0.037 A 
ATOM     11  C   UNL     1      -0.451  -2.795   2.406  0.00  0.00    +0.070 A 
ATOM     12  N   UNL     1       0.086  -2.900   4.729  0.00  0.00    -0.284 N 
ATOM     13  C   UNL     1       0.004  -4.216   4.701  0.00  0.00    +0.238 C 
ATOM     14  O   UNL     1       0.002  -4.804   3.633  0.00  0.00    -0.273 OA
ATOM     15  H   UNL     1       0.185  -2.438   5.576  0.00  0.00    +0.155 HD
ENDROOT
BRANCH   4  16
ATOM     16  O   UNL     1      -1.455  -2.567  -2.168  0.00  0.00    -0.480 OA
ATOM     17  H   UNL     1      -1.714  -3.489  -2.035  0.00  0.00    +0.295 HD
ENDBRANCH   4  16
BRANCH  13  18
ATOM     18  C   UNL     1      -0.086  -4.993   5.989  0.00  0.00    +0.159 C 
BRANCH  18  19
ATOM     19  N   UNL     1      -0.635  -6.324   5.718  0.00  0.00    -0.304 N 
ATOM     20  C   UNL     1       0.008  -7.160   4.879  0.00  0.00    +0.211 C 
ATOM     21  O   UNL     1       1.040  -6.810   4.347  0.00  0.00    -0.276 OA
ATOM     22  C   UNL     1      -0.556  -8.530   4.601  0.00  0.00    +0.109 C 
ATOM     23  H   UNL     1      -1.460  -6.604   6.144  0.00  0.00    +0.149 HD
ENDBRANCH  18  19
BRANCH  18  24
ATOM     24  C   UNL     1       1.309  -5.130   6.601  0.00  0.00    +0.032 C 
BRANCH  24  25
ATOM     25  C   UNL     1       1.202  -5.809   7.968  0.00  0.00    +0.000 C 
BRANCH  25  26
ATOM     26  C   UNL     1       2.597  -5.947   8.580  0.00  0.00    -0.019 C 
BRANCH  26  27
ATOM     27  C   UNL     1       2.490  -6.626   9.947  0.00  0.00    -0.086 C 
BRANCH  27  28
ATOM     28  N   UNL     1       3.830  -6.758  10.534  0.00  0.00    +0.378 N 
ATOM     29  H   UNL     1       4.410  -7.316   9.926  0.00  0.00    -0.090 HD
ATOM     30  H   UNL     1       4.240  -5.843  10.645  0.00  0.00    -0.090 HD
ATOM     31  H   UNL     1       3.759  -7.205  11.436  0.00  0.00    -0.090 HD
ENDBRANCH  27  28
ENDBRANCH  26  27
ENDBRANCH  25  26
ENDBRANCH  24  25
ENDBRANCH  18  24
ENDBRANCH  13  18
TORSDOF 8
