REMARK  Name = ZINC06276021
REMARK  4 active torsions:
REMARK  status: ('A' for Active; 'I' for Inactive)
REMARK    1  A    between atoms: C_1  and  C_2
REMARK    2  A    between atoms: C_5  and  S_8
REMARK    3  A    between atoms: S_8  and  N_11
REMARK    4  A    between atoms: C_20  and  C_23
REMARK                            x       y       z     vdW  Elec       q    Type
REMARK                         _______ _______ _______ _____ _____    ______ ____
ROOT
ATOM      1  N   UNL     1       1.651  -4.999  -0.034  0.00  0.00    -0.097 NA
ATOM      2  C   UNL     1       1.956  -6.266  -0.043  0.00  0.00    +0.205 C 
ATOM      3  N   UNL     1       0.988  -7.260  -0.049  0.00  0.00    -0.286 N 
ATOM      4  C   UNL     1       1.260  -8.434  -0.767  0.00  0.00    +0.038 A 
ATOM      5  C   UNL     1       0.243  -9.358  -0.972  0.00  0.00    +0.023 A 
ATOM      6  C   UNL     1       0.499 -10.523  -1.667  0.00  0.00    +0.002 A 
ATOM      7  C   UNL     1       1.768 -10.770  -2.157  0.00  0.00    +0.000 A 
ATOM      8  C   UNL     1       2.780  -9.851  -1.959  0.00  0.00    +0.007 A 
ATOM      9  C   UNL     1       2.530  -8.678  -1.268  0.00  0.00    -0.006 A 
ATOM     10  C   UNL     1       3.645  -7.678  -1.089  0.00  0.00    +0.102 C 
ATOM     11  N   UNL     1       3.272  -6.711  -0.052  0.00  0.00    -0.309 N 
ATOM     12  C   UNL     1       3.885  -6.940  -2.407  0.00  0.00    +0.033 C 
ATOM     13  H   UNL     1       0.151  -7.147   0.428  0.00  0.00    +0.155 HD
ATOM     14  H   UNL     1       3.918  -6.397   0.599  0.00  0.00    +0.149 HD
ENDROOT
BRANCH   1  15
ATOM     15  S   UNL     1       0.063  -4.530  -0.023  0.00  0.00    +0.102 S 
ATOM     16  O   UNL     1      -0.476  -4.950   1.223  0.00  0.00    -0.146 OA
ATOM     17  O   UNL     1      -0.490  -4.937  -1.267  0.00  0.00    -0.146 OA
BRANCH  15  22
ATOM     18  C   UNL     1      -0.018   1.503   0.010  0.00  0.00    +0.044 C 
ATOM     19  C   UNL     1       0.002  -0.004   0.002  0.00  0.00    -0.050 A 
ATOM     20  C   UNL     1       0.006  -0.689  -1.199  0.00  0.00    +0.005 A 
ATOM     21  C   UNL     1       0.025  -2.071  -1.206  0.00  0.00    +0.029 A 
ATOM     22  C   UNL     1       0.040  -2.768  -0.013  0.00  0.00    +0.113 A 
ATOM     23  C   UNL     1       0.037  -2.084   1.188  0.00  0.00    +0.029 A 
ATOM     24  C   UNL     1       0.023  -0.702   1.195  0.00  0.00    +0.005 A 
ENDBRANCH  15  22
ENDBRANCH   1  15
TORSDOF 2
