REMARK  Name = ZINC63425024
REMARK  7 active torsions:
REMARK  status: ('A' for Active; 'I' for Inactive)
REMARK    1  A    between atoms: C_1  and  O_2
REMARK    2  A    between atoms: O_2  and  C_3
REMARK    3  A    between atoms: C_3  and  C_5
REMARK    4  A    between atoms: C_5  and  C_7
REMARK    5  A    between atoms: C_5  and  N_17
REMARK    6  A    between atoms: C_7  and  C_8
REMARK    7  A    between atoms: N_17  and  C_18
REMARK                            x       y       z     vdW  Elec       q    Type
REMARK                         _______ _______ _______ _____ _____    ______ ____
ROOT
ATOM      1  C   UNL     1      -1.250  -2.113   0.002  0.00  0.00    +0.184 C 
ENDROOT
BRANCH   1   2
ATOM      2  C   UNL     1      -1.206  -0.606   0.014  0.00  0.00    +0.328 C 
ATOM      3  O   UNL     1      -2.234   0.028   0.030  0.00  0.00    -0.249 OA
BRANCH   2   5
ATOM      4  C   UNL     1      -0.058   1.459   0.018  0.00  0.00    +0.280 C 
ATOM      5  O   UNL     1      -0.025   0.031   0.006  0.00  0.00    -0.467 OA
ENDBRANCH   2   5
ENDBRANCH   1   2
BRANCH   1   6
ATOM      6  N   UNL     1      -2.645  -2.560   0.013  0.00  0.00    -0.336 N 
ATOM      7  H   UNL     1      -3.093  -2.772  -0.821  0.00  0.00    +0.146 HD
BRANCH   6   8
ATOM      8  C   UNL     1      -3.303  -2.679   1.177  0.00  0.00    +0.086 C 
ATOM      9  C   UNL     1      -4.660  -2.990   1.182  0.00  0.00    +0.118 C 
ATOM     10  C   UNL     1      -5.379  -3.319  -0.057  0.00  0.00    +0.288 C 
ATOM     11  O   UNL     1      -4.749  -3.331  -1.238  0.00  0.00    -0.265 OA
ATOM     12  N   UNL     1      -6.675  -3.606   0.031  0.00  0.00    -0.154 NA
ATOM     13  C   UNL     1      -7.310  -3.598   1.190  0.00  0.00    +0.364 C 
ATOM     14  O   UNL     1      -8.628  -3.901   1.195  0.00  0.00    -0.245 OA
ATOM     15  N   UNL     1      -6.735  -3.313   2.345  0.00  0.00    -0.120 NA
ATOM     16  C   UNL     1      -5.442  -3.011   2.426  0.00  0.00    +0.278 C 
ATOM     17  O   UNL     1      -4.871  -2.730   3.604  0.00  0.00    -0.268 OA
ENDBRANCH   6   8
ENDBRANCH   1   6
BRANCH   1  18
ATOM     18  C   UNL     1      -0.558  -2.633  -1.259  0.00  0.00    +0.066 C 
BRANCH  18  19
ATOM     19  C   UNL     1      -0.493  -4.138  -1.211  0.00  0.00    -0.039 C 
ATOM     20  C   UNL     1      -1.363  -5.008  -1.773  0.00  0.00    -0.001 A 
ATOM     21  C   UNL     1      -2.584  -4.820  -2.566  0.00  0.00    +0.010 A 
ATOM     22  C   UNL     1      -3.259  -5.909  -2.999  0.00  0.00    +0.001 A 
ATOM     23  C   UNL     1      -2.822  -7.209  -2.711  0.00  0.00    +0.002 A 
ATOM     24  C   UNL     1      -1.710  -7.462  -1.989  0.00  0.00    +0.026 A 
ATOM     25  C   UNL     1      -0.923  -6.391  -1.483  0.00  0.00    +0.043 A 
ATOM     26  N   UNL     1       0.177  -6.377  -0.770  0.00  0.00    -0.380 N 
ATOM     27  C   UNL     1       0.562  -4.982  -0.531  0.00  0.00    +0.144 C 
ATOM     28  H   UNL     1       0.657  -7.159  -0.455  0.00  0.00    +0.160 HD
ENDBRANCH  18  19
ENDBRANCH   1  18
TORSDOF 6
