REMARK  Name = ZINC06490410
REMARK  6 active torsions:
REMARK  status: ('A' for Active; 'I' for Inactive)
REMARK    1  A    between atoms: C_1  and  N_2
REMARK    2  A    between atoms: C_6  and  C_7
REMARK    3  A    between atoms: C_9  and  O_15
REMARK    4  A    between atoms: C_12  and  O_13
REMARK    5  A    between atoms: O_13  and  C_14
REMARK    6  A    between atoms: O_15  and  C_16
REMARK                            x       y       z     vdW  Elec       q    Type
REMARK                         _______ _______ _______ _____ _____    ______ ____
ROOT
ATOM      1  C   UNL     1       1.376  -0.604  -3.159  0.00  0.00    +0.140 C 
ATOM      2  N   UNL     1       1.022   0.386  -2.139  0.00  0.00    -0.251 N 
ATOM      3  C   UNL     1      -0.230   0.639  -1.706  0.00  0.00    +0.266 C 
ATOM      4  O   UNL     1      -1.256   0.101  -2.081  0.00  0.00    -0.268 OA
ATOM      5  C   UNL     1      -0.107   1.695  -0.690  0.00  0.00    +0.096 C 
ATOM      6  C   UNL     1      -1.107   2.276   0.020  0.00  0.00    +0.040 C 
ATOM      7  N   UNL     1       1.263   1.976  -0.617  0.00  0.00    -0.292 N 
ATOM      8  C   UNL     1       1.894   1.175  -1.494  0.00  0.00    +0.144 C 
ATOM      9  S   UNL     1       3.586   1.165  -1.753  0.00  0.00    -0.018 S 
ATOM     10  H   UNL     1       1.682   2.631  -0.037  0.00  0.00    +0.154 HD
ENDROOT
BRANCH   6  11
ATOM     11  C   UNL     1      -2.474   1.749  -0.071  0.00  0.00    +0.022 A 
ATOM     12  C   UNL     1      -2.697   0.367  -0.077  0.00  0.00    +0.057 A 
ATOM     13  C   UNL     1      -3.987  -0.121  -0.156  0.00  0.00    +0.121 A 
ATOM     14  C   UNL     1      -5.062   0.756  -0.242  0.00  0.00    +0.049 A 
ATOM     15  C   UNL     1      -4.852   2.122  -0.242  0.00  0.00    +0.050 A 
ATOM     16  C   UNL     1      -3.566   2.628  -0.157  0.00  0.00    +0.127 A 
BRANCH  16  17
ATOM     17  O   UNL     1      -3.361   3.970  -0.158  0.00  0.00    -0.495 OA
ATOM     18  C   UNL     1      -4.519   4.803  -0.249  0.00  0.00    +0.277 C 
ENDBRANCH  16  17
BRANCH  13  19
ATOM     19  O   UNL     1      -4.206  -1.463  -0.157  0.00  0.00    -0.495 OA
ATOM     20  C   UNL     1      -5.564  -1.899  -0.247  0.00  0.00    +0.277 C 
ENDBRANCH  13  19
ENDBRANCH   6  11
TORSDOF 3
