REMARK  Name = ZINC40348313
REMARK  7 active torsions:
REMARK  status: ('A' for Active; 'I' for Inactive)
REMARK    1  A    between atoms: C_1  and  C_2
REMARK    2  A    between atoms: C_5  and  C_7
REMARK    3  A    between atoms: C_7  and  C_9
REMARK    4  A    between atoms: C_7  and  N_10
REMARK    5  A    between atoms: N_10  and  S_11
REMARK    6  A    between atoms: S_11  and  C_14
REMARK    7  A    between atoms: C_17  and  N_21
REMARK                            x       y       z     vdW  Elec       q    Type
REMARK                         _______ _______ _______ _____ _____    ______ ____
ROOT
ATOM      1  S   UNL     1       3.429  -4.170   1.825  0.00  0.00    +0.060 S 
ATOM      2  O   UNL     1       4.424  -3.677   2.712  0.00  0.00    -0.153 OA
ATOM      3  O   UNL     1       2.238  -4.792   2.288  0.00  0.00    -0.153 OA
ENDROOT
BRANCH   1   4
ATOM      4  C   UNL     1       4.227  -5.332   0.768  0.00  0.00    +0.119 A 
ATOM      5  C   UNL     1       3.674  -6.586   0.579  0.00  0.00    +0.031 A 
ATOM      6  C   UNL     1       4.297  -7.499  -0.248  0.00  0.00    +0.025 A 
ATOM      7  C   UNL     1       5.480  -7.158  -0.892  0.00  0.00    +0.026 A 
ATOM      8  C   UNL     1       6.033  -5.898  -0.701  0.00  0.00    +0.040 A 
ATOM      9  C   UNL     1       5.402  -4.987   0.125  0.00  0.00    +0.046 A 
ATOM     10 BR   UNL     1       6.149  -3.268   0.380  0.00  0.00    -0.048 Br
BRANCH   7  11
ATOM     11  N   UNL     1       6.113  -8.080  -1.729  0.00  0.00    -0.358 N 
ATOM     12  H   UNL     1       5.726  -8.960  -1.861  0.00  0.00    +0.142 HD
ATOM     13  H   UNL     1       6.939  -7.840  -2.177  0.00  0.00    +0.142 HD
ENDBRANCH   7  11
ENDBRANCH   1   4
BRANCH   1  14
ATOM     14  N   UNL     1       2.960  -2.892   0.882  0.00  0.00    -0.180 NA
ATOM     15  H   UNL     1       3.345  -2.014   1.029  0.00  0.00    +0.149 HD
BRANCH  14  16
ATOM     16  C   UNL     1       1.964  -3.088  -0.174  0.00  0.00    +0.139 C 
ATOM     17  C   UNL     1       2.570  -2.701  -1.524  0.00  0.00    +0.034 C 
BRANCH  16  22
ATOM     18  C   UNL     1      -0.858   0.864   1.192  0.00  0.00    +0.086 C 
ATOM     19  C   UNL     1      -0.466  -0.505   0.697  0.00  0.00    +0.102 A 
ATOM     20  C   UNL     1      -1.314  -1.473   0.307  0.00  0.00    +0.045 A 
ATOM     21  C   UNL     1      -0.523  -2.581  -0.076  0.00  0.00    +0.046 A 
ATOM     22  C   UNL     1       0.761  -2.223   0.103  0.00  0.00    +0.123 A 
ATOM     23  O   UNL     1       0.790  -0.963   0.566  0.00  0.00    -0.463 OA
ENDBRANCH  16  22
ENDBRANCH  14  16
ENDBRANCH   1  14
TORSDOF 5
