REMARK  Name = ZINC36219494
REMARK  15 active torsions:
REMARK  status: ('A' for Active; 'I' for Inactive)
REMARK    1  A    between atoms: C_1  and  C_2
REMARK    2  A    between atoms: C_2  and  C_3
REMARK    3  A    between atoms: C_2  and  C_4
REMARK    4  A    between atoms: C_4  and  C_6
REMARK    5  A    between atoms: C_4  and  S_12
REMARK    6  A    between atoms: S_12  and  C_13
REMARK    7  A    between atoms: N_23  and  C_24
REMARK    8  A    between atoms: C_24  and  C_25
REMARK    9  A    between atoms: C_25  and  N_26
REMARK   10  A    between atoms: N_26  and  C_27
REMARK   11  A    between atoms: N_26  and  C_30
REMARK   12  A    between atoms: C_27  and  C_28
REMARK   13  A    between atoms: C_27  and  C_29
REMARK   14  A    between atoms: C_30  and  C_31
REMARK   15  A    between atoms: C_30  and  C_32
REMARK                            x       y       z     vdW  Elec       q    Type
REMARK                         _______ _______ _______ _____ _____    ______ ____
ROOT
ATOM      1  C   UNL     1      -0.996  -3.813   2.720  0.00  0.00    +0.173 A 
ATOM      2  N   UNL     1      -0.828  -3.123   3.821  0.00  0.00    -0.223 NA
ATOM      3  C   UNL     1      -0.363  -3.694   4.950  0.00  0.00    +0.079 A 
ATOM      4  C   UNL     1      -0.185  -2.957   6.124  0.00  0.00    +0.028 A 
ATOM      5  C   UNL     1       0.289  -3.576   7.246  0.00  0.00    +0.002 A 
ATOM      6  C   UNL     1       0.598  -4.930   7.238  0.00  0.00    +0.001 A 
ATOM      7  C   UNL     1       0.435  -5.678   6.105  0.00  0.00    +0.015 A 
ATOM      8  C   UNL     1      -0.048  -5.072   4.946  0.00  0.00    +0.065 A 
ATOM      9  C   UNL     1      -0.244  -5.825   3.700  0.00  0.00    +0.262 A 
ATOM     10  O   UNL     1       0.009  -7.014   3.634  0.00  0.00    -0.267 OA
ATOM     11  N   UNL     1      -0.722  -5.148   2.629  0.00  0.00    -0.289 N 
ENDROOT
BRANCH   1  12
ATOM     12  S   UNL     1      -1.609  -2.983   1.292  0.00  0.00    -0.075 S 
BRANCH  12  13
ATOM     13  C   UNL     1      -1.985  -1.310   1.885  0.00  0.00    +0.143 C 
BRANCH  13  14
ATOM     14  C   UNL     1      -3.172  -1.361   2.812  0.00  0.00    +0.234 C 
ATOM     15  O   UNL     1      -3.928  -2.309   2.778  0.00  0.00    -0.274 OA
ATOM     16  N   UNL     1      -3.394  -0.353   3.679  0.00  0.00    -0.239 N 
ATOM     17  C   UNL     1      -4.455  -0.399   4.508  0.00  0.00    +0.303 C 
ATOM     18  O   UNL     1      -5.213  -1.349   4.474  0.00  0.00    -0.253 OA
ATOM     19  N   UNL     1      -4.677   0.610   5.374  0.00  0.00    -0.313 N 
ATOM     20  H   UNL     1      -2.789   0.405   3.706  0.00  0.00    +0.159 HD
ATOM     21  H   UNL     1      -4.073   1.368   5.401  0.00  0.00    +0.146 HD
ATOM     22  H   UNL     1      -5.441   0.577   5.971  0.00  0.00    +0.146 HD
ENDBRANCH  13  14
BRANCH  13  24
ATOM     23  C   UNL     1      -2.672   0.991   1.196  0.00  0.00    +0.009 C 
ATOM     24  C   UNL     1      -2.307  -0.407   0.693  0.00  0.00    +0.005 C 
ATOM     25  C   UNL     1      -1.085  -0.317  -0.224  0.00  0.00    +0.009 C 
ENDBRANCH  13  24
ENDBRANCH  12  13
ENDBRANCH   1  12
BRANCH  11  26
ATOM     26  C   UNL     1      -0.942  -5.852   1.363  0.00  0.00    +0.109 C 
BRANCH  26  27
ATOM     27  C   UNL     1       0.332  -5.792   0.518  0.00  0.00    -0.056 C 
BRANCH  27  28
ATOM     28  N   UNL     1       0.092  -6.441  -0.777  0.00  0.00    +0.384 N 
ATOM     29  H   UNL     1      -0.261  -7.374  -0.626  0.00  0.00    -0.081 HD
BRANCH  28  30
ATOM     30  C   UNL     1      -0.894  -5.663  -1.539  0.00  0.00    -0.074 C 
ATOM     31  C   UNL     1      -0.185  -4.523  -2.274  0.00  0.00    -0.014 C 
ATOM     32  C   UNL     1      -1.587  -6.573  -2.556  0.00  0.00    -0.014 C 
ENDBRANCH  28  30
BRANCH  28  33
ATOM     33  C   UNL     1       1.351  -6.510  -1.532  0.00  0.00    -0.074 C 
ATOM     34  C   UNL     1       2.427  -7.170  -0.668  0.00  0.00    -0.014 C 
ATOM     35  C   UNL     1       1.139  -7.336  -2.802  0.00  0.00    -0.014 C 
ENDBRANCH  28  33
ENDBRANCH  27  28
ENDBRANCH  26  27
ENDBRANCH  11  26
TORSDOF 9
