REMARK  Name = ZINC65396112
REMARK  8 active torsions:
REMARK  status: ('A' for Active; 'I' for Inactive)
REMARK    1  A    between atoms: C_1  and  C_2
REMARK    2  A    between atoms: C_2  and  C_25
REMARK    3  A    between atoms: C_3  and  C_4
REMARK    4  A    between atoms: C_4  and  O_5
REMARK    5  A    between atoms: O_5  and  C_6
REMARK    6  A    between atoms: C_9  and  C_14
REMARK    7  A    between atoms: C_11  and  O_12
REMARK    8  A    between atoms: O_12  and  C_13
REMARK                            x       y       z     vdW  Elec       q    Type
REMARK                         _______ _______ _______ _____ _____    ______ ____
ROOT
ATOM      1  C   UNL     1       1.389   0.067   4.477  0.00  0.00    +0.162 A 
ATOM      2  C   UNL     1       2.213   1.177   4.385  0.00  0.00    +0.049 A 
ATOM      3  C   UNL     1       2.729   1.751   5.532  0.00  0.00    +0.006 A 
ATOM      4  C   UNL     1       2.426   1.220   6.772  0.00  0.00    -0.052 A 
ATOM      5  C   UNL     1       1.605   0.112   6.870  0.00  0.00    +0.051 A 
ATOM      6  C   UNL     1       1.079  -0.465   5.725  0.00  0.00    +0.162 A 
ENDROOT
BRANCH   4   7
ATOM      7  C   UNL     1       2.992   1.849   8.018  0.00  0.00    +0.011 C 
ATOM      8  C   UNL     1       4.420   1.401   8.209  0.00  0.00    +0.052 A 
ATOM      9  C   UNL     1       5.415   2.240   8.580  0.00  0.00    +0.035 A 
ATOM     10  N   UNL     1       6.554   1.504   8.650  0.00  0.00    -0.348 N 
ATOM     11  H   UNL     1       7.436   1.828   8.890  0.00  0.00    +0.166 HD
ATOM     12  C   UNL     1       6.223   0.232   8.323  0.00  0.00    +0.196 A 
ATOM     13  N   UNL     1       4.942   0.184   8.061  0.00  0.00    -0.242 NA
ATOM     14  C   UNL     1       5.202   3.707   8.849  0.00  0.00    +0.036 C 
ATOM     15  C   UNL     1       3.692   3.937   9.005  0.00  0.00    -0.075 C 
ATOM     16  N   UNL     1       2.974   3.315   7.885  0.00  0.00    +0.388 N 
ATOM     17  H   UNL     1       3.420   3.578   7.019  0.00  0.00    -0.084 HD
ATOM     18  H   UNL     1       2.017   3.638   7.876  0.00  0.00    -0.084 HD
ENDBRANCH   4   7
BRANCH   6  19
ATOM     19  O   UNL     1       0.267  -1.551   5.821  0.00  0.00    -0.491 OA
ATOM     20  C   UNL     1      -0.008  -2.042   7.134  0.00  0.00    +0.277 C 
ENDBRANCH   6  19
BRANCH   1  21
ATOM     21  O   UNL     1       0.880  -0.499   3.350  0.00  0.00    -0.484 OA
BRANCH  21  22
ATOM     22  C   UNL     1       1.240   0.100   2.104  0.00  0.00    +0.257 C 
BRANCH  22  25
ATOM     23  C   UNL     1      -0.018   1.503   0.010  0.00  0.00    +0.038 C 
ATOM     24  C   UNL     1       0.002  -0.004   0.002  0.00  0.00    -0.076 C 
ATOM     25  C   UNL     1       0.588  -0.657   0.976  0.00  0.00    +0.012 C 
ATOM     26  C   UNL     1      -0.651  -0.760  -1.126  0.00  0.00    +0.038 C 
ENDBRANCH  22  25
ENDBRANCH  21  22
ENDBRANCH   1  21
TORSDOF 5
