REMARK  Name = ZINC13423533
REMARK  8 active torsions:
REMARK  status: ('A' for Active; 'I' for Inactive)
REMARK    1  A    between atoms: C_1  and  C_2
REMARK    2  A    between atoms: C_2  and  C_3
REMARK    3  A    between atoms: C_3  and  C_5
REMARK    4  A    between atoms: C_3  and  N_12
REMARK    5  A    between atoms: C_13  and  C_15
REMARK    6  A    between atoms: C_15  and  O_16
REMARK    7  A    between atoms: O_16  and  C_17
REMARK    8  A    between atoms: C_20  and  C_24
REMARK                            x       y       z     vdW  Elec       q    Type
REMARK                         _______ _______ _______ _____ _____    ______ ____
ROOT
ATOM      1  N   UNL     1      -0.288   1.272  -2.443  0.00  0.00    -0.306 N 
ATOM      2  C   UNL     1      -0.742   1.585  -1.213  0.00  0.00    +0.251 C 
ATOM      3  O   UNL     1      -1.736   2.268  -1.088  0.00  0.00    -0.272 OA
ATOM      4  H   UNL     1       0.507   0.726  -2.543  0.00  0.00    +0.149 HD
ENDROOT
BRANCH   1   5
ATOM      5  C   UNL     1      -0.997   1.758  -3.630  0.00  0.00    +0.103 C 
BRANCH   5   6
ATOM      6  C   UNL     1      -0.041   1.828  -4.792  0.00  0.00    -0.027 A 
ATOM      7  C   UNL     1       0.900   0.831  -4.974  0.00  0.00    +0.006 A 
ATOM      8  C   UNL     1       1.775   0.893  -6.043  0.00  0.00    +0.015 A 
ATOM      9  C   UNL     1       1.715   1.957  -6.925  0.00  0.00    +0.018 A 
ATOM     10  C   UNL     1       0.777   2.956  -6.739  0.00  0.00    +0.015 A 
ATOM     11  C   UNL     1      -0.100   2.891  -5.673  0.00  0.00    +0.006 A 
ATOM     12 BR   UNL     1       2.916   2.045  -8.383  0.00  0.00    -0.050 Br
ENDBRANCH   5   6
BRANCH   5  14
ATOM     13  C   UNL     1      -3.176   0.823  -2.841  0.00  0.00    +0.006 C 
ATOM     14  C   UNL     1      -2.141   0.800  -3.968  0.00  0.00    +0.024 C 
ENDBRANCH   5  14
ENDBRANCH   1   5
BRANCH   2  15
ATOM     15  C   UNL     1      -0.013   1.086   0.008  0.00  0.00    +0.324 C 
BRANCH  15  16
ATOM     16  O   UNL     1      -0.682   1.547   1.184  0.00  0.00    -0.480 OA
BRANCH  16  17
ATOM     17  C   UNL     1      -0.149   1.183   2.378  0.00  0.00    +0.158 A 
ATOM     18  C   UNL     1      -0.564   0.006   2.993  0.00  0.00    +0.085 A 
ATOM     19  C   UNL     1      -0.023  -0.370   4.203  0.00  0.00    +0.039 A 
ATOM     20  C   UNL     1       0.937   0.439   4.818  0.00  0.00    +0.066 A 
ATOM     21  C   UNL     1       1.347   1.624   4.200  0.00  0.00    +0.039 A 
ATOM     22  C   UNL     1       0.805   1.990   2.987  0.00  0.00    +0.085 A 
ATOM     23 CL   UNL     1       1.314   3.461   2.219  0.00  0.00    -0.080 Cl
ATOM     24 CL   UNL     1      -1.761  -0.995   2.230  0.00  0.00    -0.080 Cl
BRANCH  20  25
ATOM     25  C   UNL     1       1.515   0.044   6.116  0.00  0.00    +0.387 C 
ATOM     26  O   UNL     1       2.349   0.748   6.649  0.00  0.00    -0.241 OA
ATOM     27  O   UNL     1       1.118  -1.099   6.710  0.00  0.00    -0.241 OA
ENDBRANCH  20  25
ENDBRANCH  16  17
ENDBRANCH  15  16
ENDBRANCH   2  15
TORSDOF 7
