REMARK  Name = ZINC45628716
REMARK  3 active torsions:
REMARK  status: ('A' for Active; 'I' for Inactive)
REMARK    1  A    between atoms: C_8  and  N_13
REMARK    2  A    between atoms: N_13  and  C_14
REMARK    3  A    between atoms: C_14  and  C_15
REMARK                            x       y       z     vdW  Elec       q    Type
REMARK                         _______ _______ _______ _____ _____    ______ ____
ROOT
ATOM      1  C   UNL     1      -0.017   1.378   0.010  0.00  0.00    +0.003 A 
ATOM      2  C   UNL     1       1.164   2.092   0.002  0.00  0.00    +0.023 A 
ATOM      3  C   UNL     1       2.386   1.424  -0.013  0.00  0.00    +0.036 A 
ATOM      4  C   UNL     1       2.393   0.034  -0.021  0.00  0.00    -0.018 A 
ATOM      5  C   UNL     1       1.213  -0.676  -0.014  0.00  0.00    +0.022 A 
ATOM      6  C   UNL     1       0.002  -0.004   0.002  0.00  0.00    +0.015 A 
ATOM      7 BR   UNL     1       1.247  -2.567  -0.025  0.00  0.00    -0.050 Br
ATOM      8  C   UNL     1       3.845  -0.384  -0.037  0.00  0.00    +0.050 C 
ATOM      9  C   UNL     1       4.605   0.925  -0.037  0.00  0.00    +0.208 C 
ATOM     10  O   UNL     1       5.811   1.058  -0.047  0.00  0.00    -0.277 OA
ATOM     11  N   UNL     1       3.693   1.912  -0.023  0.00  0.00    -0.286 N 
ATOM     12  H   UNL     1       3.918   2.856  -0.020  0.00  0.00    +0.155 HD
ENDROOT
BRANCH   8  13
ATOM     13  N   UNL     1       4.145  -1.157  -1.250  0.00  0.00    +0.390 N 
ATOM     14  H   UNL     1       3.510  -1.938  -1.316  0.00  0.00    -0.084 HD
ATOM     15  H   UNL     1       4.037  -0.566  -2.060  0.00  0.00    -0.084 HD
BRANCH  13  16
ATOM     16  C   UNL     1       5.526  -1.653  -1.185  0.00  0.00    -0.077 C 
BRANCH  16  17
ATOM     17  C   UNL     1       5.838  -2.457  -2.449  0.00  0.00    -0.024 C 
ATOM     18  C   UNL     1       7.239  -3.072  -2.335  0.00  0.00    +0.006 C 
ATOM     19  C   UNL     1       7.453  -4.012  -3.524  0.00  0.00    +0.027 C 
ATOM     20  C   UNL     1       7.089  -3.317  -4.803  0.00  0.00    -0.031 C 
ATOM     21  C   UNL     1       6.372  -2.241  -4.866  0.00  0.00    -0.031 C 
ATOM     22  C   UNL     1       5.808  -1.533  -3.668  0.00  0.00    +0.028 C 
ENDBRANCH  16  17
ENDBRANCH  13  16
ENDBRANCH   8  13
TORSDOF 3
