REMARK  Name = ZINC39778469
REMARK  4 active torsions:
REMARK  status: ('A' for Active; 'I' for Inactive)
REMARK    1  A    between atoms: C_1  and  C_2
REMARK    2  A    between atoms: C_7  and  N_8
REMARK    3  A    between atoms: C_9  and  C_13
REMARK    4  A    between atoms: C_13  and  N_23
REMARK                            x       y       z     vdW  Elec       q    Type
REMARK                         _______ _______ _______ _____ _____    ______ ____
ROOT
ATOM      1  C   UNL     1       0.648  -1.990   3.964  0.00  0.00    -0.002 C 
ATOM      2  C   UNL     1      -0.285  -3.167   4.252  0.00  0.00    -0.014 C 
ATOM      3  C   UNL     1       0.414  -4.154   5.190  0.00  0.00    +0.006 C 
ATOM      4  C   UNL     1       0.766  -3.448   6.502  0.00  0.00    -0.010 C 
ATOM      5  C   UNL     1      -0.514  -2.935   7.164  0.00  0.00    +0.007 C 
ATOM      6  C   UNL     1      -1.213  -1.948   6.226  0.00  0.00    -0.010 C 
ATOM      7  C   UNL     1      -1.565  -2.654   4.915  0.00  0.00    +0.006 C 
ATOM      8  C   UNL     1      -0.280  -0.771   5.937  0.00  0.00    +0.006 C 
ATOM      9  C   UNL     1       1.000  -1.284   5.275  0.00  0.00    -0.014 C 
ATOM     10  C   UNL     1       1.699  -2.271   6.213  0.00  0.00    +0.006 C 
ENDROOT
BRANCH   1  12
ATOM     11  N   UNL     1      -0.154  -1.131   1.699  0.00  0.00    -0.198 N 
ATOM     12  C   UNL     1      -0.041  -1.018   3.040  0.00  0.00    +0.146 A 
ATOM     13  N   UNL     1      -0.639   0.091   3.388  0.00  0.00    -0.114 NA
ATOM     14  N   UNL     1      -1.123   0.686   2.358  0.00  0.00    -0.023 NA
ATOM     15  N   UNL     1      -0.866   0.011   1.291  0.00  0.00    -0.039 NA
BRANCH  11  22
ATOM     16  C   UNL     1       0.177  -0.617  -1.081  0.00  0.00    +0.046 C 
ATOM     17  C   UNL     1       0.514  -1.954  -0.474  0.00  0.00    -0.025 A 
ATOM     18  C   UNL     1       1.004  -2.971  -1.270  0.00  0.00    +0.005 A 
ATOM     19  C   UNL     1       1.313  -4.198  -0.714  0.00  0.00    +0.000 A 
ATOM     20  C   UNL     1       1.133  -4.412   0.640  0.00  0.00    +0.002 A 
ATOM     21  C   UNL     1       0.643  -3.400   1.441  0.00  0.00    +0.028 A 
ATOM     22  C   UNL     1       0.338  -2.164   0.887  0.00  0.00    +0.072 A 
ENDBRANCH  11  22
ENDBRANCH   1  12
BRANCH   1  23
ATOM     23  N   UNL     1       1.877  -2.483   3.328  0.00  0.00    +0.387 N 
ATOM     24  H   UNL     1       2.655  -1.905   3.607  0.00  0.00    -0.089 HD
ATOM     25  H   UNL     1       2.045  -3.435   3.615  0.00  0.00    -0.089 HD
ATOM     26  H   UNL     1       1.774  -2.447   2.325  0.00  0.00    -0.089 HD
ENDBRANCH   1  23
TORSDOF 3
