REMARK  Name = ZINC39916290
REMARK  7 active torsions:
REMARK  status: ('A' for Active; 'I' for Inactive)
REMARK    1  A    between atoms: C_1  and  C_2
REMARK    2  A    between atoms: C_2  and  O_3
REMARK    3  A    between atoms: O_3  and  C_4
REMARK    4  A    between atoms: C_4  and  C_6
REMARK    5  A    between atoms: C_7  and  N_30
REMARK    6  A    between atoms: C_21  and  C_23
REMARK    7  A    between atoms: C_26  and  O_29
REMARK                            x       y       z     vdW  Elec       q    Type
REMARK                         _______ _______ _______ _____ _____    ______ ____
ROOT
ATOM      1  C   UNL     1      -2.790  -2.392  -0.012  0.00  0.00    +0.102 C 
ATOM      2  C   UNL     1      -2.916  -3.738  -0.088  0.00  0.00    +0.194 C 
ATOM      3  O   UNL     1      -4.125  -4.345  -0.040  0.00  0.00    -0.445 OA
ATOM      4  C   UNL     1      -5.197  -3.552  -0.106  0.00  0.00    +0.129 C 
ATOM      5  C   UNL     1      -6.333  -3.863  -0.837  0.00  0.00    +0.035 A 
ATOM      6  C   UNL     1      -6.437  -5.076  -1.549  0.00  0.00    +0.013 A 
ATOM      7  C   UNL     1      -7.573  -5.350  -2.246  0.00  0.00    +0.001 A 
ATOM      8  C   UNL     1      -8.638  -4.455  -2.275  0.00  0.00    +0.002 A 
ATOM      9  C   UNL     1      -8.595  -3.266  -1.612  0.00  0.00    +0.024 A 
ATOM     10  C   UNL     1      -7.454  -2.915  -0.872  0.00  0.00    +0.044 A 
ATOM     11  N   UNL     1      -7.408  -1.743  -0.228  0.00  0.00    -0.284 N 
ATOM     12  C   UNL     1      -6.387  -1.345   0.505  0.00  0.00    +0.229 C 
ATOM     13  O   UNL     1      -6.418  -0.261   1.057  0.00  0.00    -0.275 OA
ATOM     14  C   UNL     1      -5.176  -2.238   0.658  0.00  0.00    +0.154 C 
ATOM     15  C   UNL     1      -3.969  -1.468   0.117  0.00  0.00    +0.080 C 
ATOM     16  H   UNL     1      -8.172  -1.150  -0.305  0.00  0.00    +0.155 HD
ENDROOT
BRANCH  15  17
ATOM     17  C   UNL     1      -4.310  -0.899  -1.236  0.00  0.00    -0.038 A 
ATOM     18  C   UNL     1      -4.664  -1.744  -2.272  0.00  0.00    +0.008 A 
ATOM     19  C   UNL     1      -4.976  -1.225  -3.513  0.00  0.00    +0.045 A 
ATOM     20  C   UNL     1      -4.936   0.146  -3.720  0.00  0.00    +0.117 A 
ATOM     21  C   UNL     1      -4.581   0.993  -2.680  0.00  0.00    +0.045 A 
ATOM     22  C   UNL     1      -4.274   0.468  -1.439  0.00  0.00    +0.008 A 
BRANCH  20  23
ATOM     23  O   UNL     1      -5.242   0.660  -4.941  0.00  0.00    -0.507 OA
ATOM     24  H   UNL     1      -6.179   0.870  -5.055  0.00  0.00    +0.292 HD
ENDBRANCH  20  23
ENDBRANCH  15  17
BRANCH   2  25
ATOM     25  N   UNL     1      -1.790  -4.506  -0.218  0.00  0.00    -0.329 N 
ATOM     26  H   UNL     1      -0.914  -4.095  -0.161  0.00  0.00    +0.145 HD
ATOM     27  H   UNL     1      -1.869  -5.461  -0.366  0.00  0.00    +0.145 HD
ENDBRANCH   2  25
BRANCH   1  28
ATOM     28  C   UNL     1      -1.501  -1.835  -0.050  0.00  0.00    +0.341 C 
ATOM     29  O   UNL     1      -0.967  -1.466   0.980  0.00  0.00    -0.245 OA
BRANCH  28  30
ATOM     30  O   UNL     1      -0.854  -1.709  -1.229  0.00  0.00    -0.462 OA
BRANCH  30  32
ATOM     31  C   UNL     1       1.024  -1.074  -2.611  0.00  0.00    +0.048 C 
ATOM     32  C   UNL     1       0.454  -1.134  -1.193  0.00  0.00    +0.229 C 
ENDBRANCH  30  32
ENDBRANCH  28  30
ENDBRANCH   1  28
TORSDOF 6
