REMARK  Name = ZINC64557871
REMARK  5 active torsions:
REMARK  status: ('A' for Active; 'I' for Inactive)
REMARK    1  A    between atoms: C_4  and  S_7
REMARK    2  A    between atoms: S_7  and  C_10
REMARK    3  A    between atoms: N_14  and  C_24
REMARK    4  A    between atoms: C_15  and  C_17
REMARK    5  A    between atoms: C_27  and  C_30
REMARK                            x       y       z     vdW  Elec       q    Type
REMARK                         _______ _______ _______ _____ _____    ______ ____
ROOT
ATOM      1  C   UNL     1       4.406  -1.094   1.637  0.00  0.00    +0.148 C 
ATOM      2  C   UNL     1       4.526  -2.271   2.252  0.00  0.00    +0.264 C 
ATOM      3  C   UNL     1       4.941  -2.060   3.646  0.00  0.00    +0.293 C 
ATOM      4  O   UNL     1       5.133  -2.945   4.458  0.00  0.00    -0.266 OA
ATOM      5  N   UNL     1       5.077  -0.744   3.891  0.00  0.00    -0.252 N 
ATOM      6  C   UNL     1       4.758  -0.029   2.649  0.00  0.00    +0.164 C 
ATOM      7  O   UNL     1       4.299  -3.482   1.677  0.00  0.00    -0.281 OA
ENDROOT
BRANCH   6   8
ATOM      8  C   UNL     1       3.583   0.888   2.867  0.00  0.00    -0.021 A 
ATOM      9  C   UNL     1       2.551   0.503   3.704  0.00  0.00    +0.007 A 
ATOM     10  C   UNL     1       1.473   1.343   3.905  0.00  0.00    +0.020 A 
ATOM     11  C   UNL     1       1.426   2.571   3.269  0.00  0.00    +0.041 A 
ATOM     12  C   UNL     1       2.458   2.957   2.432  0.00  0.00    +0.020 A 
ATOM     13  C   UNL     1       3.538   2.117   2.236  0.00  0.00    +0.007 A 
ATOM     14 CL   UNL     1       0.071   3.628   3.520  0.00  0.00    -0.084 Cl
ENDBRANCH   6   8
BRANCH   5  15
ATOM     15  C   UNL     1       5.456  -0.165   5.101  0.00  0.00    +0.038 A 
ATOM     16  C   UNL     1       5.549   1.219   5.210  0.00  0.00    +0.024 A 
ATOM     17  C   UNL     1       5.924   1.794   6.403  0.00  0.00    +0.015 A 
ATOM     18  C   UNL     1       6.210   0.985   7.507  0.00  0.00    +0.037 A 
ATOM     19  C   UNL     1       6.114  -0.405   7.394  0.00  0.00    +0.015 A 
ATOM     20  C   UNL     1       5.734  -0.973   6.199  0.00  0.00    +0.024 A 
BRANCH  18  21
ATOM     21  C   UNL     1       6.612   1.598   8.788  0.00  0.00    +0.242 C 
ATOM     22  O   UNL     1       6.695   2.807   8.884  0.00  0.00    -0.270 OA
ATOM     23  N   UNL     1       6.887   0.817   9.851  0.00  0.00    -0.325 N 
ATOM     24  H   UNL     1       6.821  -0.148   9.774  0.00  0.00    +0.145 HD
ATOM     25  H   UNL     1       7.152   1.220  10.693  0.00  0.00    +0.145 HD
ENDBRANCH  18  21
ENDBRANCH   5  15
BRANCH   1  26
ATOM     26  S   UNL     1       3.934  -0.832  -0.041  0.00  0.00    +0.027 S 
ATOM     27  O   UNL     1       3.674  -2.114  -0.595  0.00  0.00    -0.164 OA
ATOM     28  O   UNL     1       4.890   0.060  -0.597  0.00  0.00    -0.164 OA
BRANCH  26  32
ATOM     29  C   UNL     1      -0.017   1.378   0.010  0.00  0.00    +0.000 A 
ATOM     30  C   UNL     1       1.171   2.086   0.002  0.00  0.00    +0.002 A 
ATOM     31  C   UNL     1       2.377   1.411  -0.013  0.00  0.00    +0.027 A 
ATOM     32  C   UNL     1       2.396   0.029  -0.020  0.00  0.00    +0.093 A 
ATOM     33  C   UNL     1       1.208  -0.679  -0.012  0.00  0.00    +0.027 A 
ATOM     34  C   UNL     1       0.002  -0.004   0.002  0.00  0.00    +0.002 A 
ENDBRANCH  26  32
ENDBRANCH   1  26
TORSDOF 5
