REMARK  Name = ZINC04239524
REMARK  2 active torsions:
REMARK  status: ('A' for Active; 'I' for Inactive)
REMARK    1  A    between atoms: C_6  and  C_7
REMARK    2  A    between atoms: C_13  and  C_15
REMARK                            x       y       z     vdW  Elec       q    Type
REMARK                         _______ _______ _______ _____ _____    ______ ____
ROOT
ATOM      1  C   UNL     1      -0.081   6.134   0.033  0.00  0.00    +0.134 A 
ATOM      2  N   UNL     1       0.924   7.001   0.026  0.00  0.00    -0.140 NA
ATOM      3  N   UNL     1       0.730   8.247   0.034  0.00  0.00    -0.125 NA
ATOM      4  C   UNL     1      -0.491   8.766   0.048  0.00  0.00    +0.188 A 
ATOM      5  S   UNL     1      -1.469   7.266   0.044  0.00  0.00    -0.030 S 
ATOM      6  N   UNL     1      -0.896  10.095   0.057  0.00  0.00    -0.265 N 
ATOM      7  C   UNL     1       0.024  11.080   0.051  0.00  0.00    +0.205 C 
ATOM      8  O   UNL     1       1.205  10.806   0.038  0.00  0.00    -0.277 OA
ATOM      9  H   UNL     1      -1.841  10.314   0.068  0.00  0.00    +0.157 HD
ENDROOT
BRANCH   1  15
ATOM     10  C   UNL     1       1.155   3.972   0.011  0.00  0.00    +0.012 A 
ATOM     11  C   UNL     1       1.167   2.592   0.005  0.00  0.00    +0.016 A 
ATOM     12  C   UNL     1      -0.024   1.887   0.012  0.00  0.00    +0.018 A 
ATOM     13  C   UNL     1      -1.233   2.560   0.022  0.00  0.00    +0.016 A 
ATOM     14  C   UNL     1      -1.259   3.939   0.034  0.00  0.00    +0.012 A 
ATOM     15  C   UNL     1      -0.061   4.656   0.026  0.00  0.00    +0.009 A 
ATOM     16 BR   UNL     1       0.002  -0.004   0.002  0.00  0.00    -0.050 Br
ENDBRANCH   1  15
BRANCH   7  17
ATOM     17  C   UNL     1      -0.415  12.521   0.062  0.00  0.00    +0.016 C 
ATOM     18  C   UNL     1      -0.723  12.981   1.509  0.00  0.00    -0.009 C 
ATOM     19  C   UNL     1      -0.524  14.516   1.399  0.00  0.00    -0.020 C 
ATOM     20  C   UNL     1       0.646  14.644   0.401  0.00  0.00    -0.082 C 
ATOM     21  N   UNL     1       0.683  13.400  -0.383  0.00  0.00    +0.387 N 
ATOM     22  H   UNL     1       0.568  13.617  -1.379  0.00  0.00    -0.085 HD
ATOM     23  H   UNL     1       1.582  12.927  -0.236  0.00  0.00    -0.085 HD
ENDBRANCH   7  17
TORSDOF 2
