REMARK  Name = ZINC39937759
REMARK  8 active torsions:
REMARK  status: ('A' for Active; 'I' for Inactive)
REMARK    1  A    between atoms: C_4  and  N_7
REMARK    2  A    between atoms: N_7  and  C_8
REMARK    3  A    between atoms: C_8  and  C_9
REMARK    4  A    between atoms: C_11  and  C_13
REMARK    5  A    between atoms: C_13  and  S_14
REMARK    6  A    between atoms: S_14  and  C_15
REMARK    7  A    between atoms: C_19  and  C_24
REMARK    8  A    between atoms: N_20  and  C_21
REMARK                            x       y       z     vdW  Elec       q    Type
REMARK                         _______ _______ _______ _____ _____    ______ ____
ROOT
ATOM      1  C   UNL     1       6.313  -5.208   0.346  0.00  0.00    +0.237 C 
ATOM      2  N   UNL     1       7.028  -4.659   1.509  0.00  0.00    -0.237 N 
ATOM      3  N   UNL     1       8.175  -4.029   1.010  0.00  0.00    -0.169 NA
ATOM      4  C   UNL     1       8.242  -4.128  -0.291  0.00  0.00    +0.147 C 
ATOM      5  N   UNL     1       7.149  -4.835  -0.807  0.00  0.00    -0.282 N 
ATOM      6  H   UNL     1       6.758  -4.720   2.439  0.00  0.00    +0.171 HD
ENDROOT
BRANCH   4   7
ATOM      7  C   UNL     1       9.278  -3.593  -1.072  0.00  0.00    +0.022 C 
ATOM      8  C   UNL     1      10.441  -2.970  -0.619  0.00  0.00    +0.006 A 
ATOM      9  C   UNL     1      10.930  -2.689   0.675  0.00  0.00    +0.010 A 
ATOM     10  C   UNL     1      12.122  -2.056   0.822  0.00  0.00    +0.001 A 
ATOM     11  C   UNL     1      12.886  -1.671  -0.281  0.00  0.00    +0.002 A 
ATOM     12  C   UNL     1      12.479  -1.909  -1.552  0.00  0.00    +0.026 A 
ATOM     13  C   UNL     1      11.243  -2.566  -1.785  0.00  0.00    +0.043 A 
ATOM     14  N   UNL     1      10.634  -2.909  -2.904  0.00  0.00    -0.380 N 
ATOM     15  C   UNL     1       9.371  -3.579  -2.582  0.00  0.00    +0.152 C 
ATOM     16  H   UNL     1      10.972  -2.746  -3.799  0.00  0.00    +0.160 HD
ENDBRANCH   4   7
BRANCH   5  17
ATOM     17  C   UNL     1       6.888  -5.143  -2.215  0.00  0.00    +0.078 C 
ATOM     18  C   UNL     1       5.590  -5.883  -2.547  0.00  0.00    +0.024 C 
ATOM     19  C   UNL     1       6.932  -6.613  -2.637  0.00  0.00    +0.024 C 
ENDBRANCH   5  17
BRANCH   1  20
ATOM     20  S   UNL     1       4.666  -4.461   0.203  0.00  0.00    -0.109 S 
BRANCH  20  21
ATOM     21  C   UNL     1       4.998  -2.680   0.106  0.00  0.00    +0.168 C 
BRANCH  21  23
ATOM     22  N   UNL     1       3.697  -0.588  -0.104  0.00  0.00    -0.257 N 
ATOM     23  C   UNL     1       3.696  -1.932  -0.017  0.00  0.00    +0.231 C 
ATOM     24  O   UNL     1       2.647  -2.541  -0.038  0.00  0.00    -0.274 OA
BRANCH  22  28
ATOM     25  C   UNL     1       0.092   1.501  -0.110  0.00  0.00    +0.000 A 
ATOM     26  C   UNL     1       0.986   1.665  -1.153  0.00  0.00    +0.002 A 
ATOM     27  C   UNL     1       2.182   0.974  -1.154  0.00  0.00    +0.023 A 
ATOM     28  C   UNL     1       2.486   0.114  -0.106  0.00  0.00    +0.037 A 
ATOM     29  C   UNL     1       1.587  -0.047   0.940  0.00  0.00    +0.023 A 
ATOM     30  C   UNL     1       0.393   0.647   0.935  0.00  0.00    +0.002 A 
ENDBRANCH  22  28
BRANCH  22  31
ATOM     31  C   UNL     1       4.965   0.140  -0.197  0.00  0.00    +0.232 C 
BRANCH  31  32
ATOM     32  C   UNL     1       5.440   0.473   1.155  0.00  0.00    +0.082 C 
ATOM     33  N   UNL     1       5.807   0.730   2.200  0.00  0.00    -0.195 NA
ENDBRANCH  31  32
ENDBRANCH  22  31
ENDBRANCH  21  23
ENDBRANCH  20  21
ENDBRANCH   1  20
TORSDOF 8
