REMARK  Name = ZINC44888749
REMARK  4 active torsions:
REMARK  status: ('A' for Active; 'I' for Inactive)
REMARK    1  A    between atoms: C_1  and  C_2
REMARK    2  A    between atoms: C_2  and  C_4
REMARK    3  A    between atoms: C_2  and  N_9
REMARK    4  A    between atoms: N_9  and  C_10
REMARK                            x       y       z     vdW  Elec       q    Type
REMARK                         _______ _______ _______ _____ _____    ______ ____
ROOT
ATOM      1  N   UNL     1       0.739  -0.368  -1.216  0.00  0.00    +0.387 N 
ATOM      2  H   UNL     1       1.677   0.003  -1.218  0.00  0.00    -0.085 HD
ATOM      3  H   UNL     1       0.776  -1.376  -1.242  0.00  0.00    -0.085 HD
ENDROOT
BRANCH   1   4
ATOM      4  C   UNL     1       0.014   0.127  -2.393  0.00  0.00    -0.071 C 
ATOM      5  C   UNL     1       0.117   1.627  -2.457  0.00  0.00    -0.016 C 
ATOM      6  C   UNL     1      -1.152   2.281  -3.036  0.00  0.00    -0.002 C 
ATOM      7  C   UNL     1      -1.719   1.515  -4.247  0.00  0.00    -0.000 C 
ATOM      8  C   UNL     1      -0.642   1.045  -5.187  0.00  0.00    -0.000 C 
ATOM      9  C   UNL     1      -0.263  -0.402  -4.812  0.00  0.00    -0.002 C 
ATOM     10  C   UNL     1       0.641  -0.462  -3.673  0.00  0.00    -0.016 C 
ENDBRANCH   1   4
BRANCH   1  12
ATOM     11  C   UNL     1       0.874  -0.326   1.229  0.00  0.00    -0.006 C 
ATOM     12  C   UNL     1       0.045   0.065   0.005  0.00  0.00    -0.001 C 
BRANCH  12  13
ATOM     13  C   UNL     1      -1.305  -0.602   0.078  0.00  0.00    +0.163 A 
ATOM     14  N   UNL     1      -1.565  -1.877  -0.150  0.00  0.00    -0.113 NA
ATOM     15  N   UNL     1      -2.832  -2.052   0.015  0.00  0.00    -0.021 NA
ATOM     16  N   UNL     1      -3.370  -0.927   0.338  0.00  0.00    -0.021 NA
ATOM     17  N   UNL     1      -2.451  -0.024   0.388  0.00  0.00    -0.113 NA
ENDBRANCH  12  13
ENDBRANCH   1  12
TORSDOF 3
