REMARK  Name = ZINC41080759
REMARK  4 active torsions:
REMARK  status: ('A' for Active; 'I' for Inactive)
REMARK    1  A    between atoms: C_3  and  O_11
REMARK    2  A    between atoms: C_4  and  C_8
REMARK    3  A    between atoms: C_6  and  N_7
REMARK    4  A    between atoms: O_11  and  C_12
REMARK                            x       y       z     vdW  Elec       q    Type
REMARK                         _______ _______ _______ _____ _____    ______ ____
ROOT
ATOM      1  C   UNL     1      -0.017   1.389   0.053  0.00  0.00    +0.026 A 
ATOM      2  C   UNL     1       1.165   2.096  -0.042  0.00  0.00    +0.049 A 
ATOM      3  C   UNL     1       2.381   1.439   0.073  0.00  0.00    +0.141 A 
ATOM      4  C   UNL     1       2.408   0.054   0.286  0.00  0.00    +0.080 A 
ATOM      5  C   UNL     1       1.209  -0.654   0.381  0.00  0.00    +0.039 A 
ATOM      6  C   UNL     1       0.002   0.015   0.264  0.00  0.00    +0.025 A 
ENDROOT
BRANCH   4   7
ATOM      7  C   UNL     1       3.698  -0.651   0.409  0.00  0.00    +0.245 C 
ATOM      8  O   UNL     1       4.741  -0.032   0.326  0.00  0.00    -0.270 OA
ATOM      9  N   UNL     1       3.720  -1.983   0.615  0.00  0.00    -0.325 N 
ATOM     10  H   UNL     1       2.889  -2.478   0.681  0.00  0.00    +0.145 HD
ATOM     11  H   UNL     1       4.568  -2.447   0.695  0.00  0.00    +0.145 HD
ENDBRANCH   4   7
BRANCH   6  12
ATOM     12  N   UNL     1      -1.201  -0.694   0.359  0.00  0.00    -0.358 N 
ATOM     13  H   UNL     1      -2.047  -0.226   0.278  0.00  0.00    +0.142 HD
ATOM     14  H   UNL     1      -1.189  -1.652   0.507  0.00  0.00    +0.142 HD
ENDBRANCH   6  12
BRANCH   3  15
ATOM     15  O   UNL     1       3.542   2.136  -0.021  0.00  0.00    -0.454 OA
BRANCH  15  16
ATOM     16  C   UNL     1       3.468   3.490  -0.118  0.00  0.00    +0.148 A 
ATOM     17  C   UNL     1       3.473   4.098  -1.365  0.00  0.00    +0.069 A 
ATOM     18  C   UNL     1       3.397   5.475  -1.461  0.00  0.00    +0.063 A 
ATOM     19  C   UNL     1       3.317   6.247  -0.314  0.00  0.00    +0.061 A 
ATOM     20  C   UNL     1       3.312   5.642   0.930  0.00  0.00    +0.045 A 
ATOM     21  C   UNL     1       3.382   4.265   1.030  0.00  0.00    +0.085 A 
ATOM     22 CL   UNL     1       3.368   3.507   2.592  0.00  0.00    -0.080 Cl
ATOM     23 CL   UNL     1       3.224   7.976  -0.438  0.00  0.00    -0.082 Cl
ATOM     24 CL   UNL     1       3.403   6.237  -3.021  0.00  0.00    -0.082 Cl
ENDBRANCH  15  16
ENDBRANCH   3  15
TORSDOF 4
