REMARK  Name = ZINC35308318
REMARK  5 active torsions:
REMARK  status: ('A' for Active; 'I' for Inactive)
REMARK    1  A    between atoms: C_3  and  S_9
REMARK    2  A    between atoms: C_6  and  N_7
REMARK    3  A    between atoms: S_9  and  C_10
REMARK    4  A    between atoms: C_10  and  C_11
REMARK    5  A    between atoms: C_16  and  N_17
REMARK                            x       y       z     vdW  Elec       q    Type
REMARK                         _______ _______ _______ _____ _____    ______ ____
ROOT
ATOM      1  S   UNL     1       3.260   2.747   0.269  0.00  0.00    -0.119 S 
ENDROOT
BRANCH   1   4
ATOM      2  C   UNL     1      -0.735   2.534  -0.138  0.00  0.00    +0.024 A 
ATOM      3  C   UNL     1       0.560   3.009  -0.082  0.00  0.00    +0.018 A 
ATOM      4  C   UNL     1       1.607   2.141   0.198  0.00  0.00    +0.027 A 
ATOM      5  C   UNL     1       1.351   0.793   0.422  0.00  0.00    +0.056 A 
ATOM      6  C   UNL     1       0.055   0.318   0.367  0.00  0.00    +0.043 A 
ATOM      7  C   UNL     1      -0.992   1.187   0.086  0.00  0.00    +0.026 A 
ATOM      8 CL   UNL     1       2.659  -0.293   0.772  0.00  0.00    -0.082 Cl
BRANCH   7   9
ATOM      9  N   UNL     1      -2.305   0.706   0.029  0.00  0.00    -0.358 N 
ATOM     10  H   UNL     1      -3.036   1.313  -0.166  0.00  0.00    +0.142 HD
ATOM     11  H   UNL     1      -2.484  -0.234   0.186  0.00  0.00    +0.142 HD
ENDBRANCH   7   9
ENDBRANCH   1   4
BRANCH   1  12
ATOM     12  C   UNL     1       3.093   4.519  -0.083  0.00  0.00    +0.112 C 
BRANCH  12  13
ATOM     13  C   UNL     1       4.453   5.168  -0.053  0.00  0.00    -0.004 A 
ATOM     14  C   UNL     1       4.962   5.650   1.138  0.00  0.00    +0.045 A 
ATOM     15  C   UNL     1       6.212   6.245   1.166  0.00  0.00    +0.124 A 
ATOM     16  C   UNL     1       6.949   6.358  -0.001  0.00  0.00    +0.040 A 
ATOM     17  C   UNL     1       6.438   5.875  -1.190  0.00  0.00    +0.036 A 
ATOM     18  C   UNL     1       5.192   5.275  -1.215  0.00  0.00    +0.130 A 
ATOM     19  F   UNL     1       6.710   6.717   2.329  0.00  0.00    -0.205 F 
BRANCH  18  20
ATOM     20  N   UNL     1       4.649   4.753  -2.489  0.00  0.00    +0.057 N 
ATOM     21  O   UNL     1       4.010   3.727  -2.498  0.00  0.00    -0.126 OA
ATOM     22  O   UNL     1       4.843   5.353  -3.520  0.00  0.00    -0.126 OA
ENDBRANCH  18  20
ENDBRANCH  12  13
ENDBRANCH   1  12
TORSDOF 5
