REMARK  Name = ZINC39334943
REMARK  5 active torsions:
REMARK  status: ('A' for Active; 'I' for Inactive)
REMARK    1  A    between atoms: C_1  and  C_2
REMARK    2  A    between atoms: C_2  and  C_3
REMARK    3  A    between atoms: C_5  and  C_16
REMARK    4  A    between atoms: C_6  and  N_15
REMARK    5  A    between atoms: C_11  and  C_14
REMARK                            x       y       z     vdW  Elec       q    Type
REMARK                         _______ _______ _______ _____ _____    ______ ____
ROOT
ATOM      1  C   UNL     1       0.718  -0.497  -1.257  0.00  0.00    +0.067 C 
ATOM      2  C   UNL     1      -0.092  -0.150  -2.492  0.00  0.00    +0.093 C 
ATOM      3  C   UNL     1      -0.718  -1.099  -3.220  0.00  0.00    +0.195 C 
ATOM      4  O   UNL     1      -0.702  -2.426  -2.995  0.00  0.00    -0.448 OA
ATOM      5  C   UNL     1      -0.376  -2.864  -1.674  0.00  0.00    +0.342 C 
ATOM      6  C   UNL     1       0.815  -1.998  -1.246  0.00  0.00    +0.025 C 
ATOM      7  C   UNL     1       1.765  -2.848  -0.942  0.00  0.00    +0.065 C 
ATOM      8  N   UNL     1       1.369  -4.117  -1.218  0.00  0.00    -0.155 NA
ATOM      9  N   UNL     1       0.191  -4.215  -1.652  0.00  0.00    -0.138 NA
ATOM     10  C   UNL     1       3.107  -2.471  -0.369  0.00  0.00    +0.067 C 
ENDROOT
BRANCH   3  11
ATOM     11  N   UNL     1      -1.444  -0.666  -4.301  0.00  0.00    -0.329 N 
ATOM     12  H   UNL     1      -1.489   0.280  -4.508  0.00  0.00    +0.145 HD
ATOM     13  H   UNL     1      -1.913  -1.308  -4.858  0.00  0.00    +0.145 HD
ENDBRANCH   3  11
BRANCH   1  15
ATOM     14  C   UNL     1      -0.019   1.526   0.010  0.00  0.00    +0.005 C 
ATOM     15  C   UNL     1       0.002  -0.004   0.002  0.00  0.00    +0.010 C 
ENDBRANCH   1  15
BRANCH   2  16
ATOM     16  C   UNL     1      -0.197   1.220  -2.896  0.00  0.00    +0.100 C 
ATOM     17  N   UNL     1      -0.279   2.307  -3.216  0.00  0.00    -0.191 NA
ENDBRANCH   2  16
TORSDOF 3
