REMARK  Name = ZINC55189578
REMARK  2 active torsions:
REMARK  status: ('A' for Active; 'I' for Inactive)
REMARK    1  A    between atoms: C_10  and  C_11
REMARK    2  A    between atoms: C_13  and  C_16
REMARK                            x       y       z     vdW  Elec       q    Type
REMARK                         _______ _______ _______ _____ _____    ______ ____
ROOT
ATOM      1  C   UNL     1       4.949   0.138  -0.044  0.00  0.00    +0.203 A 
ATOM      2  N   UNL     1       6.039  -0.174  -0.762  0.00  0.00    -0.186 NA
ATOM      3  C   UNL     1       6.990   0.705  -0.538  0.00  0.00    +0.278 A 
ATOM      4  O   UNL     1       6.525   1.612   0.340  0.00  0.00    -0.331 OA
ATOM      5  N   UNL     1       5.193   1.228   0.645  0.00  0.00    -0.056 NA
ENDROOT
BRANCH   1  15
ATOM      6  C   UNL     1      -0.006   1.335  -0.440  0.00  0.00    +0.001 A 
ATOM      7  C   UNL     1       1.179   2.068  -0.451  0.00  0.00    +0.001 A 
ATOM      8  C   UNL     1       2.385   1.450  -0.321  0.00  0.00    +0.009 A 
ATOM      9  C   UNL     1       2.440   0.056  -0.174  0.00  0.00    -0.007 A 
ATOM     10  C   UNL     1       1.236  -0.690  -0.163  0.00  0.00    -0.017 A 
ATOM     11  C   UNL     1       0.009  -0.019  -0.300  0.00  0.00    +0.008 A 
ATOM     12  C   UNL     1       1.289  -2.087  -0.015  0.00  0.00    +0.008 A 
ATOM     13  C   UNL     1       2.491  -2.714   0.116  0.00  0.00    +0.001 A 
ATOM     14  C   UNL     1       3.682  -1.996   0.108  0.00  0.00    +0.012 A 
ATOM     15  C   UNL     1       3.675  -0.620  -0.036  0.00  0.00    +0.030 A 
ENDBRANCH   1  15
BRANCH   3  16
ATOM     16  C   UNL     1       8.334   0.698  -1.143  0.00  0.00    +0.137 A 
ATOM     17  C   UNL     1       9.245   1.671  -0.824  0.00  0.00    +0.081 A 
ATOM     18  S   UNL     1      10.639   1.164  -1.823  0.00  0.00    -0.060 S 
ATOM     19  C   UNL     1       9.880  -0.277  -2.557  0.00  0.00    +0.156 A 
ATOM     20  N   UNL     1       8.683  -0.260  -2.004  0.00  0.00    -0.220 NA
ATOM     21  N   UNL     1      10.410  -1.179  -3.465  0.00  0.00    -0.338 N 
ATOM     22  H   UNL     1      11.319  -1.066  -3.785  0.00  0.00    +0.144 HD
ATOM     23  H   UNL     1       9.874  -1.923  -3.780  0.00  0.00    +0.144 HD
ENDBRANCH   3  16
TORSDOF 2
