REMARK  Name = ZINC23231325
REMARK  2 active torsions:
REMARK  status: ('A' for Active; 'I' for Inactive)
REMARK    1  A    between atoms: C_3  and  C_12
REMARK    2  A    between atoms: C_5  and  C_6
REMARK                            x       y       z     vdW  Elec       q    Type
REMARK                         _______ _______ _______ _____ _____    ______ ____
ROOT
ATOM      1  C   UNL     1      -6.256   0.796   3.468  0.00  0.00    +0.257 C 
ATOM      2  O   UNL     1      -6.821   0.513   2.428  0.00  0.00    -0.269 OA
ATOM      3  N   UNL     1      -4.936   1.067   3.466  0.00  0.00    -0.250 N 
ATOM      4  C   UNL     1      -4.220   1.022   2.277  0.00  0.00    +0.222 A 
ATOM      5  N   UNL     1      -4.850   0.711   1.154  0.00  0.00    -0.222 NA
ATOM      6  C   UNL     1      -4.194   0.658   0.009  0.00  0.00    +0.119 A 
ATOM      7  C   UNL     1      -2.830   0.933  -0.010  0.00  0.00    -0.008 A 
ATOM      8  C   UNL     1      -2.207   1.256   1.175  0.00  0.00    +0.050 A 
ATOM      9  N   UNL     1      -2.925   1.289   2.292  0.00  0.00    -0.219 NA
ATOM     10  C   UNL     1      -0.736   1.583   1.259  0.00  0.00    +0.056 C 
ATOM     11  C   UNL     1      -0.013   1.086   0.008  0.00  0.00    +0.006 C 
ATOM     12  C   UNL     1      -0.762   1.598  -1.228  0.00  0.00    +0.005 C 
ATOM     13  C   UNL     1      -2.099   0.863  -1.322  0.00  0.00    +0.038 C 
ATOM     14  H   UNL     1      -4.425   1.323   4.406  0.00  0.00    +0.158 HD
ENDROOT
BRANCH   1  17
ATOM     15  C   UNL     1      -8.814   0.718   6.231  0.00  0.00    +0.010 A 
ATOM     16  C   UNL     1      -8.361   0.608   4.940  0.00  0.00    +0.021 A 
ATOM     17  C   UNL     1      -7.012   0.844   4.723  0.00  0.00    +0.074 A 
ATOM     18  S   UNL     1      -6.437   1.227   6.367  0.00  0.00    -0.090 S 
ATOM     19  C   UNL     1      -7.940   1.056   7.215  0.00  0.00    -0.023 A 
BRANCH  19  20
ATOM     20  C   UNL     1      -8.211   1.238   8.686  0.00  0.00    -0.034 C 
ATOM     21  C   UNL     1      -8.348   2.738   9.026  0.00  0.00    -0.013 C 
ATOM     22  C   UNL     1      -7.683   2.898  10.409  0.00  0.00    -0.020 C 
ATOM     23  C   UNL     1      -7.200   1.481  10.788  0.00  0.00    -0.082 C 
ATOM     24  N   UNL     1      -7.049   0.777   9.488  0.00  0.00    +0.384 N 
ATOM     25  H   UNL     1      -7.093  -0.316   9.603  0.00  0.00    -0.085 HD
ATOM     26  H   UNL     1      -6.116   1.054   8.975  0.00  0.00    -0.085 HD
ENDBRANCH  19  20
ENDBRANCH   1  17
TORSDOF 2
