REMARK  Name = ZINC13466674
REMARK  15 active torsions:
REMARK  status: ('A' for Active; 'I' for Inactive)
REMARK    1  A    between atoms: C_1  and  C_2
REMARK    2  A    between atoms: N_4  and  C_5
REMARK    3  A    between atoms: C_7  and  N_28
REMARK    4  A    between atoms: C_8  and  O_26
REMARK    5  A    between atoms: C_10  and  N_11
REMARK    6  A    between atoms: N_12  and  C_13
REMARK    7  A    between atoms: C_14  and  N_23
REMARK    8  A    between atoms: C_16  and  N_20
REMARK    9  A    between atoms: O_26  and  C_27
REMARK   10  A    between atoms: N_28  and  C_29
REMARK   11  A    between atoms: N_28  and  C_33
REMARK   12  A    between atoms: C_29  and  C_30
REMARK   13  A    between atoms: C_30  and  C_31
REMARK   14  A    between atoms: C_33  and  C_34
REMARK   15  A    between atoms: C_34  and  O_35
REMARK                            x       y       z     vdW  Elec       q    Type
REMARK                         _______ _______ _______ _____ _____    ______ ____
ROOT
ATOM      1  C   UNL     1      -1.122  -2.324  -0.303  0.00  0.00    +0.063 A 
ATOM      2  C   UNL     1       0.037  -3.060  -0.485  0.00  0.00    +0.052 A 
ATOM      3  C   UNL     1      -0.038  -4.400  -0.836  0.00  0.00    +0.074 A 
ATOM      4  C   UNL     1      -1.282  -5.014  -1.007  0.00  0.00    +0.143 A 
ATOM      5  C   UNL     1      -2.442  -4.291  -0.828  0.00  0.00    +0.079 A 
ATOM      6  C   UNL     1      -2.374  -2.939  -0.469  0.00  0.00    +0.111 A 
ENDROOT
BRANCH   1  10
ATOM      7  C   UNL     1       0.195   0.976   0.930  0.00  0.00    +0.109 C 
ATOM      8  C   UNL     1       0.051  -0.502   0.674  0.00  0.00    +0.214 C 
ATOM      9  O   UNL     1       0.924  -1.267   1.028  0.00  0.00    -0.276 OA
ATOM     10  N   UNL     1      -1.046  -0.975   0.051  0.00  0.00    -0.284 N 
ATOM     11  H   UNL     1      -1.784  -0.378  -0.152  0.00  0.00    +0.155 HD
ENDBRANCH   1  10
BRANCH   6  12
ATOM     12  N   UNL     1      -3.517  -2.222  -0.286  0.00  0.00    -0.147 NA
ATOM     13  N   UNL     1      -4.565  -2.793   0.203  0.00  0.00    -0.145 NA
BRANCH  13  14
ATOM     14  C   UNL     1      -4.472  -4.045   0.744  0.00  0.00    +0.135 A 
ATOM     15  C   UNL     1      -5.298  -5.073   0.282  0.00  0.00    +0.157 A 
ATOM     16  C   UNL     1      -5.198  -6.334   0.832  0.00  0.00    +0.067 A 
ATOM     17  C   UNL     1      -4.282  -6.583   1.840  0.00  0.00    +0.130 A 
ATOM     18  C   UNL     1      -3.461  -5.571   2.304  0.00  0.00    +0.055 A 
ATOM     19  C   UNL     1      -3.545  -4.305   1.759  0.00  0.00    +0.072 A 
ATOM     20 CL   UNL     1      -2.510  -3.037   2.337  0.00  0.00    -0.081 Cl
BRANCH  17  21
ATOM     21  N   UNL     1      -4.181  -7.939   2.425  0.00  0.00    +0.057 N 
ATOM     22  O   UNL     1      -4.831  -8.847   1.962  0.00  0.00    -0.126 OA
ATOM     23  O   UNL     1      -3.449  -8.138   3.367  0.00  0.00    -0.126 OA
ENDBRANCH  17  21
BRANCH  15  24
ATOM     24  N   UNL     1      -6.278  -4.810  -0.795  0.00  0.00    +0.059 N 
ATOM     25  O   UNL     1      -6.992  -5.701  -1.194  0.00  0.00    -0.126 OA
ATOM     26  O   UNL     1      -6.365  -3.704  -1.276  0.00  0.00    -0.126 OA
ENDBRANCH  15  24
ENDBRANCH  13  14
ENDBRANCH   6  12
BRANCH   4  27
ATOM     27  O   UNL     1      -1.348  -6.328  -1.352  0.00  0.00    -0.493 OA
ATOM     28  C   UNL     1      -2.647  -6.866  -1.612  0.00  0.00    +0.277 C 
ENDBRANCH   4  27
BRANCH   3  29
ATOM     29  N   UNL     1       1.131  -5.138  -1.019  0.00  0.00    -0.324 N 
BRANCH  29  30
ATOM     30  C   UNL     1       1.735  -5.846   0.113  0.00  0.00    +0.120 C 
BRANCH  30  31
ATOM     31  C   UNL     1       1.160  -7.261   0.195  0.00  0.00    +0.137 C 
BRANCH  31  32
ATOM     32  C   UNL     1       1.767  -7.972   1.332  0.00  0.00    +0.064 C 
ATOM     33  N   UNL     1       2.235  -8.521   2.209  0.00  0.00    -0.197 NA
ENDBRANCH  31  32
ENDBRANCH  30  31
ENDBRANCH  29  30
BRANCH  29  34
ATOM     34  C   UNL     1       1.756  -5.204  -2.342  0.00  0.00    +0.133 C 
BRANCH  34  35
ATOM     35  C   UNL     1       2.759  -4.059  -2.491  0.00  0.00    +0.174 C 
BRANCH  35  36
ATOM     36  O   UNL     1       3.828  -4.237  -1.559  0.00  0.00    -0.393 OA
ATOM     37  H   UNL     1       4.503  -3.546  -1.597  0.00  0.00    +0.209 HD
ENDBRANCH  35  36
ENDBRANCH  34  35
ENDBRANCH  29  34
ENDBRANCH   3  29
TORSDOF 13
