REMARK  Name = ZINC34929012
REMARK  7 active torsions:
REMARK  status: ('A' for Active; 'I' for Inactive)
REMARK    1  A    between atoms: C_1  and  C_2
REMARK    2  A    between atoms: C_2  and  C_3
REMARK    3  A    between atoms: C_2  and  C_4
REMARK    4  A    between atoms: C_4  and  C_6
REMARK    5  A    between atoms: C_4  and  N_24
REMARK    6  A    between atoms: N_11  and  C_14
REMARK    7  A    between atoms: C_14  and  C_15
REMARK                            x       y       z     vdW  Elec       q    Type
REMARK                         _______ _______ _______ _____ _____    ______ ____
ROOT
ATOM      1  C   UNL     1      -1.419  -1.959   0.203  0.00  0.00    +0.201 C 
ATOM      2  O   UNL     1      -1.478  -2.673  -0.776  0.00  0.00    -0.277 OA
ATOM      3  N   UNL     1      -1.317  -2.506   1.431  0.00  0.00    -0.300 N 
ATOM      4  C   UNL     1      -1.139  -1.661   2.621  0.00  0.00    +0.123 C 
ATOM      5  C   UNL     1       0.058  -2.190   3.418  0.00  0.00    +0.103 C 
ATOM      6  N   UNL     1      -0.134  -3.619   3.695  0.00  0.00    -0.295 NA
ATOM      7  C   UNL     1      -0.174  -4.402   2.452  0.00  0.00    +0.103 C 
ATOM      8  C   UNL     1      -1.387  -3.963   1.616  0.00  0.00    +0.123 C 
ENDROOT
BRANCH   1   9
ATOM      9  C   UNL     1      -1.461  -0.461   0.047  0.00  0.00    +0.016 C 
BRANCH   9  10
ATOM     10  N   UNL     1      -2.406  -0.105  -1.020  0.00  0.00    +0.386 N 
ATOM     11  H   UNL     1      -2.433   0.898  -1.125  0.00  0.00    -0.089 HD
ATOM     12  H   UNL     1      -2.107  -0.526  -1.887  0.00  0.00    -0.089 HD
ATOM     13  H   UNL     1      -3.326  -0.444  -0.781  0.00  0.00    -0.089 HD
ENDBRANCH   9  10
BRANCH   9  15
ATOM     14  C   UNL     1      -0.085   1.582  -0.376  0.00  0.00    +0.006 C 
ATOM     15  C   UNL     1      -0.066   0.053  -0.316  0.00  0.00    -0.023 C 
ATOM     16  C   UNL     1       0.937  -0.403   0.746  0.00  0.00    +0.006 C 
ENDBRANCH   9  15
ENDBRANCH   1   9
BRANCH   6  17
ATOM     17  C   UNL     1       0.905  -4.125   4.602  0.00  0.00    +0.119 C 
BRANCH  17  18
ATOM     18  C   UNL     1       0.542  -5.515   5.056  0.00  0.00    -0.030 A 
ATOM     19  C   UNL     1      -0.221  -5.691   6.196  0.00  0.00    +0.009 A 
ATOM     20  C   UNL     1      -0.557  -6.965   6.616  0.00  0.00    +0.050 A 
ATOM     21  C   UNL     1      -0.129  -8.068   5.896  0.00  0.00    +0.166 A 
ATOM     22  C   UNL     1       0.640  -7.891   4.748  0.00  0.00    +0.167 A 
ATOM     23  C   UNL     1       0.968  -6.611   4.330  0.00  0.00    +0.054 A 
ATOM     24  O   UNL     1       0.933  -9.117   4.225  0.00  0.00    -0.453 OA
ATOM     25  C   UNL     1       0.682 -10.057   5.287  0.00  0.00    +0.466 C 
ATOM     26  O   UNL     1      -0.318  -9.406   6.092  0.00  0.00    -0.453 OA
ENDBRANCH  17  18
ENDBRANCH   6  17
TORSDOF 5
