REMARK  Name = ZINC12300139
REMARK  9 active torsions:
REMARK  status: ('A' for Active; 'I' for Inactive)
REMARK    1  A    between atoms: C_1  and  C_2
REMARK    2  A    between atoms: C_6  and  C_8
REMARK    3  A    between atoms: C_8  and  N_53
REMARK    4  A    between atoms: C_9  and  N_53
REMARK    5  A    between atoms: C_12  and  C_27
REMARK    6  A    between atoms: C_12  and  C_28
REMARK    7  A    between atoms: N_18  and  C_19
REMARK    8  A    between atoms: C_22  and  O_25
REMARK    9  A    between atoms: O_25  and  C_26
REMARK                            x       y       z     vdW  Elec       q    Type
REMARK                         _______ _______ _______ _____ _____    ______ ____
ROOT
ATOM      1  C   UNL     1       2.552   1.502   0.174  0.00  0.00    -0.037 C 
ATOM      2  C   UNL     1       3.416   2.744  -0.073  0.00  0.00    -0.005 C 
ATOM      3  C   UNL     1       2.930   3.891   0.817  0.00  0.00    -0.031 C 
ATOM      4  C   UNL     1       1.567   4.384   0.317  0.00  0.00    +0.062 C 
ATOM      5  C   UNL     1       0.663   3.189   0.143  0.00  0.00    +0.047 A 
ATOM      6  C   UNL     1       1.101   1.906   0.081  0.00  0.00    -0.020 A 
ATOM      7  C   UNL     1      -0.009   1.079  -0.080  0.00  0.00    +0.137 A 
ATOM      8  N   UNL     1      -1.079   1.837  -0.119  0.00  0.00    -0.174 NA
ATOM      9  N   UNL     1      -0.677   3.174   0.024  0.00  0.00    -0.237 N 
ATOM     10  C   UNL     1       2.797   3.396   2.258  0.00  0.00    +0.011 C 
ATOM     11  C   UNL     1       3.939   5.040   0.764  0.00  0.00    +0.011 C 
ENDROOT
BRANCH   9  12
ATOM     12  C   UNL     1      -1.522   4.294   0.036  0.00  0.00    +0.066 A 
ATOM     13  C   UNL     1      -2.723   4.251   0.731  0.00  0.00    +0.031 A 
ATOM     14  C   UNL     1      -3.550   5.356   0.747  0.00  0.00    +0.048 A 
ATOM     15  C   UNL     1      -3.188   6.505   0.059  0.00  0.00    +0.120 A 
ATOM     16  C   UNL     1      -1.990   6.546  -0.641  0.00  0.00    +0.048 A 
ATOM     17  C   UNL     1      -1.159   5.444  -0.652  0.00  0.00    +0.031 A 
BRANCH  15  18
ATOM     18  O   UNL     1      -4.006   7.590   0.070  0.00  0.00    -0.495 OA
ATOM     19  C   UNL     1      -5.223   7.477   0.810  0.00  0.00    +0.277 C 
ENDBRANCH  15  18
ENDBRANCH   9  12
BRANCH   1  20
ATOM     20  N   UNL     1       2.851   0.485  -0.852  0.00  0.00    +0.387 N 
ATOM     21  H   UNL     1       2.302   0.684  -1.696  0.00  0.00    -0.084 HD
ATOM     22  H   UNL     1       3.852   0.518  -1.079  0.00  0.00    -0.084 HD
BRANCH  20  23
ATOM     23  C   UNL     1       2.509  -0.861  -0.354  0.00  0.00    -0.024 C 
BRANCH  23  29
ATOM     24  C   UNL     1       2.047  -3.793  -4.391  0.00  0.00    +0.086 C 
ATOM     25  C   UNL     1       2.619  -3.137  -3.161  0.00  0.00    +0.104 A 
ATOM     26  N   UNL     1       3.834  -3.387  -2.628  0.00  0.00    -0.348 N 
ATOM     27  H   UNL     1       4.512  -4.035  -2.975  0.00  0.00    +0.166 HD
ATOM     28  C   UNL     1       3.965  -2.588  -1.525  0.00  0.00    +0.105 A 
ATOM     29  C   UNL     1       2.825  -1.877  -1.421  0.00  0.00    +0.042 A 
ATOM     30  N   UNL     1       2.019  -2.237  -2.431  0.00  0.00    -0.240 NA
ENDBRANCH  23  29
ENDBRANCH  20  23
ENDBRANCH   1  20
TORSDOF 5
