REMARK  Name = ZINC62001630
REMARK  4 active torsions:
REMARK  status: ('A' for Active; 'I' for Inactive)
REMARK    1  A    between atoms: C_1  and  O_2
REMARK    2  A    between atoms: O_2  and  C_3
REMARK    3  A    between atoms: C_3  and  C_5
REMARK    4  A    between atoms: C_8  and  C_11
REMARK                            x       y       z     vdW  Elec       q    Type
REMARK                         _______ _______ _______ _____ _____    ______ ____
ROOT
ATOM      1  C   UNL     1      -1.413  -6.381  -0.019  0.00  0.00    -0.021 C 
ATOM      2  C   UNL     1      -1.568  -6.907   1.411  0.00  0.00    +0.064 C 
ATOM      3  C   UNL     1      -2.877  -7.711   1.429  0.00  0.00    +0.000 C 
ATOM      4  C   UNL     1      -3.086  -8.056  -0.069  0.00  0.00    -0.080 C 
ATOM      5  N   UNL     1      -2.603  -6.839  -0.773  0.00  0.00    +0.385 N 
ATOM      6  C   UNL     1      -1.598  -5.788   2.413  0.00  0.00    -0.013 A 
ATOM      7  C   UNL     1      -2.416  -4.694   2.589  0.00  0.00    +0.006 A 
ATOM      8  C   UNL     1      -2.185  -3.817   3.634  0.00  0.00    +0.000 A 
ATOM      9  C   UNL     1      -1.131  -4.043   4.501  0.00  0.00    +0.002 A 
ATOM     10  C   UNL     1      -0.310  -5.137   4.330  0.00  0.00    +0.023 A 
ATOM     11  C   UNL     1      -0.535  -6.025   3.280  0.00  0.00    +0.038 A 
ATOM     12  N   UNL     1       0.146  -7.184   2.903  0.00  0.00    -0.285 N 
ATOM     13  C   UNL     1      -0.398  -7.762   1.815  0.00  0.00    +0.226 C 
ATOM     14  O   UNL     1      -0.018  -8.775   1.267  0.00  0.00    -0.275 OA
ATOM     15  H   UNL     1      -3.317  -6.125  -0.763  0.00  0.00    -0.085 HD
ATOM     16  H   UNL     1       0.920  -7.533   3.371  0.00  0.00    +0.155 HD
ATOM     17  H   UNL     1      -2.348  -7.063  -1.723  0.00  0.00    -0.085 HD
ENDROOT
BRANCH   1  21
ATOM     18  C   UNL     1      -1.247  -2.108   0.003  0.00  0.00    +0.059 A 
ATOM     19  C   UNL     1      -0.070  -2.856   0.073  0.00  0.00    +0.015 A 
ATOM     20  C   UNL     1      -0.131  -4.234   0.066  0.00  0.00    +0.003 A 
ATOM     21  C   UNL     1      -1.354  -4.875  -0.011  0.00  0.00    -0.060 A 
ATOM     22  C   UNL     1      -2.525  -4.140  -0.082  0.00  0.00    +0.003 A 
ATOM     23  C   UNL     1      -2.479  -2.762  -0.069  0.00  0.00    +0.015 A 
BRANCH  18  24
ATOM     24  C   UNL     1      -1.190  -0.632   0.010  0.00  0.00    +0.339 C 
ATOM     25  O   UNL     1      -2.216   0.016  -0.046  0.00  0.00    -0.245 OA
BRANCH  24  27
ATOM     26  C   UNL     1      -0.019   1.425   0.082  0.00  0.00    +0.280 C 
ATOM     27  O   UNL     1       0.000  -0.004   0.079  0.00  0.00    -0.464 OA
ENDBRANCH  24  27
ENDBRANCH  18  24
ENDBRANCH   1  21
TORSDOF 3
