REMARK  Name = ZINC65774907
REMARK  4 active torsions:
REMARK  status: ('A' for Active; 'I' for Inactive)
REMARK    1  A    between atoms: C_3  and  N_25
REMARK    2  A    between atoms: C_6  and  C_7
REMARK    3  A    between atoms: N_9  and  N_10
REMARK    4  A    between atoms: N_13  and  C_14
REMARK                            x       y       z     vdW  Elec       q    Type
REMARK                         _______ _______ _______ _____ _____    ______ ____
ROOT
ATOM      1  N   UNL     1      -2.449  -2.828   0.004  0.00  0.00    -0.218 N 
ATOM      2  C   UNL     1      -2.428  -4.176   0.003  0.00  0.00    +0.320 C 
ATOM      3  O   UNL     1      -3.472  -4.799   0.014  0.00  0.00    -0.251 OA
ATOM      4  N   UNL     1      -1.251  -4.832  -0.011  0.00  0.00    -0.267 N 
ATOM      5  H   UNL     1      -3.296  -2.356   0.014  0.00  0.00    +0.174 HD
ATOM      6  H   UNL     1      -0.421  -4.337  -0.089  0.00  0.00    +0.156 HD
ENDROOT
BRANCH   4   7
ATOM      7  C   UNL     1      -1.227  -6.230   0.087  0.00  0.00    +0.051 A 
ATOM      8  C   UNL     1      -2.231  -6.997  -0.503  0.00  0.00    +0.028 A 
ATOM      9  C   UNL     1      -2.167  -8.372  -0.381  0.00  0.00    +0.043 A 
ATOM     10  C   UNL     1      -1.110  -8.943   0.321  0.00  0.00    +0.099 A 
ATOM     11  N   UNL     1      -0.174  -8.184   0.868  0.00  0.00    -0.348 N 
ATOM     12  C   UNL     1      -0.201  -6.868   0.766  0.00  0.00    +0.107 A 
ATOM     13  N   UNL     1      -1.037 -10.327   0.450  0.00  0.00    -0.317 N 
ATOM     14  C   UNL     1      -1.997 -11.291  -0.107  0.00  0.00    +0.106 C 
ATOM     15  C   UNL     1      -1.524 -12.700   0.310  0.00  0.00    +0.020 C 
ATOM     16  C   UNL     1      -0.641 -12.417   1.553  0.00  0.00    +0.020 C 
ATOM     17  C   UNL     1       0.019 -11.069   1.162  0.00  0.00    +0.106 C 
ATOM     18  H   UNL     1       0.552  -8.606   1.353  0.00  0.00    +0.167 HD
ENDBRANCH   4   7
BRANCH   1  21
ATOM     19  C   UNL     1      -1.266  -0.762  -0.008  0.00  0.00    +0.260 C 
ATOM     20  O   UNL     1      -2.328  -0.170   0.005  0.00  0.00    -0.269 OA
ATOM     21  N   UNL     1      -1.246  -2.109  -0.009  0.00  0.00    -0.229 N 
ATOM     22  H   UNL     1      -0.399  -2.582  -0.019  0.00  0.00    +0.173 HD
BRANCH  19  28
ATOM     23  C   UNL     1      -0.018   1.393  -0.020  0.00  0.00    +0.015 A 
ATOM     24  C   UNL     1       1.167   2.096  -0.033  0.00  0.00    +0.028 A 
ATOM     25  C   UNL     1       2.380   1.418  -0.047  0.00  0.00    +0.069 A 
ATOM     26  C   UNL     1       2.403   0.028  -0.049  0.00  0.00    +0.028 A 
ATOM     27  C   UNL     1       1.222  -0.682  -0.036  0.00  0.00    +0.015 A 
ATOM     28  C   UNL     1       0.002  -0.004  -0.022  0.00  0.00    +0.038 A 
BRANCH  25  29
ATOM     29  N   UNL     1       3.581   2.136  -0.061  0.00  0.00    -0.200 N 
ATOM     30  C   UNL     1       4.836   1.635  -0.081  0.00  0.00    +0.250 A 
ATOM     31  N   UNL     1       5.659   2.651  -0.089  0.00  0.00    -0.116 NA
ATOM     32  N   UNL     1       5.011   3.759  -0.075  0.00  0.00    -0.023 NA
ATOM     33  N   UNL     1       3.741   3.533  -0.063  0.00  0.00    -0.039 NA
ENDBRANCH  25  29
ENDBRANCH  19  28
ENDBRANCH   1  21
TORSDOF 4
