REMARK  Name = ZINC08877129
REMARK  8 active torsions:
REMARK  status: ('A' for Active; 'I' for Inactive)
REMARK    1  A    between atoms: C_1  and  C_2
REMARK    2  A    between atoms: C_12  and  C_13
REMARK    3  A    between atoms: C_13  and  C_14
REMARK    4  A    between atoms: N_16  and  C_17
REMARK    5  A    between atoms: C_17  and  C_18
REMARK    6  A    between atoms: C_22  and  C_26
REMARK    7  A    between atoms: C_29  and  C_32
REMARK    8  A    between atoms: C_29  and  C_33
REMARK                            x       y       z     vdW  Elec       q    Type
REMARK                         _______ _______ _______ _____ _____    ______ ____
ROOT
ATOM      1  C   UNL     1       3.182  10.903  -5.037  0.00  0.00    +0.045 C 
ATOM      2  C   UNL     1       2.023  11.676  -4.463  0.00  0.00    -0.029 A 
ATOM      3  C   UNL     1       2.036  13.140  -4.435  0.00  0.00    +0.021 A 
ATOM      4  C   UNL     1       3.123  13.863  -4.935  0.00  0.00    +0.019 A 
ATOM      5  C   UNL     1       3.115  15.231  -4.897  0.00  0.00    -0.005 A 
ATOM      6  C   UNL     1       2.023  15.911  -4.366  0.00  0.00    +0.128 A 
ATOM      7  C   UNL     1       0.936  15.207  -3.864  0.00  0.00    +0.093 A 
ATOM      8  C   UNL     1       0.931  13.822  -3.892  0.00  0.00    +0.143 A 
ATOM      9  O   UNL     1      -0.118  13.123  -3.408  0.00  0.00    -0.422 OA
ATOM     10  C   UNL     1      -0.138  11.781  -3.435  0.00  0.00    +0.341 A 
ATOM     11  O   UNL     1      -1.108  11.193  -2.991  0.00  0.00    -0.245 OA
ATOM     12  C   UNL     1       0.937  11.034  -3.960  0.00  0.00    +0.049 A 
ATOM     13  O   UNL     1       1.981  17.268  -4.325  0.00  0.00    -0.486 OA
ATOM     14  C   UNL     1       3.210  17.980  -4.478  0.00  0.00    +0.105 C 
ATOM     15  C   UNL     1       3.937  17.430  -5.711  0.00  0.00    +0.052 C 
ATOM     16  C   UNL     1       4.313  15.972  -5.438  0.00  0.00    +0.043 C 
ATOM     17  C   UNL     1       2.921  19.470  -4.671  0.00  0.00    +0.055 C 
ATOM     18  C   UNL     1       4.079  17.780  -3.234  0.00  0.00    +0.055 C 
ENDROOT
BRANCH  12  19
ATOM     19  C   UNL     1       0.878   9.529  -3.967  0.00  0.00    +0.138 C 
BRANCH  19  20
ATOM     20  C   UNL     1       1.471   8.996  -2.688  0.00  0.00    +0.218 C 
ATOM     21  O   UNL     1       1.899   9.764  -1.853  0.00  0.00    -0.275 OA
ATOM     22  N   UNL     1       1.526   7.667  -2.473  0.00  0.00    -0.315 N 
ATOM     23  H   UNL     1       1.183   7.053  -3.141  0.00  0.00    +0.149 HD
BRANCH  22  24
ATOM     24  C   UNL     1       2.102   7.150  -1.229  0.00  0.00    +0.107 C 
BRANCH  24  25
ATOM     25  C   UNL     1       2.043   5.621  -1.237  0.00  0.00    +0.006 C 
ATOM     26  C   UNL     1       2.755   5.077   0.003  0.00  0.00    +0.006 C 
ATOM     27  C   UNL     1       2.696   3.548  -0.005  0.00  0.00    +0.015 C 
ATOM     28  C   UNL     1       1.235   3.094   0.007  0.00  0.00    +0.102 C 
ATOM     29  C   UNL     1       0.522   3.639  -1.233  0.00  0.00    +0.015 C 
ATOM     30  C   UNL     1       0.582   5.167  -1.225  0.00  0.00    +0.006 C 
BRANCH  28  31
ATOM     31  C   UNL     1       1.177   1.588  -0.001  0.00  0.00    +0.359 C 
ATOM     32  O   UNL     1       2.199   0.944  -0.014  0.00  0.00    -0.246 OA
ATOM     33  O   UNL     1      -0.011   0.963   0.007  0.00  0.00    -0.246 OA
ENDBRANCH  28  31
ENDBRANCH  24  25
ENDBRANCH  22  24
ENDBRANCH  19  20
ENDBRANCH  12  19
TORSDOF 5
