REMARK  Name = ZINC65184963
REMARK  6 active torsions:
REMARK  status: ('A' for Active; 'I' for Inactive)
REMARK    1  A    between atoms: C_1  and  C_2
REMARK    2  A    between atoms: C_2  and  C_3
REMARK    3  A    between atoms: C_2  and  C_4
REMARK    4  A    between atoms: C_4  and  N_5
REMARK    5  A    between atoms: N_13  and  C_16
REMARK    6  A    between atoms: C_16  and  C_17
REMARK                            x       y       z     vdW  Elec       q    Type
REMARK                         _______ _______ _______ _____ _____    ______ ____
ROOT
ATOM      1  N   UNL     1       2.125  -0.091  -1.209  0.00  0.00    -0.259 N 
ATOM      2  C   UNL     1       2.484   1.095  -1.730  0.00  0.00    +0.283 A 
ATOM      3  O   UNL     1       1.651   1.823  -2.234  0.00  0.00    -0.265 OA
ATOM      4  C   UNL     1       3.913   1.507  -1.681  0.00  0.00    +0.161 A 
ATOM      5  C   UNL     1       4.822   0.612  -1.081  0.00  0.00    +0.086 A 
ATOM      6  C   UNL     1       6.112   1.062  -1.075  0.00  0.00    +0.093 A 
ATOM      7  S   UNL     1       6.016   2.554  -1.826  0.00  0.00    +0.006 S 
ATOM      8  N   UNL     1       4.439   2.635  -2.143  0.00  0.00    -0.203 NA
ATOM      9  N   UNL     1       4.328  -0.605  -0.570  0.00  0.00    -0.282 N 
ATOM     10  C   UNL     1       3.025  -0.908  -0.643  0.00  0.00    +0.333 A 
ATOM     11  O   UNL     1       2.645  -1.968  -0.183  0.00  0.00    -0.246 OA
ENDROOT
BRANCH   1  12
ATOM     12  C   UNL     1       0.718  -0.497  -1.257  0.00  0.00    +0.133 C 
BRANCH  12  14
ATOM     13  C   UNL     1      -0.019   1.526   0.010  0.00  0.00    +0.009 C 
ATOM     14  C   UNL     1       0.002  -0.004   0.002  0.00  0.00    +0.003 C 
ATOM     15  C   UNL     1      -1.433  -0.534   0.013  0.00  0.00    +0.009 C 
ENDBRANCH  12  14
ENDBRANCH   1  12
BRANCH   9  16
ATOM     16  C   UNL     1       5.253  -1.551   0.058  0.00  0.00    +0.222 C 
BRANCH  16  17
ATOM     17  C   UNL     1       5.349  -1.256   1.532  0.00  0.00    +0.230 C 
ATOM     18  O   UNL     1       4.707  -0.346   2.012  0.00  0.00    -0.274 OA
ATOM     19  N   UNL     1       6.148  -2.005   2.319  0.00  0.00    -0.328 N 
ATOM     20  H   UNL     1       6.661  -2.733   1.935  0.00  0.00    +0.145 HD
ATOM     21  H   UNL     1       6.210  -1.815   3.268  0.00  0.00    +0.145 HD
ENDBRANCH  16  17
ENDBRANCH   9  16
TORSDOF 4
