REMARK  Name = ZINC14471698
REMARK  3 active torsions:
REMARK  status: ('A' for Active; 'I' for Inactive)
REMARK    1  A    between atoms: C_3  and  C_10
REMARK    2  A    between atoms: C_5  and  N_7
REMARK    3  A    between atoms: C_23  and  O_26
REMARK                            x       y       z     vdW  Elec       q    Type
REMARK                         _______ _______ _______ _____ _____    ______ ____
ROOT
ATOM      1  C   UNL     1      -1.264   3.493   0.112  0.00  0.00    +0.105 C 
ATOM      2  C   UNL     1      -0.234   4.182  -0.758  0.00  0.00    +0.029 C 
ATOM      3  C   UNL     1      -0.174   5.714  -0.729  0.00  0.00    +0.033 C 
ATOM      4  C   UNL     1       1.304   5.966  -1.037  0.00  0.00    -0.030 C 
ATOM      5  C   UNL     1       2.031   4.920  -0.658  0.00  0.00    -0.023 C 
ATOM      6  C   UNL     1       1.128   3.916  -0.043  0.00  0.00    +0.049 C 
ATOM      7  C   UNL     1       1.378   2.461  -0.131  0.00  0.00    -0.016 A 
ATOM      8  C   UNL     1       2.656   1.950  -0.231  0.00  0.00    +0.006 A 
ATOM      9  C   UNL     1       2.865   0.585  -0.277  0.00  0.00    +0.004 A 
ATOM     10  C   UNL     1       1.783  -0.276  -0.222  0.00  0.00    +0.047 A 
ATOM     11  C   UNL     1       0.500   0.226  -0.128  0.00  0.00    +0.138 A 
ATOM     12  C   UNL     1       0.274   1.607  -0.088  0.00  0.00    +0.073 A 
ATOM     13  N   UNL     1      -1.050   2.044  -0.029  0.00  0.00    -0.334 N 
ATOM     14  H   UNL     1      -1.588   1.673  -0.798  0.00  0.00    +0.147 HD
ENDROOT
BRANCH   1  17
ATOM     15  C   UNL     1      -0.133   3.501   3.715  0.00  0.00    +0.003 A 
ATOM     16  C   UNL     1      -0.309   3.123   2.396  0.00  0.00    +0.005 A 
ATOM     17  C   UNL     1      -1.076   3.902   1.551  0.00  0.00    -0.025 A 
ATOM     18  C   UNL     1      -1.676   5.053   2.026  0.00  0.00    +0.038 A 
ATOM     19  C   UNL     1      -1.505   5.428   3.345  0.00  0.00    +0.127 A 
ATOM     20  C   UNL     1      -0.733   4.651   4.190  0.00  0.00    +0.033 A 
BRANCH  19  21
ATOM     21  N   UNL     1      -2.148   6.660   3.854  0.00  0.00    +0.056 N 
ATOM     22  O   UNL     1      -2.828   7.344   3.111  0.00  0.00    -0.126 OA
ATOM     23  O   UNL     1      -1.997   6.990   5.017  0.00  0.00    -0.126 OA
ENDBRANCH  19  21
ENDBRANCH   1  17
BRANCH  11  24
ATOM     24  O   UNL     1      -0.555  -0.630  -0.075  0.00  0.00    -0.505 OA
ATOM     25  H   UNL     1      -0.918  -0.862  -0.940  0.00  0.00    +0.292 HD
ENDBRANCH  11  24
TORSDOF 3
