REMARK  Name = ZINC35063306
REMARK  3 active torsions:
REMARK  status: ('A' for Active; 'I' for Inactive)
REMARK    1  A    between atoms: C_1  and  C_2
REMARK    2  A    between atoms: N_6  and  C_7
REMARK    3  A    between atoms: C_12  and  N_13
REMARK                            x       y       z     vdW  Elec       q    Type
REMARK                         _______ _______ _______ _____ _____    ______ ____
ROOT
ATOM      1  C   UNL     1       0.030  -0.380   2.439  0.00  0.00    +0.070 A 
ATOM      2  C   UNL     1       1.131  -0.635   3.241  0.00  0.00    +0.051 A 
ATOM      3  C   UNL     1       1.136  -0.216   4.564  0.00  0.00    +0.039 A 
ATOM      4  C   UNL     1       0.038   0.459   5.084  0.00  0.00    -0.024 A 
ATOM      5  C   UNL     1      -1.060   0.713   4.287  0.00  0.00    +0.030 A 
ATOM      6  C   UNL     1      -1.068   0.301   2.962  0.00  0.00    +0.049 A 
ATOM      7  C   UNL     1       0.050   0.913   6.521  0.00  0.00    +0.046 C 
ATOM      8  C   UNL     1       0.821  -0.098   7.370  0.00  0.00    +0.101 C 
ATOM      9  C   UNL     1       2.139  -0.417   6.718  0.00  0.00    +0.218 C 
ATOM     10  O   UNL     1       3.114  -0.627   7.407  0.00  0.00    -0.275 OA
ATOM     11  N   UNL     1       2.247  -0.472   5.378  0.00  0.00    -0.285 N 
ATOM     12  H   UNL     1       3.101  -0.690   4.972  0.00  0.00    +0.155 HD
ENDROOT
BRANCH   1  18
ATOM     13  C   UNL     1      -0.018   1.503   0.010  0.00  0.00    +0.084 C 
ATOM     14  C   UNL     1       0.002  -0.004   0.002  0.00  0.00    +0.088 A 
ATOM     15  N   UNL     1       0.008  -0.760  -1.062  0.00  0.00    -0.350 N 
ATOM     16  C   UNL     1       0.028  -2.049  -0.691  0.00  0.00    +0.102 A 
ATOM     17  C   UNL     1       0.035  -2.099   0.655  0.00  0.00    +0.110 A 
ATOM     18  N   UNL     1       0.023  -0.802   1.100  0.00  0.00    -0.303 N 
ATOM     19  H   UNL     1      -0.001  -0.440  -1.978  0.00  0.00    +0.166 HD
ENDBRANCH   1  18
BRANCH   6  20
ATOM     20  N   UNL     1      -2.179   0.565   2.152  0.00  0.00    -0.356 N 
ATOM     21  H   UNL     1      -2.185   0.274   1.227  0.00  0.00    +0.142 HD
ATOM     22  H   UNL     1      -2.943   1.039   2.516  0.00  0.00    +0.142 HD
ENDBRANCH   6  20
TORSDOF 2
