REMARK  Name = ZINC43209722
REMARK  9 active torsions:
REMARK  status: ('A' for Active; 'I' for Inactive)
REMARK    1  A    between atoms: C_1  and  C_2
REMARK    2  A    between atoms: C_2  and  C_4
REMARK    3  A    between atoms: C_7  and  N_10
REMARK    4  A    between atoms: C_16  and  C_18
REMARK    5  A    between atoms: C_21  and  C_23
REMARK    6  A    between atoms: C_23  and  C_25
REMARK    7  A    between atoms: C_23  and  N_33
REMARK    8  A    between atoms: C_25  and  C_26
REMARK    9  A    between atoms: C_29  and  O_32
REMARK                            x       y       z     vdW  Elec       q    Type
REMARK                         _______ _______ _______ _____ _____    ______ ____
ROOT
ATOM      1  C   UNL     1       1.168  -3.831  -9.516  0.00  0.00    +0.164 A 
ATOM      2  C   UNL     1       1.063  -4.365 -10.764  0.00  0.00    +0.230 A 
ATOM      3  O   UNL     1       1.093  -3.340 -11.631  0.00  0.00    -0.449 OA
ATOM      4  C   UNL     1       1.214  -2.203 -10.932  0.00  0.00    +0.182 A 
ATOM      5  N   UNL     1       1.254  -2.481  -9.664  0.00  0.00    -0.210 NA
ENDROOT
BRANCH   1  12
ATOM      6  N   UNL     1      -0.103  -2.847  -4.884  0.00  0.00    -0.327 N 
ATOM      7  C   UNL     1      -0.254  -2.130  -6.158  0.00  0.00    +0.124 C 
ATOM      8  C   UNL     1       0.954  -2.451  -7.047  0.00  0.00    +0.127 C 
ATOM      9  N   UNL     1       1.143  -3.908  -7.073  0.00  0.00    -0.293 N 
ATOM     10  C   UNL     1       1.294  -4.625  -5.799  0.00  0.00    +0.127 C 
ATOM     11  C   UNL     1       0.092  -4.303  -4.910  0.00  0.00    +0.124 C 
ATOM     12  C   UNL     1       1.178  -4.575  -8.243  0.00  0.00    +0.268 C 
ATOM     13  O   UNL     1       1.219  -5.790  -8.250  0.00  0.00    -0.268 OA
BRANCH   6  17
ATOM     14  C   UNL     1      -0.210  -0.793  -1.278  0.00  0.00    +0.017 A 
ATOM     15  C   UNL     1      -0.141  -2.192  -1.288  0.00  0.00    +0.013 A 
ATOM     16  C   UNL     1      -0.106  -2.864  -2.476  0.00  0.00    +0.024 A 
ATOM     17  C   UNL     1      -0.139  -2.160  -3.678  0.00  0.00    +0.030 A 
ATOM     18  C   UNL     1      -0.207  -0.768  -3.672  0.00  0.00    +0.024 A 
ATOM     19  C   UNL     1      -0.248  -0.089  -2.489  0.00  0.00    +0.013 A 
BRANCH  14  21
ATOM     20  C   UNL     1      -0.206  -0.826   1.298  0.00  0.00    +0.091 C 
ATOM     21  C   UNL     1      -0.248  -0.067  -0.003  0.00  0.00    +0.160 C 
ATOM     22  O   UNL     1      -0.312   1.145   0.003  0.00  0.00    -0.292 OA
ENDBRANCH  14  21
ENDBRANCH   6  17
ENDBRANCH   1  12
BRANCH   4  23
ATOM     23  C   UNL     1       1.286  -0.819 -11.525  0.00  0.00    +0.017 C 
BRANCH  23  24
ATOM     24  N   UNL     1       2.209  -0.822 -12.667  0.00  0.00    +0.386 N 
ATOM     25  H   UNL     1       2.258   0.104 -13.063  0.00  0.00    -0.089 HD
ATOM     26  H   UNL     1       3.127  -1.103 -12.356  0.00  0.00    -0.089 HD
ATOM     27  H   UNL     1       1.878  -1.470 -13.366  0.00  0.00    -0.089 HD
ENDBRANCH  23  24
BRANCH  23  28
ATOM     28  C   UNL     1      -0.106  -0.392 -11.995  0.00  0.00    +0.028 C 
BRANCH  28  29
ATOM     29  C   UNL     1      -0.059   1.036 -12.474  0.00  0.00    -0.048 A 
ATOM     30  C   UNL     1      -0.290   2.070 -11.586  0.00  0.00    +0.007 A 
ATOM     31  C   UNL     1      -0.247   3.380 -12.023  0.00  0.00    +0.045 A 
ATOM     32  C   UNL     1       0.027   3.657 -13.354  0.00  0.00    +0.117 A 
ATOM     33  C   UNL     1       0.259   2.618 -14.243  0.00  0.00    +0.045 A 
ATOM     34  C   UNL     1       0.221   1.310 -13.800  0.00  0.00    +0.007 A 
BRANCH  32  35
ATOM     35  O   UNL     1       0.069   4.945 -13.786  0.00  0.00    -0.507 OA
ATOM     36  H   UNL     1       0.944   5.352 -13.726  0.00  0.00    +0.292 HD
ENDBRANCH  32  35
ENDBRANCH  28  29
ENDBRANCH  23  28
ENDBRANCH   4  23
TORSDOF 8
