REMARK  Name = ZINC45135691
REMARK  5 active torsions:
REMARK  status: ('A' for Active; 'I' for Inactive)
REMARK    1  A    between atoms: C_1  and  C_2
REMARK    2  A    between atoms: C_2  and  C_21
REMARK    3  A    between atoms: C_4  and  N_6
REMARK    4  A    between atoms: N_6  and  C_7
REMARK    5  A    between atoms: C_12  and  N_13
REMARK                            x       y       z     vdW  Elec       q    Type
REMARK                         _______ _______ _______ _____ _____    ______ ____
ROOT
ATOM      1  C   UNL     1       2.398  -0.336   2.937  0.00  0.00    +0.058 A 
ATOM      2  C   UNL     1       2.818  -1.652   2.789  0.00  0.00    +0.030 A 
ATOM      3  C   UNL     1       3.824  -2.149   3.592  0.00  0.00    -0.024 A 
ATOM      4  C   UNL     1       4.417  -1.335   4.548  0.00  0.00    +0.039 A 
ATOM      5  C   UNL     1       3.997  -0.020   4.697  0.00  0.00    +0.058 A 
ATOM      6  C   UNL     1       2.994   0.480   3.890  0.00  0.00    +0.149 A 
ATOM      7  N   UNL     1       5.438  -1.843   5.362  0.00  0.00    -0.285 N 
ATOM      8  C   UNL     1       6.104  -2.956   5.003  0.00  0.00    +0.218 C 
ATOM      9  O   UNL     1       6.976  -3.392   5.726  0.00  0.00    -0.275 OA
ATOM     10  C   UNL     1       5.781  -3.667   3.717  0.00  0.00    +0.101 C 
ATOM     11  C   UNL     1       4.281  -3.576   3.434  0.00  0.00    +0.046 C 
ATOM     12  H   UNL     1       5.666  -1.390   6.188  0.00  0.00    +0.155 HD
ENDROOT
BRANCH   6  13
ATOM     13  N   UNL     1       2.551   1.883   4.044  0.00  0.00    +0.058 N 
ATOM     14  O   UNL     1       3.359   2.750   4.285  0.00  0.00    -0.126 OA
ATOM     15  O   UNL     1       1.381   2.164   3.930  0.00  0.00    -0.126 OA
ENDBRANCH   6  13
BRANCH   1  16
ATOM     16  N   UNL     1       1.379   0.169   2.123  0.00  0.00    -0.339 N 
ATOM     17  H   UNL     1       1.029   1.060   2.281  0.00  0.00    +0.146 HD
BRANCH  16  21
ATOM     18  C   UNL     1       0.170   1.614  -0.100  0.00  0.00    +0.013 C 
ATOM     19  C   UNL     1       0.198   0.085  -0.148  0.00  0.00    -0.015 C 
ATOM     20  C   UNL     1      -0.680  -0.670   0.852  0.00  0.00    +0.031 C 
ATOM     21  C   UNL     1       0.839  -0.647   1.033  0.00  0.00    +0.077 C 
ATOM     22  C   UNL     1       0.373  -0.529  -1.538  0.00  0.00    +0.013 C 
ENDBRANCH  16  21
ENDBRANCH   1  16
TORSDOF 3
