REMARK  Name = ZINC64256558
REMARK  5 active torsions:
REMARK  status: ('A' for Active; 'I' for Inactive)
REMARK    1  A    between atoms: C_1  and  C_2
REMARK    2  A    between atoms: N_4  and  C_5
REMARK    3  A    between atoms: C_5  and  C_7
REMARK    4  A    between atoms: C_5  and  C_17
REMARK    5  A    between atoms: C_7  and  C_8
REMARK                            x       y       z     vdW  Elec       q    Type
REMARK                         _______ _______ _______ _____ _____    ______ ____
ROOT
ATOM      1  C   UNL     1       0.020  -2.136  -1.177  0.00  0.00    +0.163 C 
ENDROOT
BRANCH   1   2
ATOM      2  C   UNL     1       1.264  -2.626  -0.481  0.00  0.00    +0.236 C 
ATOM      3  O   UNL     1       1.862  -1.893   0.279  0.00  0.00    -0.274 OA
ATOM      4  N   UNL     1       1.712  -3.877  -0.703  0.00  0.00    -0.298 N 
ATOM      5  C   UNL     1       0.987  -4.752  -1.626  0.00  0.00    +0.118 C 
ATOM      6  C   UNL     1       1.866  -5.046  -2.847  0.00  0.00    +0.088 C 
ATOM      7  S   UNL     1       3.425  -5.789  -2.276  0.00  0.00    -0.158 S 
ATOM      8  C   UNL     1       4.027  -4.592  -1.047  0.00  0.00    +0.088 C 
ATOM      9  C   UNL     1       2.921  -4.343  -0.022  0.00  0.00    +0.118 C 
ENDBRANCH   1   2
BRANCH   1  13
ATOM     10  C   UNL     1      -0.018   1.503   0.010  0.00  0.00    +0.109 C 
ATOM     11  C   UNL     1       0.002  -0.004   0.002  0.00  0.00    +0.211 C 
ATOM     12  O   UNL     1       0.020  -0.616   1.049  0.00  0.00    -0.276 OA
ATOM     13  N   UNL     1       0.000  -0.672  -1.169  0.00  0.00    -0.304 N 
ATOM     14  H   UNL     1      -0.015  -0.182  -2.006  0.00  0.00    +0.149 HD
ENDBRANCH   1  13
BRANCH   1  15
ATOM     15  C   UNL     1      -1.215  -2.667  -0.447  0.00  0.00    +0.065 C 
BRANCH  15  16
ATOM     16  C   UNL     1      -2.455  -2.281  -1.211  0.00  0.00    -0.039 C 
ATOM     17  C   UNL     1      -3.119  -3.034  -2.117  0.00  0.00    -0.001 A 
ATOM     18  C   UNL     1      -2.894  -4.386  -2.643  0.00  0.00    +0.010 A 
ATOM     19  C   UNL     1      -3.750  -4.882  -3.566  0.00  0.00    +0.001 A 
ATOM     20  C   UNL     1      -4.843  -4.139  -4.032  0.00  0.00    +0.002 A 
ATOM     21  C   UNL     1      -5.115  -2.891  -3.596  0.00  0.00    +0.026 A 
ATOM     22  C   UNL     1      -4.282  -2.271  -2.625  0.00  0.00    +0.043 A 
ATOM     23  N   UNL     1      -4.334  -1.091  -2.055  0.00  0.00    -0.380 N 
ATOM     24  C   UNL     1      -3.213  -0.976  -1.115  0.00  0.00    +0.144 C 
ATOM     25  H   UNL     1      -5.004  -0.410  -2.223  0.00  0.00    +0.160 HD
ENDBRANCH  15  16
ENDBRANCH   1  15
TORSDOF 4
