REMARK  Name = ZINC61406238
REMARK  8 active torsions:
REMARK  status: ('A' for Active; 'I' for Inactive)
REMARK    1  A    between atoms: C_1  and  C_2
REMARK    2  A    between atoms: C_2  and  C_3
REMARK    3  A    between atoms: C_3  and  C_5
REMARK    4  A    between atoms: C_3  and  N_23
REMARK    5  A    between atoms: C_5  and  C_7
REMARK    6  A    between atoms: C_5  and  S_13
REMARK    7  A    between atoms: C_8  and  C_12
REMARK    8  A    between atoms: S_13  and  C_14
REMARK                            x       y       z     vdW  Elec       q    Type
REMARK                         _______ _______ _______ _____ _____    ______ ____
ROOT
ATOM      1  C   UNL     1       0.509  -2.013  -1.261  0.00  0.00    +0.077 C 
ENDROOT
BRANCH   1   2
ATOM      2  C   UNL     1       1.444  -2.475  -2.349  0.00  0.00    +0.004 A 
ATOM      3  C   UNL     1       1.149  -2.949  -3.584  0.00  0.00    -0.039 A 
ATOM      4  C   UNL     1       2.182  -3.317  -4.425  0.00  0.00    +0.011 A 
ATOM      5  C   UNL     1       3.460  -3.194  -3.990  0.00  0.00    +0.046 A 
ATOM      6  S   UNL     1       3.228  -2.533  -2.347  0.00  0.00    -0.100 S 
ATOM      7  C   UNL     1      -0.284  -3.073  -4.033  0.00  0.00    +0.044 C 
ENDBRANCH   1   2
BRANCH   1   8
ATOM      8  C   UNL     1       0.528  -0.485  -1.187  0.00  0.00    -0.057 C 
BRANCH   8   9
ATOM      9  N   UNL     1      -0.334  -0.037  -0.085  0.00  0.00    +0.381 N 
ATOM     10  H   UNL     1       0.006  -0.420   0.784  0.00  0.00    -0.090 HD
ATOM     11  H   UNL     1      -0.322   0.971  -0.037  0.00  0.00    -0.090 HD
ATOM     12  H   UNL     1      -1.278  -0.354  -0.246  0.00  0.00    -0.090 HD
ENDBRANCH   8   9
BRANCH   8  14
ATOM     13  C   UNL     1       0.157   1.619  -2.484  0.00  0.00    +0.002 C 
ATOM     14  C   UNL     1       0.013   0.096  -2.506  0.00  0.00    -0.018 C 
ENDBRANCH   8  14
ENDBRANCH   1   8
BRANCH   1  15
ATOM     15  S   UNL     1       1.044  -2.702   0.330  0.00  0.00    -0.079 S 
BRANCH  15  16
ATOM     16  C   UNL     1       0.759  -4.433   0.162  0.00  0.00    +0.196 A 
ATOM     17  N   UNL     1       0.198  -5.034  -0.863  0.00  0.00    -0.122 NA
ATOM     18  N   UNL     1       0.145  -6.303  -0.661  0.00  0.00    -0.129 NA
ATOM     19  C   UNL     1       0.675  -6.590   0.514  0.00  0.00    +0.162 A 
ATOM     20  N   UNL     1       1.086  -5.397   1.069  0.00  0.00    -0.278 N 
ATOM     21  C   UNL     1       1.685  -5.376   2.298  0.00  0.00    +0.095 A 
ATOM     22  C   UNL     1       1.883  -6.521   2.982  0.00  0.00    +0.018 A 
ATOM     23  C   UNL     1       1.476  -7.754   2.439  0.00  0.00    +0.005 A 
ATOM     24  C   UNL     1       0.872  -7.792   1.222  0.00  0.00    +0.049 A 
ENDBRANCH  15  16
ENDBRANCH   1  15
TORSDOF 6
