REMARK  Name = ZINC37332144
REMARK  3 active torsions:
REMARK  status: ('A' for Active; 'I' for Inactive)
REMARK    1  A    between atoms: C_3  and  C_9
REMARK    2  A    between atoms: C_9  and  C_11
REMARK    3  A    between atoms: C_9  and  N_22
REMARK                            x       y       z     vdW  Elec       q    Type
REMARK                         _______ _______ _______ _____ _____    ______ ____
ROOT
ATOM      1  C   UNL     1       3.671   2.188  -0.021  0.00  0.00    -0.009 C 
ENDROOT
BRANCH   1   2
ATOM      2  C   UNL     1       4.215   2.242  -1.425  0.00  0.00    -0.036 A 
ATOM      3  C   UNL     1       4.126   3.412  -2.156  0.00  0.00    +0.053 A 
ATOM      4  C   UNL     1       4.627   3.465  -3.448  0.00  0.00    +0.162 A 
ATOM      5  C   UNL     1       5.221   2.338  -4.006  0.00  0.00    +0.163 A 
ATOM      6  C   UNL     1       5.306   1.167  -3.269  0.00  0.00    +0.069 A 
ATOM      7  C   UNL     1       4.809   1.122  -1.979  0.00  0.00    +0.047 A 
ATOM      8 CL   UNL     1       4.924  -0.344  -1.056  0.00  0.00    -0.083 Cl
ATOM      9  O   UNL     1       5.726   2.371  -5.269  0.00  0.00    -0.485 OA
ATOM     10  C   UNL     1       5.290   3.446  -6.109  0.00  0.00    +0.270 C 
ATOM     11  C   UNL     1       5.375   4.750  -5.304  0.00  0.00    +0.270 C 
ATOM     12  O   UNL     1       4.528   4.623  -4.156  0.00  0.00    -0.485 OA
ENDBRANCH   1   2
BRANCH   1  15
ATOM     13  C   UNL     1       0.263   1.144  -1.264  0.00  0.00    +0.039 A 
ATOM     14  C   UNL     1       1.556   1.631  -1.238  0.00  0.00    +0.008 A 
ATOM     15  C   UNL     1       2.261   1.658  -0.049  0.00  0.00    -0.022 A 
ATOM     16  C   UNL     1       1.671   1.197   1.116  0.00  0.00    +0.128 A 
ATOM     17  C   UNL     1       0.376   0.709   1.091  0.00  0.00    +0.077 A 
ATOM     18  C   UNL     1      -0.329   0.683  -0.101  0.00  0.00    +0.126 A 
ATOM     19  F   UNL     1      -1.593   0.208  -0.127  0.00  0.00    -0.205 F 
ATOM     20  F   UNL     1       2.361   1.222   2.278  0.00  0.00    -0.205 F 
ENDBRANCH   1  15
BRANCH   1  21
ATOM     21  N   UNL     1       3.675   3.539   0.557  0.00  0.00    +0.385 N 
ATOM     22  H   UNL     1       4.619   3.894   0.576  0.00  0.00    -0.089 HD
ATOM     23  H   UNL     1       3.098   4.147  -0.004  0.00  0.00    -0.089 HD
ATOM     24  H   UNL     1       3.310   3.503   1.497  0.00  0.00    -0.089 HD
ENDBRANCH   1  21
TORSDOF 3
