REMARK  Name = ZINC00438520
REMARK  6 active torsions:
REMARK  status: ('A' for Active; 'I' for Inactive)
REMARK    1  A    between atoms: C_1  and  N_2
REMARK    2  A    between atoms: N_2  and  C_3
REMARK    3  A    between atoms: N_2  and  C_4
REMARK    4  A    between atoms: C_7  and  C_10
REMARK    5  A    between atoms: N_11  and  O_22
REMARK    6  A    between atoms: N_20  and  O_21
REMARK                            x       y       z     vdW  Elec       q    Type
REMARK                         _______ _______ _______ _____ _____    ______ ____
ROOT
ATOM      1  C   UNL     1      -0.091   5.664   0.056  0.00  0.00    +0.209 C 
ATOM      2  N   UNL     1       1.049   6.181   0.857  0.00  0.00    -0.162 NA
ATOM      3  C   UNL     1       0.443   6.891   1.986  0.00  0.00    +0.106 C 
ATOM      4  C   UNL     1       1.171   8.116   2.501  0.00  0.00    +0.023 C 
ATOM      5  C   UNL     1       0.335   8.696   3.654  0.00  0.00    +0.002 C 
ATOM      6  C   UNL     1      -1.081   9.036   3.198  0.00  0.00    +0.002 C 
ATOM      7  C   UNL     1      -1.772   7.821   2.556  0.00  0.00    +0.023 C 
ATOM      8  C   UNL     1      -0.909   7.375   1.391  0.00  0.00    +0.106 C 
ATOM      9  N   UNL     1      -1.348   6.165   0.680  0.00  0.00    -0.162 NA
ENDROOT
BRANCH   1  13
ATOM     10  C   UNL     1      -0.061   1.390   0.085  0.00  0.00    +0.029 A 
ATOM     11  C   UNL     1       0.151   2.079  -1.102  0.00  0.00    +0.023 A 
ATOM     12  C   UNL     1       0.136   3.460  -1.109  0.00  0.00    +0.008 A 
ATOM     13  C   UNL     1      -0.081   4.157   0.066  0.00  0.00    -0.012 A 
ATOM     14  C   UNL     1      -0.288   3.474   1.251  0.00  0.00    +0.008 A 
ATOM     15  C   UNL     1      -0.279   2.093   1.264  0.00  0.00    +0.023 A 
BRANCH  10  17
ATOM     16  C   UNL     1      -0.270  -0.732   1.349  0.00  0.00    +0.129 C 
ATOM     17  N   UNL     1      -0.051  -0.007   0.095  0.00  0.00    -0.336 N 
ATOM     18  C   UNL     1       0.178  -0.746  -1.149  0.00  0.00    +0.129 C 
ENDBRANCH  10  17
ENDBRANCH   1  13
BRANCH   9  19
ATOM     19  O   UNL     1      -2.347   6.489  -0.338  0.00  0.00    -0.310 OA
ATOM     20  H   UNL     1      -2.599   5.739  -0.895  0.00  0.00    +0.237 HD
ENDBRANCH   9  19
BRANCH   2  21
ATOM     21  O   UNL     1       1.902   5.088   1.323  0.00  0.00    -0.310 OA
ATOM     22  H   UNL     1       2.362   4.618   0.613  0.00  0.00    +0.237 HD
ENDBRANCH   2  21
TORSDOF 4
