REMARK  Name = ZINC51490242
REMARK  9 active torsions:
REMARK  status: ('A' for Active; 'I' for Inactive)
REMARK    1  A    between atoms: C_1  and  C_2
REMARK    2  A    between atoms: C_5  and  N_9
REMARK    3  A    between atoms: C_6  and  C_8
REMARK    4  A    between atoms: N_9  and  C_10
REMARK    5  A    between atoms: C_12  and  C_19
REMARK    6  A    between atoms: C_13  and  C_18
REMARK    7  A    between atoms: C_15  and  C_17
REMARK    8  A    between atoms: C_19  and  N_20
REMARK    9  A    between atoms: N_20  and  C_21
REMARK                            x       y       z     vdW  Elec       q    Type
REMARK                         _______ _______ _______ _____ _____    ______ ____
ROOT
ATOM      1  N   UNL     1       0.088  -4.189  -0.040  0.00  0.00    -0.289 N 
ATOM      2  C   UNL     1       0.778  -3.926   1.225  0.00  0.00    +0.137 C 
ATOM      3  C   UNL     1      -1.146  -4.831  -0.039  0.00  0.00    +0.105 A 
ATOM      4  C   UNL     1      -1.206  -6.211  -0.207  0.00  0.00    -0.023 A 
ATOM      5  C   UNL     1      -2.439  -6.836  -0.203  0.00  0.00    -0.044 A 
ATOM      6  C   UNL     1      -3.577  -6.058  -0.032  0.00  0.00    +0.024 A 
ATOM      7  C   UNL     1      -3.444  -4.693   0.129  0.00  0.00    +0.015 A 
ATOM      8  N   UNL     1      -2.253  -4.124   0.127  0.00  0.00    -0.347 N 
ATOM      9  C   UNL     1      -4.674  -3.843   0.315  0.00  0.00    +0.063 C 
ATOM     10  C   UNL     1      -2.547  -8.329  -0.383  0.00  0.00    +0.044 C 
ATOM     11  H   UNL     1      -2.188  -3.164   0.247  0.00  0.00    +0.167 HD
ENDROOT
BRANCH   1  16
ATOM     12  C   UNL     1       2.448  -2.592  -4.944  0.00  0.00    +0.044 C 
ATOM     13  C   UNL     1       1.821  -3.017  -3.641  0.00  0.00    -0.050 A 
ATOM     14  C   UNL     1       2.170  -4.226  -3.069  0.00  0.00    +0.005 A 
ATOM     15  C   UNL     1       1.598  -4.618  -1.875  0.00  0.00    +0.024 A 
ATOM     16  C   UNL     1       0.670  -3.796  -1.248  0.00  0.00    +0.038 A 
ATOM     17  C   UNL     1       0.321  -2.582  -1.825  0.00  0.00    -0.029 A 
ATOM     18  C   UNL     1       0.902  -2.193  -3.017  0.00  0.00    +0.008 A 
ATOM     19  C   UNL     1      -0.685  -1.686  -1.149  0.00  0.00    +0.045 C 
ENDBRANCH   1  16
BRANCH   4  20
ATOM     20  C   UNL     1       0.057  -7.014  -0.390  0.00  0.00    -0.044 C 
BRANCH  20  21
ATOM     21  N   UNL     1       0.489  -7.549   0.908  0.00  0.00    +0.380 N 
ATOM     22  C   UNL     1       1.720  -8.331   0.729  0.00  0.00    -0.100 C 
ATOM     23  H   UNL     1       0.665  -6.787   1.545  0.00  0.00    -0.086 HD
ATOM     24  H   UNL     1      -0.235  -8.142   1.285  0.00  0.00    -0.086 HD
ENDBRANCH  20  21
ENDBRANCH   4  20
TORSDOF 3
