REMARK  Name = ZINC06670312
REMARK  4 active torsions:
REMARK  status: ('A' for Active; 'I' for Inactive)
REMARK    1  A    between atoms: C_4  and  C_7
REMARK    2  A    between atoms: C_7  and  C_8
REMARK    3  A    between atoms: C_8  and  N_46
REMARK    4  A    between atoms: N_17  and  C_21
REMARK                            x       y       z     vdW  Elec       q    Type
REMARK                         _______ _______ _______ _____ _____    ______ ____
ROOT
ATOM      1  C   UNL     1       4.907  -0.319   2.410  0.00  0.00    -0.032 C 
ATOM      2  C   UNL     1       4.197   0.094   1.147  0.00  0.00    +0.039 A 
ATOM      3  C   UNL     1       4.772  -0.229  -0.095  0.00  0.00    +0.257 A 
ATOM      4  O   UNL     1       5.832  -0.830  -0.141  0.00  0.00    -0.267 OA
ATOM      5  N   UNL     1       4.148   0.129  -1.234  0.00  0.00    -0.274 N 
ATOM      6  H   UNL     1       4.559  -0.095  -2.117  0.00  0.00    +0.173 HD
ATOM      7  C   UNL     1       2.975   0.786  -1.189  0.00  0.00    +0.335 A 
ATOM      8  O   UNL     1       2.423   1.097  -2.227  0.00  0.00    -0.246 OA
ATOM      9  N   UNL     1       2.404   1.104  -0.015  0.00  0.00    -0.247 N 
ATOM     10  C   UNL     1       3.016   0.770   1.177  0.00  0.00    +0.112 A 
ATOM     11  N   UNL     1       2.403   1.128   2.347  0.00  0.00    -0.346 N 
ATOM     12  C   UNL     1       2.866   0.343   3.495  0.00  0.00    +0.028 C 
ATOM     13  H   UNL     1       1.398   1.083   2.260  0.00  0.00    +0.145 HD
ATOM     14  N   UNL     1       4.338   0.428   3.545  0.00  0.00    +0.393 N 
ATOM     15  H   UNL     1       4.622   1.412   3.477  0.00  0.00    -0.079 HD
ENDROOT
BRANCH   9  16
ATOM     16  C   UNL     1       1.180   1.786   0.000  0.00  0.00    +0.088 A 
ATOM     17  C   UNL     1      -0.013   1.076   0.008  0.00  0.00    +0.029 A 
ATOM     18  C   UNL     1      -1.218   1.751   0.017  0.00  0.00    +0.002 A 
ATOM     19  C   UNL     1      -1.239   3.133   0.031  0.00  0.00    +0.003 A 
ATOM     20  C   UNL     1      -0.054   3.846   0.023  0.00  0.00    +0.040 A 
ATOM     21  C   UNL     1       1.157   3.177   0.008  0.00  0.00    +0.147 A 
ATOM     22  F   UNL     1       2.314   3.873   0.000  0.00  0.00    -0.203 F 
ENDBRANCH   9  16
BRANCH  14  23
ATOM     23  C   UNL     1       4.837  -0.131   4.824  0.00  0.00    -0.071 C 
BRANCH  23  24
ATOM     24  C   UNL     1       4.426   0.796   5.969  0.00  0.00    +0.016 C 
BRANCH  24  28
ATOM     25  C   UNL     1       5.883  -0.773   9.665  0.00  0.00    +0.000 A 
ATOM     26  C   UNL     1       6.663   0.101   8.930  0.00  0.00    +0.000 A 
ATOM     27  C   UNL     1       6.191   0.608   7.734  0.00  0.00    +0.003 A 
ATOM     28  C   UNL     1       4.940   0.243   7.273  0.00  0.00    -0.049 A 
ATOM     29  C   UNL     1       4.159  -0.626   8.011  0.00  0.00    +0.003 A 
ATOM     30  C   UNL     1       4.632  -1.138   9.205  0.00  0.00    +0.000 A 
ENDBRANCH  24  28
ENDBRANCH  23  24
ENDBRANCH  14  23
TORSDOF 4
