REMARK  Name = ZINC40707630
REMARK  8 active torsions:
REMARK  status: ('A' for Active; 'I' for Inactive)
REMARK    1  A    between atoms: C_1  and  C_2
REMARK    2  A    between atoms: C_3  and  N_22
REMARK    3  A    between atoms: C_5  and  C_11
REMARK    4  A    between atoms: C_6  and  C_10
REMARK    5  A    between atoms: C_14  and  O_17
REMARK    6  A    between atoms: O_17  and  C_18
REMARK    7  A    between atoms: C_18  and  C_19
REMARK    8  A    between atoms: C_19  and  C_21
REMARK                            x       y       z     vdW  Elec       q    Type
REMARK                         _______ _______ _______ _____ _____    ______ ____
ROOT
ATOM      1  C   UNL     1      -0.018   1.503   0.010  0.00  0.00    +0.069 C 
ATOM      2  C   UNL     1       0.002  -0.004   0.002  0.00  0.00    +0.079 A 
ATOM      3  C   UNL     1       0.008  -0.787  -1.095  0.00  0.00    +0.124 A 
ATOM      4  N   UNL     1       0.029  -2.112  -0.667  0.00  0.00    -0.274 N 
ATOM      5  C   UNL     1       0.043  -3.379  -1.228  0.00  0.00    +0.067 A 
ATOM      6  C   UNL     1       0.062  -4.470  -0.439  0.00  0.00    +0.015 A 
ATOM      7  S   UNL     1       0.060  -3.748   1.194  0.00  0.00    -0.054 S 
ATOM      8  C   UNL     1       0.034  -2.040   0.704  0.00  0.00    +0.180 A 
ATOM      9  N   UNL     1       0.024  -0.798   1.089  0.00  0.00    -0.225 NA
ATOM     10  C   UNL     1       0.079  -5.924  -0.833  0.00  0.00    +0.054 C 
ENDROOT
BRANCH   5  11
ATOM     11  C   UNL     1       0.038  -3.534  -2.699  0.00  0.00    -0.000 A 
ATOM     12  C   UNL     1       1.126  -3.090  -3.453  0.00  0.00    +0.013 A 
ATOM     13  C   UNL     1       1.117  -3.236  -4.824  0.00  0.00    +0.046 A 
ATOM     14  C   UNL     1       0.029  -3.825  -5.454  0.00  0.00    +0.121 A 
ATOM     15  C   UNL     1      -1.054  -4.268  -4.708  0.00  0.00    +0.046 A 
ATOM     16  C   UNL     1      -1.051  -4.130  -3.336  0.00  0.00    +0.013 A 
BRANCH  14  17
ATOM     17  O   UNL     1       0.025  -3.967  -6.806  0.00  0.00    -0.488 OA
BRANCH  17  18
ATOM     18  C   UNL     1      -1.126  -4.581  -7.390  0.00  0.00    +0.259 C 
BRANCH  18  19
ATOM     19  C   UNL     1      -0.953  -4.654  -8.885  0.00  0.00    -0.043 C 
ATOM     20  C   UNL     1       0.138  -4.187  -9.441  0.00  0.00    +0.011 C 
ATOM     21  C   UNL     1      -2.034  -5.262  -9.740  0.00  0.00    +0.042 C 
ENDBRANCH  18  19
ENDBRANCH  17  18
ENDBRANCH  14  17
ENDBRANCH   5  11
BRANCH   3  22
ATOM     22  N   UNL     1      -0.005  -0.348  -2.426  0.00  0.00    -0.343 N 
ATOM     23  H   UNL     1      -0.019   0.602  -2.623  0.00  0.00    +0.144 HD
ATOM     24  H   UNL     1       0.000  -0.993  -3.151  0.00  0.00    +0.144 HD
ENDBRANCH   3  22
TORSDOF 5
