REMARK  Name = ZINC42115263
REMARK  4 active torsions:
REMARK  status: ('A' for Active; 'I' for Inactive)
REMARK    1  A    between atoms: C_1  and  C_2
REMARK    2  A    between atoms: C_12  and  N_14
REMARK    3  A    between atoms: N_14  and  C_15
REMARK    4  A    between atoms: C_21  and  C_23
REMARK                            x       y       z     vdW  Elec       q    Type
REMARK                         _______ _______ _______ _____ _____    ______ ____
ROOT
ATOM      1  C   UNL     1      -0.018   1.503   0.010  0.00  0.00    +0.044 C 
ATOM      2  C   UNL     1       0.002  -0.004   0.002  0.00  0.00    -0.047 A 
ATOM      3  C   UNL     1       0.006  -0.691  -1.200  0.00  0.00    +0.007 A 
ATOM      4  C   UNL     1       0.024  -2.068  -1.204  0.00  0.00    -0.028 A 
ATOM      5  C   UNL     1       0.040  -2.783  -0.014  0.00  0.00    +0.071 A 
ATOM      6  C   UNL     1       0.036  -2.085   1.194  0.00  0.00    +0.145 A 
ATOM      7  C   UNL     1       0.023  -0.703   1.195  0.00  0.00    +0.043 A 
ATOM      8  F   UNL     1       0.051  -2.760   2.363  0.00  0.00    -0.204 F 
ATOM      9  N   UNL     1       0.057  -4.155  -0.276  0.00  0.00    -0.284 N 
ATOM     10  C   UNL     1       0.054  -4.421  -1.593  0.00  0.00    +0.208 C 
ATOM     11  O   UNL     1       0.067  -5.520  -2.106  0.00  0.00    -0.277 OA
ATOM     12  C   UNL     1       0.033  -3.092  -2.316  0.00  0.00    +0.049 C 
ATOM     13  H   UNL     1       0.070  -4.837   0.414  0.00  0.00    +0.155 HD
ENDROOT
BRANCH  12  14
ATOM     14  N   UNL     1       1.235  -2.938  -3.147  0.00  0.00    +0.391 N 
ATOM     15  H   UNL     1       1.291  -1.990  -3.486  0.00  0.00    -0.084 HD
ATOM     16  H   UNL     1       2.054  -3.148  -2.596  0.00  0.00    -0.084 HD
BRANCH  14  17
ATOM     17  C   UNL     1       1.162  -3.862  -4.287  0.00  0.00    -0.067 C 
ATOM     18  C   UNL     1      -0.008  -3.466  -5.191  0.00  0.00    -0.015 C 
ATOM     19  C   UNL     1      -0.083  -4.428  -6.378  0.00  0.00    -0.002 C 
ATOM     20  C   UNL     1       1.222  -4.359  -7.174  0.00  0.00    +0.000 C 
ATOM     21  C   UNL     1       2.392  -4.754  -6.271  0.00  0.00    +0.002 C 
ATOM     22  C   UNL     1       2.467  -3.793  -5.083  0.00  0.00    -0.028 C 
ATOM     23  C   UNL     1       3.637  -4.188  -4.180  0.00  0.00    +0.006 C 
ENDBRANCH  14  17
ENDBRANCH  12  14
TORSDOF 2
