REMARK  Name = ZINC20244407
REMARK  3 active torsions:
REMARK  status: ('A' for Active; 'I' for Inactive)
REMARK    1  A    between atoms: C_3  and  C_19
REMARK    2  A    between atoms: C_5  and  N_7
REMARK    3  A    between atoms: C_14  and  N_18
REMARK                            x       y       z     vdW  Elec       q    Type
REMARK                         _______ _______ _______ _____ _____    ______ ____
ROOT
ATOM      1  N   UNL     1      -0.083   5.254   0.031  0.00  0.00    -0.202 N 
ATOM      2  C   UNL     1       1.010   6.039   0.031  0.00  0.00    +0.258 C 
ATOM      3  O   UNL     1       2.161   5.652   0.024  0.00  0.00    -0.269 OA
ATOM      4  C   UNL     1       0.573   7.450   0.037  0.00  0.00    +0.052 A 
ATOM      5  C   UNL     1       1.232   8.667   0.037  0.00  0.00    +0.014 A 
ATOM      6  C   UNL     1       0.505   9.850   0.050  0.00  0.00    +0.003 A 
ATOM      7  C   UNL     1      -0.873   9.826   0.063  0.00  0.00    +0.023 A 
ATOM      8  C   UNL     1      -1.558   8.609   0.063  0.00  0.00    +0.038 A 
ATOM      9  C   UNL     1      -0.838   7.416   0.050  0.00  0.00    +0.070 A 
ATOM     10  C   UNL     1      -1.208   5.991   0.046  0.00  0.00    +0.260 C 
ATOM     11  O   UNL     1      -2.342   5.553   0.054  0.00  0.00    -0.269 OA
ENDROOT
BRANCH   1  16
ATOM     12  C   UNL     1      -1.217   1.750   0.017  0.00  0.00    +0.003 A 
ATOM     13  C   UNL     1      -0.013   1.076   0.008  0.00  0.00    +0.019 A 
ATOM     14  C   UNL     1       1.187   1.791   0.000  0.00  0.00    +0.054 A 
ATOM     15  C   UNL     1       1.162   3.186   0.008  0.00  0.00    +0.042 A 
ATOM     16  C   UNL     1      -0.052   3.852   0.023  0.00  0.00    +0.046 A 
ATOM     17  C   UNL     1      -1.241   3.132   0.031  0.00  0.00    +0.024 A 
BRANCH  14  18
ATOM     18  C   UNL     1       2.438   1.094  -0.016  0.00  0.00    +0.099 C 
ATOM     19  N   UNL     1       3.431   0.542  -0.029  0.00  0.00    -0.191 NA
ENDBRANCH  14  18
ENDBRANCH   1  16
BRANCH   8  20
ATOM     20  N   UNL     1      -2.945   8.589   0.076  0.00  0.00    -0.357 N 
ATOM     21  H   UNL     1      -3.481   7.628   0.076  0.00  0.00    +0.142 HD
ATOM     22  H   UNL     1      -3.509   9.533   0.086  0.00  0.00    +0.142 HD
ENDBRANCH   8  20
TORSDOF 3
