REMARK  Name = ZINC39969172
REMARK  6 active torsions:
REMARK  status: ('A' for Active; 'I' for Inactive)
REMARK    1  A    between atoms: C_1  and  C_2
REMARK    2  A    between atoms: C_6  and  C_8
REMARK    3  A    between atoms: C_12  and  S_21
REMARK    4  A    between atoms: N_14  and  C_15
REMARK    5  A    between atoms: S_21  and  C_22
REMARK    6  A    between atoms: C_22  and  C_23
REMARK                            x       y       z     vdW  Elec       q    Type
REMARK                         _______ _______ _______ _____ _____    ______ ____
ROOT
ATOM      1  C   UNL     1       0.032  -2.829   2.479  0.00  0.00    +0.188 C 
ATOM      2  N   UNL     1      -0.631  -2.055   3.561  0.00  0.00    -0.230 NA
ATOM      3  N   UNL     1      -1.015  -3.099   4.525  0.00  0.00    -0.226 NA
ATOM      4  C   UNL     1      -1.430  -4.243   3.683  0.00  0.00    +0.218 C 
ATOM      5  N   UNL     1      -0.760  -4.072   2.380  0.00  0.00    -0.284 N 
ATOM      6  H   UNL     1      -1.443  -1.568   3.213  0.00  0.00    +0.143 HD
ATOM      7  H   UNL     1      -1.775  -2.787   5.111  0.00  0.00    +0.143 HD
ENDROOT
BRANCH   1  13
ATOM      8  C   UNL     1      -2.613  -0.713  -1.205  0.00  0.00    +0.044 C 
ATOM      9  C   UNL     1      -1.284  -1.055  -0.583  0.00  0.00    -0.050 A 
ATOM     10  C   UNL     1      -0.110  -0.670  -1.204  0.00  0.00    +0.003 A 
ATOM     11  C   UNL     1       1.109  -0.985  -0.634  0.00  0.00    +0.001 A 
ATOM     12  C   UNL     1       1.155  -1.683   0.558  0.00  0.00    +0.007 A 
ATOM     13  C   UNL     1      -0.018  -2.067   1.180  0.00  0.00    -0.011 A 
ATOM     14  C   UNL     1      -1.238  -1.749   0.611  0.00  0.00    +0.010 A 
ENDBRANCH   1  13
BRANCH   5  15
ATOM     15  C   UNL     1      -0.856  -4.916   1.271  0.00  0.00    +0.033 A 
ATOM     16  C   UNL     1      -0.057  -4.695   0.156  0.00  0.00    +0.023 A 
ATOM     17  C   UNL     1      -0.154  -5.532  -0.938  0.00  0.00    +0.002 A 
ATOM     18  C   UNL     1      -1.045  -6.588  -0.926  0.00  0.00    +0.000 A 
ATOM     19  C   UNL     1      -1.842  -6.812   0.182  0.00  0.00    +0.002 A 
ATOM     20  C   UNL     1      -1.746  -5.982   1.282  0.00  0.00    +0.023 A 
ENDBRANCH   5  15
BRANCH   4  21
ATOM     21  S   UNL     1      -0.906  -5.801   4.449  0.00  0.00    -0.114 S 
BRANCH  21  22
ATOM     22  C   UNL     1       0.895  -5.637   4.591  0.00  0.00    +0.146 C 
BRANCH  22  23
ATOM     23  C   UNL     1       1.465  -6.881   5.221  0.00  0.00    +0.120 A 
ATOM     24  N   UNL     1       2.808  -6.947   5.418  0.00  0.00    -0.310 N 
ATOM     25  H   UNL     1       3.369  -6.201   5.153  0.00  0.00    +0.170 HD
ATOM     26  C   UNL     1       3.369  -8.042   5.981  0.00  0.00    +0.259 A 
ATOM     27  O   UNL     1       4.571  -8.114   6.164  0.00  0.00    -0.267 OA
ATOM     28  C   UNL     1       2.471  -9.142   6.364  0.00  0.00    +0.065 A 
ATOM     29  C   UNL     1       2.948 -10.313   6.949  0.00  0.00    +0.015 A 
ATOM     30  C   UNL     1       2.062 -11.312   7.288  0.00  0.00    +0.001 A 
ATOM     31  C   UNL     1       0.702 -11.160   7.050  0.00  0.00    +0.002 A 
ATOM     32  C   UNL     1       0.211 -10.012   6.472  0.00  0.00    +0.028 A 
ATOM     33  C   UNL     1       1.089  -8.984   6.120  0.00  0.00    +0.078 A 
ATOM     34  N   UNL     1       0.648  -7.833   5.554  0.00  0.00    -0.233 NA
ENDBRANCH  22  23
ENDBRANCH  21  22
ENDBRANCH   4  21
TORSDOF 5
