REMARK  Name = ZINC41036905
REMARK  6 active torsions:
REMARK  status: ('A' for Active; 'I' for Inactive)
REMARK    1  A    between atoms: C_1  and  C_2
REMARK    2  A    between atoms: C_7  and  O_10
REMARK    3  A    between atoms: O_10  and  C_11
REMARK    4  A    between atoms: C_11  and  C_13
REMARK    5  A    between atoms: C_13  and  N_21
REMARK    6  A    between atoms: C_17  and  C_20
REMARK                            x       y       z     vdW  Elec       q    Type
REMARK                         _______ _______ _______ _____ _____    ______ ____
ROOT
ATOM      1  C   UNL     1      -2.173  -4.306   1.887  0.00  0.00    +0.029 C 
ATOM      2  C   UNL     1      -2.924  -3.737   3.092  0.00  0.00    -0.002 C 
ATOM      3  C   UNL     1      -4.333  -4.331   3.142  0.00  0.00    -0.001 C 
ATOM      4  C   UNL     1      -4.241  -5.853   3.271  0.00  0.00    +0.003 C 
ATOM      5  C   UNL     1      -3.490  -6.422   2.066  0.00  0.00    -0.015 C 
ATOM      6  C   UNL     1      -2.081  -5.828   2.016  0.00  0.00    +0.001 C 
ATOM      7  C   UNL     1      -3.397  -7.944   2.195  0.00  0.00    +0.007 C 
ENDROOT
BRANCH   1   8
ATOM      8  N   UNL     1      -2.894  -3.962   0.653  0.00  0.00    +0.389 N 
ATOM      9  H   UNL     1      -2.399  -4.338  -0.141  0.00  0.00    -0.088 HD
ATOM     10  H   UNL     1      -3.823  -4.354   0.687  0.00  0.00    -0.088 HD
ATOM     11  H   UNL     1      -2.955  -2.959   0.568  0.00  0.00    -0.088 HD
ENDBRANCH   1   8
BRANCH   1  12
ATOM     12  C   UNL     1      -0.785  -3.721   1.837  0.00  0.00    +0.296 C 
ATOM     13  O   UNL     1       0.141  -4.319   2.332  0.00  0.00    -0.252 OA
BRANCH  12  14
ATOM     14  O   UNL     1      -0.578  -2.535   1.243  0.00  0.00    -0.462 OA
BRANCH  14  20
ATOM     15  C   UNL     1      -0.019   1.526   0.010  0.00  0.00    +0.007 C 
ATOM     16  C   UNL     1       0.002  -0.004   0.002  0.00  0.00    -0.011 C 
ATOM     17  C   UNL     1       0.718  -0.497  -1.257  0.00  0.00    +0.003 C 
ATOM     18  C   UNL     1       0.739  -2.027  -1.265  0.00  0.00    +0.004 C 
ATOM     19  C   UNL     1       1.479  -2.534  -0.026  0.00  0.00    +0.044 C 
ATOM     20  C   UNL     1       0.763  -2.041   1.233  0.00  0.00    +0.177 C 
ATOM     21  C   UNL     1       0.742  -0.511   1.242  0.00  0.00    +0.048 C 
ENDBRANCH  14  20
ENDBRANCH  12  14
ENDBRANCH   1  12
TORSDOF 4
