REMARK  Name = ZINC13453546
REMARK  7 active torsions:
REMARK  status: ('A' for Active; 'I' for Inactive)
REMARK    1  A    between atoms: C_1  and  C_2
REMARK    2  A    between atoms: C_3  and  N_15
REMARK    3  A    between atoms: C_4  and  C_7
REMARK    4  A    between atoms: N_15  and  CA_16
REMARK    5  A    between atoms: CA_23  and  C_29
REMARK    6  A    between atoms: C_25  and  C_27
REMARK    7  A    between atoms: C_25  and  C_28
REMARK                            x       y       z     vdW  Elec       q    Type
REMARK                         _______ _______ _______ _____ _____    ______ ____
ROOT
ATOM      1  N   UNL     1      -0.067   1.246  -0.402  0.00  0.00    -0.326 N 
ATOM      2  H   UNL     1      -0.185   0.248  -0.303  0.00  0.00    +0.147 HD
ENDROOT
BRANCH   1   3
ATOM      3  CA  UNL     1      -0.504   1.699  -1.729  0.00  0.00    +0.188 C 
ATOM      4  C   UNL     1      -1.735   0.962  -2.244  0.00  0.00    +0.164 C 
ATOM      5  N   UNL     1      -2.315   2.316  -2.365  0.00  0.00    -0.271 N 
ATOM      6  C   UNL     1      -1.326   2.964  -1.688  0.00  0.00    +0.240 C 
ATOM      7  O   UNL     1      -1.172   4.081  -1.242  0.00  0.00    -0.273 OA
ATOM      8  CA  UNL     1      -2.575   2.780  -3.732  0.00  0.00    +0.206 C 
ATOM      9  C   UNL     1      -2.818   1.595  -4.706  0.00  0.00    +0.042 C 
ATOM     10  S   UNL     1      -1.607   0.396  -3.989  0.00  0.00    -0.127 S 
ATOM     11  C   UNL     1      -2.456   1.966  -6.146  0.00  0.00    +0.025 C 
ATOM     12  C   UNL     1      -4.252   1.071  -4.610  0.00  0.00    +0.025 C 
BRANCH   8  13
ATOM     13  C   UNL     1      -3.791   3.670  -3.726  0.00  0.00    +0.377 C 
ATOM     14  O   UNL     1      -4.564   3.631  -2.798  0.00  0.00    -0.244 OA
ATOM     15  OXT UNL     1      -4.017   4.505  -4.752  0.00  0.00    -0.244 OA
ENDBRANCH   8  13
ENDBRANCH   1   3
BRANCH   1  18
ATOM     16  C   UNL     1       2.500  -0.255  -1.385  0.00  0.00    +0.091 C 
ATOM     17  C   UNL     1       2.405   1.003  -0.561  0.00  0.00    +0.156 A 
ATOM     18  C   UNL     1       1.266   1.621  -0.156  0.00  0.00    +0.098 A 
ATOM     19  C   UNL     1       1.763   2.782   0.598  0.00  0.00    +0.137 A 
ATOM     20  N   UNL     1       3.071   2.693   0.547  0.00  0.00    -0.076 NA
ATOM     21  O   UNL     1       3.429   1.729  -0.085  0.00  0.00    -0.357 OA
BRANCH  19  22
ATOM     22  C   UNL     1       0.958   3.828   1.275  0.00  0.00    +0.042 A 
ATOM     23  C   UNL     1       1.237   5.176   1.056  0.00  0.00    +0.052 A 
ATOM     24  C   UNL     1       0.479   6.146   1.684  0.00  0.00    +0.021 A 
ATOM     25  C   UNL     1      -0.546   5.782   2.538  0.00  0.00    +0.003 A 
ATOM     26  C   UNL     1      -0.823   4.446   2.764  0.00  0.00    +0.021 A 
ATOM     27  C   UNL     1      -0.076   3.466   2.137  0.00  0.00    +0.052 A 
ATOM     28 CL   UNL     1      -0.426   1.790   2.422  0.00  0.00    -0.083 Cl
ATOM     29 CL   UNL     1       2.528   5.636  -0.010  0.00  0.00    -0.083 Cl
ENDBRANCH  19  22
ENDBRANCH   1  18
TORSDOF 4
