REMARK  Name = ZINC22533996
REMARK  10 active torsions:
REMARK  status: ('A' for Active; 'I' for Inactive)
REMARK    1  A    between atoms: C_1  and  C_2
REMARK    2  A    between atoms: C_2  and  C_4
REMARK    3  A    between atoms: C_2  and  S_14
REMARK    4  A    between atoms: N_6  and  C_7
REMARK    5  A    between atoms: C_7  and  C_8
REMARK    6  A    between atoms: C_7  and  C_9
REMARK    7  A    between atoms: C_7  and  C_11
REMARK    8  A    between atoms: C_11  and  C_12
REMARK    9  A    between atoms: C_11  and  C_13
REMARK   10  A    between atoms: S_14  and  C_15
REMARK                            x       y       z     vdW  Elec       q    Type
REMARK                         _______ _______ _______ _____ _____    ______ ____
ROOT
ATOM      1  C   UNL     1       2.563  -0.181  -1.206  0.00  0.00    +0.192 A 
ATOM      2  N   UNL     1       2.889   0.504  -0.116  0.00  0.00    -0.207 NA
ATOM      3  C   UNL     1       4.064   1.096   0.017  0.00  0.00    +0.129 A 
ATOM      4  C   UNL     1       5.014   1.002  -1.038  0.00  0.00    +0.051 A 
ATOM      5  C   UNL     1       6.361   1.574  -1.110  0.00  0.00    -0.025 A 
ATOM      6  C   UNL     1       7.066   1.336  -2.234  0.00  0.00    -0.004 A 
ATOM      7  S   UNL     1       5.999   0.351  -3.251  0.00  0.00    -0.073 S 
ATOM      8  C   UNL     1       4.601   0.261  -2.163  0.00  0.00    +0.115 A 
ATOM      9  N   UNL     1       3.412  -0.306  -2.219  0.00  0.00    -0.214 NA
ATOM     10  C   UNL     1       8.454   1.806  -2.551  0.00  0.00    +0.043 C 
ATOM     11  C   UNL     1       8.827   2.917  -1.560  0.00  0.00    +0.005 C 
ATOM     12  C   UNL     1       8.475   2.452  -0.144  0.00  0.00    +0.005 C 
ATOM     13  C   UNL     1       6.956   2.404   0.024  0.00  0.00    +0.037 C 
ATOM     14  N   UNL     1       4.365   1.800   1.169  0.00  0.00    -0.343 N 
ATOM     15  H   UNL     1       3.831   1.672   1.969  0.00  0.00    +0.144 HD
ATOM     16  H   UNL     1       5.110   2.421   1.177  0.00  0.00    +0.144 HD
ENDROOT
BRANCH   1  17
ATOM     17  S   UNL     1       0.978  -0.942  -1.308  0.00  0.00    -0.073 S 
BRANCH  17  19
ATOM     18  C   UNL     1      -0.028   1.001   0.333  0.00  0.00    +0.029 C 
ATOM     19  C   UNL     1       0.183  -0.513   0.265  0.00  0.00    +0.137 C 
BRANCH  19  20
ATOM     20  C   UNL     1      -1.149  -1.210   0.362  0.00  0.00    +0.227 C 
ATOM     21  O   UNL     1      -1.694  -1.619  -0.641  0.00  0.00    -0.275 OA
ATOM     22  N   UNL     1      -1.735  -1.380   1.564  0.00  0.00    -0.296 N 
ATOM     23  H   UNL     1      -1.299  -1.053   2.367  0.00  0.00    +0.150 HD
BRANCH  22  24
ATOM     24  C   UNL     1      -3.030  -2.059   1.659  0.00  0.00    +0.121 C 
ATOM     25  C   UNL     1      -2.903  -3.479   1.105  0.00  0.00    +0.048 C 
BRANCH  24  26
ATOM     26  C   UNL     1      -3.469  -2.119   3.123  0.00  0.00    +0.020 C 
ATOM     27  C   UNL     1      -3.716  -0.700   3.640  0.00  0.00    +0.010 C 
ATOM     28  C   UNL     1      -4.758  -2.935   3.236  0.00  0.00    +0.010 C 
ENDBRANCH  24  26
BRANCH  24  29
ATOM     29  C   UNL     1      -4.031  -1.315   0.876  0.00  0.00    +0.088 C 
ATOM     30  N   UNL     1      -4.804  -0.742   0.273  0.00  0.00    -0.194 NA
ENDBRANCH  24  29
ENDBRANCH  22  24
ENDBRANCH  19  20
ENDBRANCH  17  19
ENDBRANCH   1  17
TORSDOF 6
