REMARK  Name = ZINC49645608
REMARK  6 active torsions:
REMARK  status: ('A' for Active; 'I' for Inactive)
REMARK    1  A    between atoms: C_1  and  C_2
REMARK    2  A    between atoms: C_2  and  C_3
REMARK    3  A    between atoms: C_4  and  C_19
REMARK    4  A    between atoms: N_8  and  S_9
REMARK    5  A    between atoms: S_9  and  C_12
REMARK    6  A    between atoms: C_12  and  C_13
REMARK                            x       y       z     vdW  Elec       q    Type
REMARK                         _______ _______ _______ _____ _____    ______ ____
ROOT
ATOM      1  S   UNL     1       4.524  -1.825   4.022  0.00  0.00    +0.072 S 
ATOM      2  O   UNL     1       4.162  -0.814   4.953  0.00  0.00    -0.151 OA
ATOM      3  O   UNL     1       3.971  -3.130   4.118  0.00  0.00    -0.151 OA
ENDROOT
BRANCH   1   9
ATOM      4  C   UNL     1       0.731  -0.503   1.223  0.00  0.00    +0.027 A 
ATOM      5  C   UNL     1       0.045  -0.840   2.315  0.00  0.00    +0.009 A 
ATOM      6  S   UNL     1       1.342  -1.349   3.432  0.00  0.00    -0.053 S 
ATOM      7  C   UNL     1       2.728  -1.070   2.339  0.00  0.00    +0.191 A 
ATOM      8  N   UNL     1       2.090  -0.615   1.205  0.00  0.00    -0.336 N 
ATOM      9  N   UNL     1       4.007  -1.254   2.556  0.00  0.00    -0.108 NA
ATOM     10  C   UNL     1      -1.444  -0.800   2.548  0.00  0.00    +0.053 C 
ATOM     11  H   UNL     1       2.597  -0.376   0.413  0.00  0.00    +0.168 HD
BRANCH   4  13
ATOM     12  C   UNL     1      -0.019   1.526   0.010  0.00  0.00    +0.010 C 
ATOM     13  C   UNL     1       0.002  -0.004   0.002  0.00  0.00    +0.050 C 
ENDBRANCH   4  13
ENDBRANCH   1   9
BRANCH   1  14
ATOM     14  C   UNL     1       6.330  -1.921   3.874  0.00  0.00    +0.196 C 
BRANCH  14  15
ATOM     15  C   UNL     1       6.922  -2.442   5.185  0.00  0.00    +0.009 C 
ATOM     16  C   UNL     1       6.669  -1.424   6.301  0.00  0.00    -0.014 C 
ATOM     17  C   UNL     1       7.333  -1.915   7.590  0.00  0.00    -0.082 C 
ATOM     18  N   UNL     1       8.777  -2.060   7.376  0.00  0.00    +0.379 N 
ATOM     19  C   UNL     1       9.029  -3.087   6.357  0.00  0.00    -0.082 C 
ATOM     20  C   UNL     1       8.431  -2.642   5.021  0.00  0.00    -0.014 C 
ATOM     21  H   UNL     1       9.161  -1.180   7.067  0.00  0.00    -0.086 HD
ATOM     22  H   UNL     1       9.219  -2.332   8.242  0.00  0.00    -0.086 HD
ENDBRANCH  14  15
ENDBRANCH   1  14
TORSDOF 4
