REMARK  Name = ZINC39686534
REMARK  9 active torsions:
REMARK  status: ('A' for Active; 'I' for Inactive)
REMARK    1  A    between atoms: C_1  and  C_2
REMARK    2  A    between atoms: C_2  and  C_4
REMARK    3  A    between atoms: C_2  and  N_13
REMARK    4  A    between atoms: C_4  and  C_5
REMARK    5  A    between atoms: C_10  and  O_11
REMARK    6  A    between atoms: O_11  and  C_12
REMARK    7  A    between atoms: C_14  and  C_16
REMARK    8  A    between atoms: C_27  and  C_29
REMARK    9  A    between atoms: C_29  and  C_30
REMARK                            x       y       z     vdW  Elec       q    Type
REMARK                         _______ _______ _______ _____ _____    ______ ____
ROOT
ATOM      1  C   UNL     1      -3.465  -1.164  -1.134  0.00  0.00    +0.100 C 
ATOM      2  C   UNL     1      -3.486  -2.652  -0.717  0.00  0.00    +0.121 C 
ATOM      3  N   UNL     1      -4.545  -3.261  -1.556  0.00  0.00    -0.300 N 
ATOM      4  C   UNL     1      -4.383  -2.614  -2.881  0.00  0.00    +0.115 C 
ATOM      5  C   UNL     1      -4.054  -1.143  -2.554  0.00  0.00    -0.004 C 
ATOM      6  C   UNL     1      -5.324  -0.298  -2.587  0.00  0.00    -0.010 C 
ATOM      7  C   UNL     1      -5.859  -0.246  -4.021  0.00  0.00    -0.082 C 
ATOM      8  N   UNL     1      -4.840   0.331  -4.905  0.00  0.00    +0.379 N 
ATOM      9  C   UNL     1      -3.656  -0.537  -4.939  0.00  0.00    -0.082 C 
ATOM     10  C   UNL     1      -3.028  -0.601  -3.545  0.00  0.00    -0.010 C 
ATOM     11  C   UNL     1      -5.450  -4.192  -1.197  0.00  0.00    +0.220 C 
ATOM     12  O   UNL     1      -6.260  -4.595  -2.006  0.00  0.00    -0.275 OA
ATOM     13  H   UNL     1      -5.216   0.421  -5.837  0.00  0.00    -0.086 HD
ATOM     14  H   UNL     1      -4.576   1.243  -4.563  0.00  0.00    -0.086 HD
ENDROOT
BRANCH   1  16
ATOM     15  N   UNL     1      -1.812   0.661  -0.903  0.00  0.00    -0.312 N 
ATOM     16  C   UNL     1      -2.051  -0.643  -1.145  0.00  0.00    +0.218 C 
ATOM     17  O   UNL     1      -1.128  -1.397  -1.371  0.00  0.00    -0.275 OA
ATOM     18  H   UNL     1      -2.550   1.264  -0.722  0.00  0.00    +0.149 HD
BRANCH  15  20
ATOM     19  C   UNL     1      -0.031   1.511  -2.348  0.00  0.00    +0.028 C 
ATOM     20  C   UNL     1      -0.438   1.169  -0.913  0.00  0.00    +0.074 C 
BRANCH  20  21
ATOM     21  C   UNL     1      -0.351   2.425  -0.045  0.00  0.00    +0.060 C 
BRANCH  21  22
ATOM     22  C   UNL     1      -0.632   2.064   1.391  0.00  0.00    -0.004 A 
ATOM     23  C   UNL     1      -1.910   2.194   1.899  0.00  0.00    +0.007 A 
ATOM     24  C   UNL     1      -2.168   1.864   3.217  0.00  0.00    +0.000 A 
ATOM     25  C   UNL     1      -1.148   1.401   4.029  0.00  0.00    +0.004 A 
ATOM     26  C   UNL     1       0.131   1.269   3.525  0.00  0.00    +0.046 A 
ATOM     27  C   UNL     1       0.391   1.595   2.202  0.00  0.00    +0.123 A 
BRANCH  27  28
ATOM     28  O   UNL     1       1.648   1.460   1.702  0.00  0.00    -0.495 OA
ATOM     29  C   UNL     1       2.652   0.972   2.594  0.00  0.00    +0.277 C 
ENDBRANCH  27  28
ENDBRANCH  21  22
ENDBRANCH  20  21
ENDBRANCH  15  20
ENDBRANCH   1  16
BRANCH  11  30
ATOM     30  C   UNL     1      -5.457  -4.734   0.209  0.00  0.00    +0.131 C 
BRANCH  30  31
ATOM     31  C   UNL     1      -6.558  -5.753   0.350  0.00  0.00    -0.039 A 
ATOM     32  C   UNL     1      -7.823  -5.355   0.739  0.00  0.00    +0.005 A 
ATOM     33  C   UNL     1      -8.833  -6.290   0.868  0.00  0.00    +0.020 A 
ATOM     34  C   UNL     1      -8.577  -7.624   0.608  0.00  0.00    +0.041 A 
ATOM     35  C   UNL     1      -7.311  -8.022   0.219  0.00  0.00    +0.020 A 
ATOM     36  C   UNL     1      -6.303  -7.086   0.085  0.00  0.00    +0.005 A 
ATOM     37 CL   UNL     1      -9.845  -8.799   0.770  0.00  0.00    -0.084 Cl
ENDBRANCH  30  31
ENDBRANCH  11  30
TORSDOF 7
