REMARK  Name = ZINC43689442
REMARK  7 active torsions:
REMARK  status: ('A' for Active; 'I' for Inactive)
REMARK    1  A    between atoms: C_3  and  N_19
REMARK    2  A    between atoms: C_6  and  O_7
REMARK    3  A    between atoms: O_7  and  C_8
REMARK    4  A    between atoms: C_8  and  C_9
REMARK    5  A    between atoms: C_11  and  C_14
REMARK    6  A    between atoms: C_15  and  C_16
REMARK    7  A    between atoms: C_16  and  N_17
REMARK                            x       y       z     vdW  Elec       q    Type
REMARK                         _______ _______ _______ _____ _____    ______ ____
ROOT
ATOM      1  C   UNL     1      -1.070  -2.126   0.001  0.00  0.00    +0.271 C 
ENDROOT
BRANCH   1   2
ATOM      2  C   UNL     1      -2.454  -2.722   0.012  0.00  0.00    +0.028 A 
ATOM      3  C   UNL     1      -3.241  -3.057  -1.035  0.00  0.00    +0.031 A 
ATOM      4  C   UNL     1      -4.500  -3.600  -0.788  0.00  0.00    +0.032 A 
ATOM      5  C   UNL     1      -4.890  -3.774   0.513  0.00  0.00    +0.062 A 
ATOM      6  S   UNL     1      -3.468  -3.173   1.409  0.00  0.00    -0.097 S 
BRANCH   4   7
ATOM      7  C   UNL     1      -5.364  -3.968  -1.868  0.00  0.00    -0.068 C 
ATOM      8  C   UNL     1      -6.074  -4.270  -2.754  0.00  0.00    -0.117 C 
BRANCH   8   9
ATOM      9  C   UNL     1      -6.963  -4.647  -3.864  0.00  0.00    +0.005 C 
BRANCH   9  10
ATOM     10  N   UNL     1      -8.216  -5.191  -3.325  0.00  0.00    +0.385 N 
ATOM     11  H   UNL     1      -8.826  -5.449  -4.086  0.00  0.00    -0.089 HD
ATOM     12  H   UNL     1      -8.016  -6.004  -2.763  0.00  0.00    -0.089 HD
ATOM     13  H   UNL     1      -8.668  -4.491  -2.755  0.00  0.00    -0.089 HD
ENDBRANCH   9  10
ENDBRANCH   8   9
ENDBRANCH   4   7
ENDBRANCH   1   2
BRANCH   1  14
ATOM     14  O   UNL     1      -1.165  -0.700   0.010  0.00  0.00    -0.487 OA
BRANCH  14  20
ATOM     15  C   UNL     1      -0.017   1.383   0.010  0.00  0.00    +0.048 A 
ATOM     16  C   UNL     1       1.171   2.090   0.002  0.00  0.00    +0.039 A 
ATOM     17  C   UNL     1       2.377   1.417  -0.013  0.00  0.00    +0.161 A 
ATOM     18  C   UNL     1       2.400   0.032  -0.021  0.00  0.00    +0.157 A 
ATOM     19  C   UNL     1       1.214  -0.679  -0.014  0.00  0.00    +0.086 A 
ATOM     20  C   UNL     1       0.002  -0.004   0.002  0.00  0.00    +0.124 A 
ATOM     21  F   UNL     1       3.581  -0.624  -0.035  0.00  0.00    -0.203 F 
BRANCH  17  22
ATOM     22  N   UNL     1       3.647   2.177  -0.022  0.00  0.00    +0.059 N 
ATOM     23  O   UNL     1       3.629   3.386  -0.015  0.00  0.00    -0.126 OA
ATOM     24  O   UNL     1       4.704   1.589  -0.035  0.00  0.00    -0.126 OA
ENDBRANCH  17  22
ENDBRANCH  14  20
ENDBRANCH   1  14
TORSDOF 7
