REMARK  Name = ZINC49986759
REMARK  6 active torsions:
REMARK  status: ('A' for Active; 'I' for Inactive)
REMARK    1  A    between atoms: C_1  and  C_2
REMARK    2  A    between atoms: C_4  and  C_20
REMARK    3  A    between atoms: C_6  and  N_8
REMARK    4  A    between atoms: N_8  and  C_9
REMARK    5  A    between atoms: C_12  and  C_16
REMARK    6  A    between atoms: N_17  and  O_18
REMARK                            x       y       z     vdW  Elec       q    Type
REMARK                         _______ _______ _______ _____ _____    ______ ____
ROOT
ATOM      1  N   UNL     1       0.052  -2.797   2.391  0.00  0.00    -0.290 N 
ATOM      2  C   UNL     1      -0.036  -4.259   2.383  0.00  0.00    +0.137 C 
ATOM      3  C   UNL     1       0.153  -2.113   3.598  0.00  0.00    +0.103 A 
ATOM      4  C   UNL     1       1.406  -1.752   4.081  0.00  0.00    +0.053 A 
ATOM      5  C   UNL     1       1.490  -1.066   5.293  0.00  0.00    +0.022 A 
ATOM      6  C   UNL     1       0.301  -0.771   5.971  0.00  0.00    +0.029 A 
ATOM      7  C   UNL     1      -0.901  -1.164   5.423  0.00  0.00    +0.085 A 
ATOM      8  N   UNL     1      -0.945  -1.807   4.272  0.00  0.00    -0.349 N 
ATOM      9  H   UNL     1      -1.806  -2.067   3.911  0.00  0.00    +0.167 HD
ENDROOT
BRANCH   1  15
ATOM     10  C   UNL     1       0.050  -2.811  -2.524  0.00  0.00    +0.044 C 
ATOM     11  C   UNL     1       0.033  -2.070  -1.212  0.00  0.00    -0.048 A 
ATOM     12  C   UNL     1       0.000  -0.688  -1.200  0.00  0.00    +0.006 A 
ATOM     13  C   UNL     1      -0.016  -0.004   0.003  0.00  0.00    -0.048 A 
ATOM     14  C   UNL     1       0.001  -0.700   1.195  0.00  0.00    +0.026 A 
ATOM     15  C   UNL     1       0.034  -2.089   1.186  0.00  0.00    +0.035 A 
ATOM     16  C   UNL     1       0.045  -2.773  -0.023  0.00  0.00    +0.026 A 
ATOM     17  C   UNL     1      -0.051   1.503   0.011  0.00  0.00    +0.044 C 
ENDBRANCH   1  15
BRANCH   5  18
ATOM     18  C   UNL     1       2.803  -0.662   5.848  0.00  0.00    +0.163 C 
ATOM     19  N   UNL     1       3.896  -0.946   5.204  0.00  0.00    -0.072 NA
ATOM     20  N   UNL     1       2.866   0.018   7.052  0.00  0.00    -0.340 N 
ATOM     21  H   UNL     1       2.050   0.230   7.533  0.00  0.00    +0.144 HD
ATOM     22  H   UNL     1       3.726   0.283   7.415  0.00  0.00    +0.144 HD
BRANCH  19  23
ATOM     23  O   UNL     1       5.151  -0.559   5.734  0.00  0.00    -0.408 OA
ATOM     24  H   UNL     1       5.905  -0.814   5.185  0.00  0.00    +0.328 HD
ENDBRANCH  19  23
ENDBRANCH   5  18
TORSDOF 3
