REMARK  Name = ZINC40694309
REMARK  3 active torsions:
REMARK  status: ('A' for Active; 'I' for Inactive)
REMARK    1  A    between atoms: N_4  and  C_7
REMARK    2  A    between atoms: N_10  and  C_13
REMARK    3  A    between atoms: C_20  and  O_22
REMARK                            x       y       z     vdW  Elec       q    Type
REMARK                         _______ _______ _______ _____ _____    ______ ____
ROOT
ATOM      1  C   UNL     1       2.861  -0.625  -2.284  0.00  0.00    -0.066 C 
ATOM      2  C   UNL     1       3.000  -2.140  -2.116  0.00  0.00    +0.000 C 
ATOM      3  C   UNL     1       3.842  -2.700  -3.265  0.00  0.00    +0.083 C 
ATOM      4  N   UNL     1       5.166  -2.065  -3.258  0.00  0.00    -0.295 NA
ATOM      5  C   UNL     1       5.060  -0.615  -3.466  0.00  0.00    +0.083 C 
ATOM      6  C   UNL     1       4.255   0.007  -2.323  0.00  0.00    +0.000 C 
ENDROOT
BRANCH   1  10
ATOM      7  C   UNL     1      -0.134   1.346   0.019  0.00  0.00    -0.004 C 
ATOM      8  C   UNL     1       1.259   1.971  -0.097  0.00  0.00    -0.019 C 
ATOM      9  C   UNL     1       1.977   1.381  -1.312  0.00  0.00    -0.078 C 
ATOM     10  N   UNL     1       2.103  -0.073  -1.153  0.00  0.00    +0.382 N 
ATOM     11  C   UNL     1       0.770  -0.687  -1.113  0.00  0.00    -0.078 C 
ATOM     12  C   UNL     1       0.006  -0.177   0.111  0.00  0.00    -0.019 C 
ATOM     13  H   UNL     1       2.591  -0.275  -0.293  0.00  0.00    -0.081 HD
ENDBRANCH   1  10
BRANCH   4  14
ATOM     14  C   UNL     1       6.048  -2.677  -4.261  0.00  0.00    +0.108 C 
ATOM     15  C   UNL     1       5.416  -2.486  -5.657  0.00  0.00    +0.187 C 
ATOM     16  S   UNL     1       5.865  -4.077  -6.477  0.00  0.00    -0.027 S 
ATOM     17  O   UNL     1       7.197  -3.995  -6.966  0.00  0.00    -0.174 OA
ATOM     18  O   UNL     1       4.816  -4.469  -7.352  0.00  0.00    -0.174 OA
ATOM     19  C   UNL     1       5.832  -5.138  -4.967  0.00  0.00    +0.198 C 
ATOM     20  C   UNL     1       6.274  -4.134  -3.884  0.00  0.00    +0.154 C 
BRANCH  20  21
ATOM     21  O   UNL     1       7.666  -4.328  -3.627  0.00  0.00    -0.389 OA
ATOM     22  H   UNL     1       7.897  -5.234  -3.379  0.00  0.00    +0.210 HD
ENDBRANCH  20  21
ENDBRANCH   4  14
TORSDOF 3
