REMARK  Name = ZINC67577538
REMARK  9 active torsions:
REMARK  status: ('A' for Active; 'I' for Inactive)
REMARK    1  A    between atoms: C_1  and  C_2
REMARK    2  A    between atoms: N_6  and  C_8
REMARK    3  A    between atoms: C_11  and  N_14
REMARK    4  A    between atoms: N_17  and  C_18
REMARK    5  A    between atoms: C_18  and  C_19
REMARK    6  A    between atoms: C_19  and  C_21
REMARK    7  A    between atoms: C_19  and  O_29
REMARK    8  A    between atoms: C_21  and  N_22
REMARK    9  A    between atoms: C_25  and  C_28
REMARK                            x       y       z     vdW  Elec       q    Type
REMARK                         _______ _______ _______ _____ _____    ______ ____
ROOT
ATOM      1  N   UNL     1       5.468  -4.495   3.768  0.00  0.00    -0.269 N 
ATOM      2  C   UNL     1       5.980  -5.628   3.247  0.00  0.00    +0.304 C 
ATOM      3  O   UNL     1       5.838  -5.872   2.065  0.00  0.00    -0.253 OA
ATOM      4  N   UNL     1       6.650  -6.490   4.038  0.00  0.00    -0.297 N 
ATOM      5  H   UNL     1       5.646  -4.263   4.693  0.00  0.00    +0.156 HD
ATOM      6  H   UNL     1       6.763  -6.295   4.981  0.00  0.00    +0.150 HD
ENDROOT
BRANCH   1  10
ATOM      7  C   UNL     1       3.123  -1.985   1.402  0.00  0.00    +0.030 A 
ATOM      8  C   UNL     1       3.088  -3.359   1.203  0.00  0.00    +0.025 A 
ATOM      9  C   UNL     1       3.865  -4.189   1.986  0.00  0.00    +0.025 A 
ATOM     10  C   UNL     1       4.681  -3.651   2.973  0.00  0.00    +0.035 A 
ATOM     11  C   UNL     1       4.716  -2.277   3.171  0.00  0.00    +0.025 A 
ATOM     12  C   UNL     1       3.944  -1.446   2.384  0.00  0.00    +0.025 A 
BRANCH   7  17
ATOM     13  C   UNL     1      -0.716  -0.573  -1.350  0.00  0.00    +0.009 C 
ATOM     14  C   UNL     1       0.759  -0.311  -1.038  0.00  0.00    +0.005 C 
ATOM     15  C   UNL     1       0.902   0.713   0.118  0.00  0.00    +0.023 C 
ATOM     16  C   UNL     1       2.282   0.327   0.707  0.00  0.00    +0.105 C 
ATOM     17  N   UNL     1       2.337  -1.143   0.608  0.00  0.00    -0.330 N 
ATOM     18  C   UNL     1       1.429  -1.579  -0.468  0.00  0.00    +0.108 C 
ENDBRANCH   7  17
ENDBRANCH   1  10
BRANCH   4  19
ATOM     19  C   UNL     1       7.206  -7.722   3.472  0.00  0.00    +0.135 C 
BRANCH  19  20
ATOM     20  C   UNL     1       7.911  -8.516   4.573  0.00  0.00    +0.115 C 
BRANCH  20  21
ATOM     21  O   UNL     1       6.950  -8.945   5.540  0.00  0.00    -0.392 OA
ATOM     22  H   UNL     1       6.255  -9.512   5.180  0.00  0.00    +0.210 HD
ENDBRANCH  20  21
BRANCH  20  23
ATOM     23  C   UNL     1       8.597  -9.738   3.960  0.00  0.00    -0.046 C 
BRANCH  23  24
ATOM     24  N   UNL     1       9.272 -10.503   5.018  0.00  0.00    +0.381 N 
ATOM     25  C   UNL     1       9.791 -11.756   4.458  0.00  0.00    -0.078 C 
ATOM     26  C   UNL     1      10.424 -12.593   5.572  0.00  0.00    -0.016 C 
ATOM     27  C   UNL     1      11.570 -11.803   6.209  0.00  0.00    -0.018 C 
ATOM     28  C   UNL     1      11.031 -10.465   6.723  0.00  0.00    -0.016 C 
ATOM     29  C   UNL     1      10.376  -9.707   5.566  0.00  0.00    -0.078 C 
ATOM     30  C   UNL     1      12.156 -12.601   7.376  0.00  0.00    +0.007 C 
ATOM     31  H   UNL     1       8.613 -10.712   5.753  0.00  0.00    -0.082 HD
ENDBRANCH  23  24
ENDBRANCH  20  23
ENDBRANCH  19  20
ENDBRANCH   4  19
TORSDOF 7
