REMARK  Name = ZINC64375950
REMARK  7 active torsions:
REMARK  status: ('A' for Active; 'I' for Inactive)
REMARK    1  A    between atoms: C_6  and  S_7
REMARK    2  A    between atoms: S_7  and  N_10
REMARK    3  A    between atoms: N_10  and  N_11
REMARK    4  A    between atoms: N_14  and  C_15
REMARK    5  A    between atoms: C_15  and  C_16
REMARK    6  A    between atoms: C_16  and  C_17
REMARK    7  A    between atoms: C_17  and  N_18
REMARK                            x       y       z     vdW  Elec       q    Type
REMARK                         _______ _______ _______ _____ _____    ______ ____
ROOT
ATOM      1  N   UNL     1      -1.099  -1.855  -2.428  0.00  0.00    -0.216 N 
ATOM      2  C   UNL     1      -1.562  -2.930  -3.097  0.00  0.00    +0.315 C 
ATOM      3  O   UNL     1      -0.825  -3.544  -3.844  0.00  0.00    -0.251 OA
ATOM      4  N   UNL     1      -2.841  -3.324  -2.938  0.00  0.00    -0.298 N 
ATOM      5  H   UNL     1      -0.179  -1.572  -2.542  0.00  0.00    +0.172 HD
ATOM      6  H   UNL     1      -3.429  -2.833  -2.341  0.00  0.00    +0.150 HD
ENDROOT
BRANCH   1   7
ATOM      7  N   UNL     1      -1.948  -1.147  -1.567  0.00  0.00    -0.107 NA
ATOM      8  H   UNL     1      -2.792  -0.799  -1.896  0.00  0.00    +0.172 HD
BRANCH   7   9
ATOM      9  S   UNL     1      -1.512  -0.905   0.012  0.00  0.00    +0.074 S 
ATOM     10  O   UNL     1      -1.219  -2.186   0.553  0.00  0.00    -0.152 OA
ATOM     11  O   UNL     1      -2.492  -0.046   0.577  0.00  0.00    -0.152 OA
BRANCH   9  17
ATOM     12  C   UNL     1      -0.017   1.378   0.010  0.00  0.00    +0.030 A 
ATOM     13  C   UNL     1       1.171   2.086   0.002  0.00  0.00    +0.023 A 
ATOM     14  C   UNL     1       2.378   1.412  -0.013  0.00  0.00    +0.059 A 
ATOM     15  C   UNL     1       2.397   0.027  -0.021  0.00  0.00    +0.061 A 
ATOM     16  C   UNL     1       1.208  -0.680  -0.013  0.00  0.00    +0.050 A 
ATOM     17  C   UNL     1       0.002  -0.004   0.002  0.00  0.00    +0.108 A 
ATOM     18 CL   UNL     1       3.912  -0.821  -0.040  0.00  0.00    -0.082 Cl
ATOM     19 CL   UNL     1       3.869   2.301  -0.023  0.00  0.00    -0.082 Cl
ENDBRANCH   9  17
ENDBRANCH   7   9
ENDBRANCH   1   7
BRANCH   4  20
ATOM     20  C   UNL     1      -3.344  -4.492  -3.665  0.00  0.00    +0.107 C 
BRANCH  20  21
ATOM     21  C   UNL     1      -4.814  -4.721  -3.308  0.00  0.00    +0.040 C 
BRANCH  21  22
ATOM     22  C   UNL     1      -5.338  -5.941  -4.067  0.00  0.00    +0.124 C 
BRANCH  22  23
ATOM     23  N   UNL     1      -6.746  -6.161  -3.725  0.00  0.00    -0.338 N 
ATOM     24  C   UNL     1      -7.222  -6.929  -2.697  0.00  0.00    +0.104 A 
ATOM     25  C   UNL     1      -8.566  -6.853  -2.744  0.00  0.00    +0.101 A 
ATOM     26  N   UNL     1      -8.901  -6.061  -3.773  0.00  0.00    -0.352 N 
ATOM     27  C   UNL     1      -7.816  -5.639  -4.362  0.00  0.00    +0.173 A 
ATOM     28  H   UNL     1      -9.807  -5.835  -4.036  0.00  0.00    +0.166 HD
ENDBRANCH  22  23
ENDBRANCH  21  22
ENDBRANCH  20  21
ENDBRANCH   4  20
TORSDOF 7
