REMARK  Name = ZINC37301644
REMARK  6 active torsions:
REMARK  status: ('A' for Active; 'I' for Inactive)
REMARK    1  A    between atoms: C_1  and  C_2
REMARK    2  A    between atoms: C_2  and  C_4
REMARK    3  A    between atoms: C_2  and  N_13
REMARK    4  A    between atoms: N_13  and  C_14
REMARK    5  A    between atoms: C_14  and  C_16
REMARK    6  A    between atoms: C_14  and  C_17
REMARK                            x       y       z     vdW  Elec       q    Type
REMARK                         _______ _______ _______ _____ _____    ______ ____
ROOT
ATOM      1  C   UNL     1      -0.025   1.545   0.087  0.00  0.00    -0.006 C 
ATOM      2  C   UNL     1       0.117   0.025  -0.026  0.00  0.00    -0.006 C 
ENDROOT
BRANCH   2   3
ATOM      3  C   UNL     1       0.907  -0.315  -1.263  0.00  0.00    +0.092 A 
ATOM      4  C   UNL     1       0.376  -0.713  -2.427  0.00  0.00    +0.051 A 
ATOM      5  C   UNL     1       1.505  -0.929  -3.339  0.00  0.00    +0.020 A 
ATOM      6  C   UNL     1       1.621  -1.339  -4.667  0.00  0.00    +0.011 A 
ATOM      7  C   UNL     1       2.859  -1.443  -5.238  0.00  0.00    +0.001 A 
ATOM      8  C   UNL     1       3.999  -1.144  -4.505  0.00  0.00    +0.004 A 
ATOM      9  C   UNL     1       3.904  -0.738  -3.192  0.00  0.00    +0.047 A 
ATOM     10  C   UNL     1       2.655  -0.625  -2.592  0.00  0.00    +0.135 A 
ATOM     11  O   UNL     1       2.247  -0.258  -1.361  0.00  0.00    -0.461 OA
ENDBRANCH   2   3
BRANCH   2  12
ATOM     12  N   UNL     1       0.817  -0.489   1.159  0.00  0.00    +0.390 N 
ATOM     13  H   UNL     1       1.765  -0.142   1.167  0.00  0.00    -0.084 HD
ATOM     14  H   UNL     1       0.339  -0.182   1.992  0.00  0.00    -0.084 HD
BRANCH  12  15
ATOM     15  C   UNL     1       0.834  -1.958   1.118  0.00  0.00    -0.035 C 
ATOM     16  C   UNL     1      -0.595  -2.488   1.255  0.00  0.00    -0.008 C 
BRANCH  15  17
ATOM     17  C   UNL     1       1.675  -2.482   2.253  0.00  0.00    -0.010 A 
ATOM     18  C   UNL     1       2.620  -3.455   2.237  0.00  0.00    +0.026 A 
ATOM     19  C   UNL     1       3.273  -3.774   3.413  0.00  0.00    +0.023 A 
ATOM     20  C   UNL     1       2.949  -3.105   4.547  0.00  0.00    +0.046 A 
ATOM     21  S   UNL     1       1.691  -1.979   3.966  0.00  0.00    -0.102 S 
ATOM     22 BR   UNL     1       3.037  -4.361   0.631  0.00  0.00    -0.050 Br
ENDBRANCH  15  17
ENDBRANCH  12  15
ENDBRANCH   2  12
TORSDOF 4
