REMARK  Name = ZINC39596617
REMARK  7 active torsions:
REMARK  status: ('A' for Active; 'I' for Inactive)
REMARK    1  A    between atoms: C_1  and  C_2
REMARK    2  A    between atoms: C_2  and  C_4
REMARK    3  A    between atoms: C_2  and  O_30
REMARK    4  A    between atoms: C_4  and  N_5
REMARK    5  A    between atoms: C_6  and  C_8
REMARK    6  A    between atoms: C_19  and  C_21
REMARK    7  A    between atoms: O_30  and  C_31
REMARK                            x       y       z     vdW  Elec       q    Type
REMARK                         _______ _______ _______ _____ _____    ______ ____
ROOT
ATOM      1  C   UNL     1       1.474  -3.688   1.349  0.00  0.00    +0.100 C 
ATOM      2  C   UNL     1       2.306  -3.914   0.067  0.00  0.00    +0.121 C 
ATOM      3  N   UNL     1       3.679  -4.183   0.554  0.00  0.00    -0.296 N 
ATOM      4  C   UNL     1       3.485  -5.023   1.760  0.00  0.00    +0.115 C 
ATOM      5  C   UNL     1       2.249  -4.420   2.457  0.00  0.00    -0.004 C 
ATOM      6  C   UNL     1       2.683  -3.434   3.538  0.00  0.00    -0.010 C 
ATOM      7  C   UNL     1       3.402  -4.194   4.656  0.00  0.00    -0.082 C 
ATOM      8  N   UNL     1       2.500  -5.205   5.221  0.00  0.00    +0.379 N 
ATOM      9  C   UNL     1       2.161  -6.201   4.199  0.00  0.00    -0.082 C 
ATOM     10  C   UNL     1       1.390  -5.526   3.061  0.00  0.00    -0.010 C 
ATOM     11  C   UNL     1       4.843  -3.759   0.022  0.00  0.00    +0.252 C 
ATOM     12  O   UNL     1       5.898  -4.067   0.542  0.00  0.00    -0.270 OA
ATOM     13  H   UNL     1       2.954  -5.662   5.998  0.00  0.00    -0.086 HD
ATOM     14  H   UNL     1       1.656  -4.757   5.546  0.00  0.00    -0.086 HD
ENDROOT
BRANCH  11  15
ATOM     15  C   UNL     1       4.836  -2.922  -1.193  0.00  0.00    +0.108 A 
ATOM     16  C   UNL     1       4.791  -1.528  -1.087  0.00  0.00    +0.138 A 
ATOM     17  C   UNL     1       4.785  -0.751  -2.230  0.00  0.00    +0.041 A 
ATOM     18  C   UNL     1       4.825  -1.348  -3.477  0.00  0.00    +0.026 A 
ATOM     19  C   UNL     1       4.870  -2.726  -3.592  0.00  0.00    +0.077 A 
ATOM     20  C   UNL     1       4.882  -3.518  -2.458  0.00  0.00    +0.156 A 
ATOM     21  F   UNL     1       4.931  -4.864  -2.572  0.00  0.00    -0.203 F 
ATOM     22 CL   UNL     1       4.918  -3.463  -5.163  0.00  0.00    -0.081 Cl
ATOM     23  F   UNL     1       4.752  -0.943   0.130  0.00  0.00    -0.205 F 
ENDBRANCH  11  15
BRANCH   1  25
ATOM     24  N   UNL     1       0.310  -1.736   2.326  0.00  0.00    -0.312 N 
ATOM     25  C   UNL     1       1.379  -2.216   1.659  0.00  0.00    +0.218 C 
ATOM     26  O   UNL     1       2.263  -1.464   1.309  0.00  0.00    -0.275 OA
ATOM     27  H   UNL     1      -0.397  -2.337   2.606  0.00  0.00    +0.149 HD
BRANCH  24  28
ATOM     28  C   UNL     1       0.218  -0.305   2.627  0.00  0.00    +0.148 C 
BRANCH  28  30
ATOM     29  C   UNL     1      -1.179   1.468   3.700  0.00  0.00    +0.053 C 
ATOM     30  C   UNL     1      -1.082  -0.027   3.385  0.00  0.00    +0.187 C 
BRANCH  30  31
ATOM     31  O   UNL     1      -2.196  -0.417   2.579  0.00  0.00    -0.488 OA
BRANCH  31  32
ATOM     32  C   UNL     1      -3.346  -0.738   3.229  0.00  0.00    +0.121 A 
ATOM     33  C   UNL     1      -4.429  -1.234   2.519  0.00  0.00    +0.048 A 
ATOM     34  C   UNL     1      -5.597  -1.561   3.181  0.00  0.00    +0.042 A 
ATOM     35  C   UNL     1      -5.686  -1.393   4.553  0.00  0.00    +0.124 A 
ATOM     36  C   UNL     1      -4.606  -0.897   5.262  0.00  0.00    +0.042 A 
ATOM     37  C   UNL     1      -3.434  -0.576   4.604  0.00  0.00    +0.048 A 
ATOM     38  F   UNL     1      -6.829  -1.712   5.199  0.00  0.00    -0.205 F 
ENDBRANCH  31  32
ENDBRANCH  30  31
ENDBRANCH  28  30
ENDBRANCH  24  28
ENDBRANCH   1  25
TORSDOF 6
