REMARK  Name = ZINC04017528
REMARK  5 active torsions:
REMARK  status: ('A' for Active; 'I' for Inactive)
REMARK    1  A    between atoms: C_3  and  C_6
REMARK    2  A    between atoms: N_7  and  N_8
REMARK    3  A    between atoms: C_9  and  S_11
REMARK    4  A    between atoms: S_11  and  C_12
REMARK    5  A    between atoms: N_17  and  C_20
REMARK                            x       y       z     vdW  Elec       q    Type
REMARK                         _______ _______ _______ _____ _____    ______ ____
ROOT
ATOM      1  C   UNL     1       8.265  -3.533  -0.097  0.00  0.00    +0.149 C 
ATOM      2  C   UNL     1       9.791  -3.749  -0.041  0.00  0.00    +0.120 C 
ATOM      3  C   UNL     1      10.095  -4.473  -1.335  0.00  0.00    +0.228 C 
ATOM      4  O   UNL     1      11.194  -4.837  -1.694  0.00  0.00    -0.275 OA
ATOM      5  N   UNL     1       8.957  -4.648  -2.019  0.00  0.00    -0.208 N 
ATOM      6  C   UNL     1       7.863  -4.159  -1.414  0.00  0.00    +0.240 C 
ATOM      7  O   UNL     1       6.734  -4.210  -1.852  0.00  0.00    -0.274 OA
ENDROOT
BRANCH   5   8
ATOM      8  C   UNL     1       8.912  -5.291  -3.264  0.00  0.00    +0.064 A 
ATOM      9  C   UNL     1       8.714  -6.663  -3.331  0.00  0.00    +0.045 A 
ATOM     10  C   UNL     1       8.670  -7.295  -4.560  0.00  0.00    +0.043 A 
ATOM     11  C   UNL     1       8.822  -6.559  -5.723  0.00  0.00    +0.021 A 
ATOM     12  C   UNL     1       9.019  -5.193  -5.659  0.00  0.00    +0.023 A 
ATOM     13  C   UNL     1       9.059  -4.555  -4.433  0.00  0.00    +0.063 A 
ATOM     14 CL   UNL     1       9.300  -2.838  -4.354  0.00  0.00    -0.082 Cl
ATOM     15 CL   UNL     1       8.423  -9.011  -4.645  0.00  0.00    -0.083 Cl
ENDBRANCH   5   8
BRANCH   1  16
ATOM     16  S   UNL     1       7.869  -1.763  -0.084  0.00  0.00    -0.078 S 
BRANCH  16  18
ATOM     17  N   UNL     1       5.477  -0.563  -0.054  0.00  0.00    -0.259 N 
ATOM     18  C   UNL     1       6.108  -1.720  -0.066  0.00  0.00    +0.146 C 
ATOM     19  N   UNL     1       5.392  -2.893  -0.065  0.00  0.00    -0.338 N 
ATOM     20  H   UNL     1       4.423  -2.870  -0.056  0.00  0.00    +0.144 HD
ATOM     21  H   UNL     1       5.857  -3.745  -0.074  0.00  0.00    +0.144 HD
ATOM     22  H   UNL     1       5.982   0.265  -0.055  0.00  0.00    +0.191 HD
BRANCH  17  24
ATOM     23  C   UNL     1       3.561   0.617  -0.029  0.00  0.00    +0.178 C 
ATOM     24  N   UNL     1       4.187  -0.532  -0.041  0.00  0.00    -0.177 NA
BRANCH  23  27
ATOM     25  C   UNL     1      -0.016   1.345   0.009  0.00  0.00    +0.042 A 
ATOM     26  C   UNL     1       1.323   1.777  -0.001  0.00  0.00    +0.051 A 
ATOM     27  C   UNL     1       2.099   0.652  -0.015  0.00  0.00    +0.147 A 
ATOM     28  O   UNL     1       1.280  -0.419  -0.012  0.00  0.00    -0.462 OA
ATOM     29  C   UNL     1       0.002  -0.004   0.002  0.00  0.00    +0.196 A 
ENDBRANCH  23  27
ENDBRANCH  17  24
ENDBRANCH  16  18
ENDBRANCH   1  16
TORSDOF 5
