REMARK  Name = ZINC66434280
REMARK  9 active torsions:
REMARK  status: ('A' for Active; 'I' for Inactive)
REMARK    1  A    between atoms: C_1  and  C_2
REMARK    2  A    between atoms: C_2  and  N_3
REMARK    3  A    between atoms: N_3  and  C_4
REMARK    4  A    between atoms: N_3  and  C_14
REMARK    5  A    between atoms: C_4  and  C_5
REMARK    6  A    between atoms: N_10  and  C_11
REMARK    7  A    between atoms: C_11  and  C_12
REMARK    8  A    between atoms: C_14  and  C_16
REMARK    9  A    between atoms: C_14  and  C_17
REMARK                            x       y       z     vdW  Elec       q    Type
REMARK                         _______ _______ _______ _____ _____    ______ ____
ROOT
ATOM      1  N   UNL     1       0.664  -0.397   1.249  0.00  0.00    +0.392 N 
ATOM      2  H   UNL     1       1.554   0.073   1.328  0.00  0.00    -0.080 HD
ENDROOT
BRANCH   1   4
ATOM      3  C   UNL     1      -1.388  -0.623  -0.069  0.00  0.00    -0.017 C 
ATOM      4  C   UNL     1       0.003   0.011   0.002  0.00  0.00    -0.081 C 
ENDBRANCH   1   4
BRANCH   1   5
ATOM      5  C   UNL     1      -0.183  -0.034   2.393  0.00  0.00    -0.003 C 
ATOM      6  C   UNL     1       0.565  -0.327   3.695  0.00  0.00    -0.005 C 
BRANCH   5   7
ATOM      7  C   UNL     1      -0.518   1.433   2.326  0.00  0.00    +0.093 A 
ATOM      8  C   UNL     1      -1.737   1.952   2.529  0.00  0.00    +0.051 A 
ATOM      9  C   UNL     1      -1.596   3.404   2.365  0.00  0.00    +0.020 A 
ATOM     10  C   UNL     1      -2.474   4.484   2.446  0.00  0.00    +0.011 A 
ATOM     11  C   UNL     1      -2.010   5.752   2.231  0.00  0.00    +0.001 A 
ATOM     12  C   UNL     1      -0.672   5.970   1.933  0.00  0.00    +0.004 A 
ATOM     13  C   UNL     1       0.211   4.914   1.849  0.00  0.00    +0.047 A 
ATOM     14  C   UNL     1      -0.240   3.618   2.064  0.00  0.00    +0.135 A 
ATOM     15  O   UNL     1       0.363   2.413   2.057  0.00  0.00    -0.461 OA
ENDBRANCH   5   7
ENDBRANCH   1   5
BRANCH   1  16
ATOM     16  C   UNL     1       0.876  -1.850   1.238  0.00  0.00    +0.020 C 
BRANCH  16  17
ATOM     17  C   UNL     1       1.844  -2.208   0.140  0.00  0.00    +0.204 C 
ATOM     18  O   UNL     1       2.309  -1.338  -0.565  0.00  0.00    -0.277 OA
ATOM     19  N   UNL     1       2.190  -3.495  -0.060  0.00  0.00    -0.242 N 
ATOM     20  C   UNL     1       3.055  -3.815  -1.043  0.00  0.00    +0.306 C 
ATOM     21  O   UNL     1       3.522  -2.943  -1.749  0.00  0.00    -0.252 OA
ATOM     22  N   UNL     1       3.402  -5.102  -1.243  0.00  0.00    -0.296 N 
ATOM     23  H   UNL     1       1.818  -4.191   0.503  0.00  0.00    +0.159 HD
ATOM     24  H   UNL     1       3.029  -5.798  -0.679  0.00  0.00    +0.151 HD
BRANCH  22  25
ATOM     25  C   UNL     1       4.342  -5.450  -2.311  0.00  0.00    +0.132 C 
BRANCH  25  26
ATOM     26  C   UNL     1       4.560  -6.941  -2.322  0.00  0.00    -0.016 C 
ATOM     27  C   UNL     1       4.355  -7.625  -3.421  0.00  0.00    +0.005 C 
ENDBRANCH  25  26
ENDBRANCH  22  25
ENDBRANCH  16  17
ENDBRANCH   1  16
TORSDOF 7
