REMARK  Name = ZINC44137507
REMARK  8 active torsions:
REMARK  status: ('A' for Active; 'I' for Inactive)
REMARK    1  A    between atoms: C_1  and  C_2
REMARK    2  A    between atoms: C_2  and  C_3
REMARK    3  A    between atoms: C_2  and  N_4
REMARK    4  A    between atoms: C_6  and  C_16
REMARK    5  A    between atoms: C_19  and  O_24
REMARK    6  A    between atoms: C_20  and  O_22
REMARK    7  A    between atoms: O_22  and  C_23
REMARK    8  A    between atoms: O_24  and  C_25
REMARK                            x       y       z     vdW  Elec       q    Type
REMARK                         _______ _______ _______ _____ _____    ______ ____
ROOT
ATOM      1  N   UNL     1      -1.315  -0.571  -0.043  0.00  0.00    -0.298 N 
ATOM      2  C   UNL     1      -1.921  -1.446  -1.053  0.00  0.00    +0.117 C 
ATOM      3  C   UNL     1      -3.216  -1.989  -0.406  0.00  0.00    +0.051 C 
ATOM      4  C   UNL     1      -3.533  -0.889   0.626  0.00  0.00    +0.052 C 
ATOM      5  C   UNL     1      -2.203  -0.239   0.912  0.00  0.00    +0.222 C 
ATOM      6  O   UNL     1      -1.969   0.480   1.861  0.00  0.00    -0.275 OA
ATOM      7  C   UNL     1      -4.108  -1.510   1.895  0.00  0.00    -0.002 C 
ATOM      8  C   UNL     1      -4.477  -0.398   2.881  0.00  0.00    -0.082 C 
ATOM      9  N   UNL     1      -5.460   0.500   2.262  0.00  0.00    +0.379 N 
ATOM     10  C   UNL     1      -4.867   1.165   1.095  0.00  0.00    -0.082 C 
ATOM     11  C   UNL     1      -4.514   0.118   0.034  0.00  0.00    -0.002 C 
ATOM     12  H   UNL     1      -6.265  -0.034   1.970  0.00  0.00    -0.086 HD
ATOM     13  H   UNL     1      -5.747   1.196   2.934  0.00  0.00    -0.086 HD
ENDROOT
BRANCH   3  14
ATOM     14  C   UNL     1      -4.320  -2.108  -1.425  0.00  0.00    -0.038 A 
ATOM     15  C   UNL     1      -4.460  -1.145  -2.406  0.00  0.00    +0.008 A 
ATOM     16  C   UNL     1      -5.471  -1.250  -3.344  0.00  0.00    +0.049 A 
ATOM     17  C   UNL     1      -6.346  -2.323  -3.300  0.00  0.00    +0.161 A 
ATOM     18  C   UNL     1      -6.205  -3.293  -2.312  0.00  0.00    +0.162 A 
ATOM     19  C   UNL     1      -5.187  -3.184  -1.379  0.00  0.00    +0.053 A 
BRANCH  18  20
ATOM     20  O   UNL     1      -7.063  -4.348  -2.266  0.00  0.00    -0.491 OA
ATOM     21  C   UNL     1      -6.858  -5.305  -1.224  0.00  0.00    +0.277 C 
ENDBRANCH  18  20
BRANCH  17  22
ATOM     22  O   UNL     1      -7.342  -2.428  -4.221  0.00  0.00    -0.491 OA
ATOM     23  C   UNL     1      -7.426  -1.395  -5.205  0.00  0.00    +0.277 C 
ENDBRANCH  17  22
ENDBRANCH   3  14
BRANCH   1  25
ATOM     24  C   UNL     1       0.121   1.407  -0.127  0.00  0.00    +0.028 C 
ATOM     25  C   UNL     1       0.079  -0.121  -0.068  0.00  0.00    +0.070 C 
ATOM     26  C   UNL     1       0.793  -0.602   1.197  0.00  0.00    +0.028 C 
ENDBRANCH   1  25
TORSDOF 4
