REMARK  Name = ZINC40879042
REMARK  4 active torsions:
REMARK  status: ('A' for Active; 'I' for Inactive)
REMARK    1  A    between atoms: C_1  and  N_2
REMARK    2  A    between atoms: N_2  and  C_15
REMARK    3  A    between atoms: CA_11  and  C_13
REMARK    4  A    between atoms: C_13  and  O_14
REMARK                            x       y       z     vdW  Elec       q    Type
REMARK                         _______ _______ _______ _____ _____    ______ ____
ROOT
ATOM      1  C   UNL     1      -1.259   0.561  -0.484  0.00  0.00    +0.131 C 
ATOM      2  N   UNL     1       0.002  -0.004   0.002  0.00  0.00    -0.315 N 
ATOM      3  C   UNL     1       0.010  -0.811   1.126  0.00  0.00    +0.107 A 
ATOM      4  C   UNL     1       0.068  -0.234   2.415  0.00  0.00    +0.020 A 
ATOM      5  C   UNL     1       0.117   1.153   2.606  0.00  0.00    +0.012 A 
ATOM      6  C   UNL     1       0.171   1.655   3.872  0.00  0.00    +0.001 A 
ATOM      7  C   UNL     1       0.177   0.811   4.980  0.00  0.00    +0.001 A 
ATOM      8  C   UNL     1       0.131  -0.542   4.830  0.00  0.00    +0.008 A 
ATOM      9  C   UNL     1       0.074  -1.093   3.542  0.00  0.00    -0.013 A 
ATOM     10  C   UNL     1       0.023  -2.483   3.322  0.00  0.00    +0.032 A 
ATOM     11  CA  UNL     1      -0.030  -2.944   2.043  0.00  0.00    +0.044 A 
ATOM     12  N   UNL     1      -0.040  -2.124   1.000  0.00  0.00    -0.344 N 
ATOM     13  H   UNL     1      -0.083  -2.504   0.109  0.00  0.00    +0.167 HD
ENDROOT
BRANCH   2  14
ATOM     14  C   UNL     1       1.254   0.285  -0.701  0.00  0.00    +0.097 C 
ATOM     15  C   UNL     1       1.209  -0.345  -2.104  0.00  0.00    +0.046 C 
ATOM     16  C   UNL     1       2.393   0.232  -2.932  0.00  0.00    +0.168 C 
ATOM     17  S   UNL     1       2.342   1.998  -2.408  0.00  0.00    -0.029 S 
ATOM     18  O   UNL     1       3.666   2.439  -2.139  0.00  0.00    -0.174 OA
ATOM     19  O   UNL     1       1.533   2.728  -3.320  0.00  0.00    -0.174 OA
ATOM     20  C   UNL     1       1.436   1.818  -0.818  0.00  0.00    +0.188 C 
ENDBRANCH   2  14
BRANCH  11  21
ATOM     21  C   UNL     1      -0.085  -4.431   1.804  0.00  0.00    +0.208 C 
BRANCH  21  22
ATOM     22  O   UNL     1      -0.069  -5.116   3.058  0.00  0.00    -0.389 OA
ATOM     23  H   UNL     1      -0.102  -6.079   2.980  0.00  0.00    +0.210 HD
ENDBRANCH  21  22
ENDBRANCH  11  21
TORSDOF 3
