REMARK  Name = ZINC16495877
REMARK  7 active torsions:
REMARK  status: ('A' for Active; 'I' for Inactive)
REMARK    1  A    between atoms: C_1  and  C_2
REMARK    2  A    between atoms: C_2  and  C_4
REMARK    3  A    between atoms: C_2  and  O_18
REMARK    4  A    between atoms: N_6  and  N_7
REMARK    5  A    between atoms: C_8  and  C_10
REMARK    6  A    between atoms: C_15  and  O_16
REMARK    7  A    between atoms: O_18  and  C_19
REMARK                            x       y       z     vdW  Elec       q    Type
REMARK                         _______ _______ _______ _____ _____    ______ ____
ROOT
ATOM      1  C   UNL     1      -1.332   1.964  -0.148  0.00  0.00    +0.270 C 
ATOM      2  O   UNL     1      -2.398   1.420   0.045  0.00  0.00    -0.270 OA
ATOM      3  N   UNL     1      -0.221   1.223  -0.331  0.00  0.00    -0.231 N 
ATOM      4  H   UNL     1       0.631   1.658  -0.489  0.00  0.00    +0.173 HD
ENDROOT
BRANCH   3   5
ATOM      5  N   UNL     1      -0.298  -0.176  -0.298  0.00  0.00    -0.230 N 
ATOM      6  C   UNL     1       0.812  -0.917  -0.486  0.00  0.00    +0.264 C 
ATOM      7  O   UNL     1       1.880  -0.371  -0.685  0.00  0.00    -0.269 OA
ATOM      8  H   UNL     1      -1.151  -0.611  -0.140  0.00  0.00    +0.173 HD
BRANCH   6   9
ATOM      9  C   UNL     1       0.730  -2.389  -0.452  0.00  0.00    +0.081 A 
ATOM     10  C   UNL     1      -0.496  -3.020  -0.224  0.00  0.00    +0.032 A 
ATOM     11  C   UNL     1      -0.565  -4.396  -0.193  0.00  0.00    +0.019 A 
ATOM     12  C   UNL     1       0.577  -5.158  -0.387  0.00  0.00    +0.019 A 
ATOM     13  C   UNL     1       1.794  -4.547  -0.613  0.00  0.00    +0.047 A 
ATOM     14  C   UNL     1       1.881  -3.164  -0.653  0.00  0.00    +0.129 A 
ATOM     15 BR   UNL     1      -2.224  -5.249   0.115  0.00  0.00    -0.050 Br
BRANCH  14  16
ATOM     16  O   UNL     1       3.075  -2.562  -0.881  0.00  0.00    -0.506 OA
ATOM     17  H   UNL     1       3.581  -2.376  -0.078  0.00  0.00    +0.292 HD
ENDBRANCH  14  16
ENDBRANCH   6   9
ENDBRANCH   3   5
BRANCH   1  19
ATOM     18  C   UNL     1      -0.397   3.959   0.989  0.00  0.00    +0.062 C 
ATOM     19  C   UNL     1      -1.249   3.468  -0.183  0.00  0.00    +0.257 C 
BRANCH  19  20
ATOM     20  O   UNL     1      -2.563   4.020  -0.081  0.00  0.00    -0.477 OA
BRANCH  20  21
ATOM     21  C   UNL     1      -2.752   5.261  -0.603  0.00  0.00    +0.157 A 
ATOM     22  C   UNL     1      -1.674   5.980  -1.096  0.00  0.00    +0.048 A 
ATOM     23  C   UNL     1      -1.869   7.241  -1.626  0.00  0.00    +0.004 A 
ATOM     24  C   UNL     1      -3.139   7.788  -1.665  0.00  0.00    +0.003 A 
ATOM     25  C   UNL     1      -4.217   7.075  -1.174  0.00  0.00    +0.042 A 
ATOM     26  C   UNL     1      -4.028   5.810  -0.647  0.00  0.00    +0.165 A 
ATOM     27  F   UNL     1      -5.082   5.111  -0.171  0.00  0.00    -0.202 F 
ENDBRANCH  20  21
ENDBRANCH  19  20
ENDBRANCH   1  19
TORSDOF 6
