REMARK  Name = ZINC45533334
REMARK  14 active torsions:
REMARK  status: ('A' for Active; 'I' for Inactive)
REMARK    1  A    between atoms: C_1  and  C_2
REMARK    2  A    between atoms: C_2  and  C_3
REMARK    3  A    between atoms: C_3  and  C_4
REMARK    4  A    between atoms: C_3  and  C_6
REMARK    5  A    between atoms: C_4  and  C_5
REMARK    6  A    between atoms: C_6  and  C_8
REMARK    7  A    between atoms: C_6  and  N_21
REMARK    8  A    between atoms: C_8  and  N_9
REMARK    9  A    between atoms: N_12  and  N_13
REMARK   10  A    between atoms: C_14  and  O_16
REMARK   11  A    between atoms: O_16  and  C_17
REMARK   12  A    between atoms: C_17  and  C_18
REMARK   13  A    between atoms: C_17  and  C_19
REMARK   14  A    between atoms: C_17  and  C_20
REMARK                            x       y       z     vdW  Elec       q    Type
REMARK                         _______ _______ _______ _____ _____    ______ ____
ROOT
ATOM      1  N   UNL     1      -4.383  -1.537   2.649  0.00  0.00    -0.300 N 
ATOM      2  C   UNL     1      -5.514  -2.268   2.721  0.00  0.00    +0.316 C 
ATOM      3  O   UNL     1      -5.892  -2.900   1.754  0.00  0.00    -0.251 OA
ATOM      4  N   UNL     1      -6.225  -2.298   3.866  0.00  0.00    -0.216 N 
ATOM      5  H   UNL     1      -4.082  -1.033   3.421  0.00  0.00    +0.150 HD
ATOM      6  H   UNL     1      -7.038  -2.824   3.918  0.00  0.00    +0.174 HD
ENDROOT
BRANCH   4   7
ATOM      7  N   UNL     1      -5.789  -1.570   4.981  0.00  0.00    -0.198 N 
ATOM      8  C   UNL     1      -6.500  -1.600   6.125  0.00  0.00    +0.417 C 
ATOM      9  O   UNL     1      -6.121  -0.969   7.092  0.00  0.00    -0.225 OA
ATOM     10  H   UNL     1      -4.975  -1.044   4.929  0.00  0.00    +0.176 HD
BRANCH   8  11
ATOM     11  O   UNL     1      -7.629  -2.330   6.198  0.00  0.00    -0.444 OA
BRANCH  11  12
ATOM     12  C   UNL     1      -8.332  -2.316   7.442  0.00  0.00    +0.107 C 
ATOM     13  C   UNL     1      -8.747  -0.882   7.777  0.00  0.00    +0.055 C 
ATOM     14  C   UNL     1      -9.579  -3.196   7.333  0.00  0.00    +0.055 C 
ATOM     15  C   UNL     1      -7.422  -2.855   8.547  0.00  0.00    +0.055 C 
ENDBRANCH  11  12
ENDBRANCH   8  11
ENDBRANCH   4   7
BRANCH   1  16
ATOM     16  C   UNL     1      -3.611  -1.504   1.405  0.00  0.00    +0.091 C 
BRANCH  16  17
ATOM     17  C   UNL     1      -2.429  -0.546   1.564  0.00  0.00    -0.048 C 
BRANCH  17  18
ATOM     18  N   UNL     1      -2.928   0.828   1.703  0.00  0.00    +0.383 N 
ATOM     19  C   UNL     1      -3.620   0.992   3.006  0.00  0.00    -0.078 C 
ATOM     20  C   UNL     1      -3.571   2.522   3.244  0.00  0.00    -0.020 C 
ATOM     21  C   UNL     1      -2.178   2.912   2.698  0.00  0.00    -0.020 C 
ATOM     22  C   UNL     1      -1.797   1.782   1.725  0.00  0.00    -0.078 C 
ATOM     23  H   UNL     1      -3.555   1.050   0.944  0.00  0.00    -0.081 HD
ENDBRANCH  17  18
BRANCH  17  24
ATOM     24  C   UNL     1      -1.527  -0.639   0.331  0.00  0.00    -0.024 C 
BRANCH  24  26
ATOM     25  C   UNL     1       0.060  -2.190   1.480  0.00  0.00    +0.004 C 
ATOM     26  C   UNL     1      -0.875  -2.022   0.280  0.00  0.00    -0.002 C 
ENDBRANCH  24  26
BRANCH  24  27
ATOM     27  C   UNL     1      -2.365  -0.424  -0.931  0.00  0.00    -0.002 C 
ATOM     28  C   UNL     1      -2.509   1.076  -1.198  0.00  0.00    +0.004 C 
ENDBRANCH  24  27
ENDBRANCH  17  24
ENDBRANCH  16  17
ENDBRANCH   1  16
TORSDOF 9
