REMARK  Name = ZINC06070234
REMARK  5 active torsions:
REMARK  status: ('A' for Active; 'I' for Inactive)
REMARK    1  A    between atoms: C_1  and  C_2
REMARK    2  A    between atoms: C_6  and  O_16
REMARK    3  A    between atoms: C_7  and  O_14
REMARK    4  A    between atoms: C_8  and  O_13
REMARK    5  A    between atoms: O_14  and  C_15
REMARK                            x       y       z     vdW  Elec       q    Type
REMARK                         _______ _______ _______ _____ _____    ______ ____
ROOT
ATOM      1  C   UNL     1       1.667  -1.524   8.001  0.00  0.00    +0.086 C 
ATOM      2  C   UNL     1       1.090  -1.102   6.674  0.00  0.00    +0.107 A 
ATOM      3  C   UNL     1       1.517   0.042   6.124  0.00  0.00    +0.050 A 
ATOM      4  C   UNL     1       0.964   0.466   4.832  0.00  0.00    -0.001 A 
ATOM      5  C   UNL     1       1.365   1.642   4.208  0.00  0.00    +0.058 A 
ATOM      6  C   UNL     1       0.809   1.994   2.989  0.00  0.00    +0.163 A 
ATOM      7  C   UNL     1      -0.148   1.182   2.381  0.00  0.00    +0.204 A 
ATOM      8  C   UNL     1      -0.564   0.008   2.990  0.00  0.00    +0.177 A 
ATOM      9  C   UNL     1      -0.007  -0.363   4.220  0.00  0.00    +0.112 A 
ATOM     10  C   UNL     1      -0.400  -1.591   4.912  0.00  0.00    +0.348 A 
ATOM     11  O   UNL     1      -1.231  -2.335   4.424  0.00  0.00    -0.244 OA
ATOM     12  O   UNL     1       0.169  -1.888   6.094  0.00  0.00    -0.427 OA
ENDROOT
BRANCH   8  13
ATOM     13  O   UNL     1      -1.500  -0.777   2.397  0.00  0.00    -0.503 OA
ATOM     14  H   UNL     1      -1.827  -1.708   2.885  0.00  0.00    +0.292 HD
ENDBRANCH   8  13
BRANCH   7  15
ATOM     15  O   UNL     1      -0.682   1.547   1.184  0.00  0.00    -0.488 OA
ATOM     16  C   UNL     1      -0.013   1.086   0.008  0.00  0.00    +0.277 C 
ENDBRANCH   7  15
BRANCH   6  17
ATOM     17  O   UNL     1       1.201   3.143   2.379  0.00  0.00    -0.503 OA
ATOM     18  H   UNL     1       0.763   3.429   1.411  0.00  0.00    +0.292 HD
ENDBRANCH   6  17
TORSDOF 3
