REMARK  Name = ZINC35341328
REMARK  3 active torsions:
REMARK  status: ('A' for Active; 'I' for Inactive)
REMARK    1  A    between atoms: C_3  and  N_9
REMARK    2  A    between atoms: N_9  and  C_10
REMARK    3  A    between atoms: C_15  and  N_16
REMARK                            x       y       z     vdW  Elec       q    Type
REMARK                         _______ _______ _______ _____ _____    ______ ____
ROOT
ATOM      1  C   UNL     1       3.512   3.523  -0.106  0.00  0.00    +0.053 A 
ATOM      2  C   UNL     1       2.280   4.159  -0.077  0.00  0.00    +0.030 A 
ATOM      3  C   UNL     1       2.210   5.537  -0.160  0.00  0.00    -0.024 A 
ATOM      4  C   UNL     1       3.373   6.288  -0.273  0.00  0.00    +0.038 A 
ATOM      5  C   UNL     1       4.609   5.657  -0.302  0.00  0.00    +0.048 A 
ATOM      6  C   UNL     1       4.682   4.276  -0.214  0.00  0.00    +0.048 A 
ATOM      7  N   UNL     1       3.296   7.684  -0.357  0.00  0.00    -0.285 N 
ATOM      8  C   UNL     1       2.182   8.331   0.035  0.00  0.00    +0.218 C 
ATOM      9  O   UNL     1       2.127   9.539  -0.058  0.00  0.00    -0.275 OA
ATOM     10  C   UNL     1       1.006   7.572   0.587  0.00  0.00    +0.101 C 
ATOM     11  C   UNL     1       0.871   6.228  -0.129  0.00  0.00    +0.046 C 
ATOM     12  H   UNL     1       4.050   8.188  -0.701  0.00  0.00    +0.155 HD
ENDROOT
BRANCH   6  13
ATOM     13  N   UNL     1       5.927   3.637  -0.238  0.00  0.00    -0.356 N 
ATOM     14  H   UNL     1       5.977   2.670  -0.179  0.00  0.00    +0.142 HD
ATOM     15  H   UNL     1       6.740   4.161  -0.313  0.00  0.00    +0.142 HD
ENDBRANCH   6  13
BRANCH   1  16
ATOM     16  N   UNL     1       3.583   2.125  -0.021  0.00  0.00    -0.312 N 
ATOM     17  H   UNL     1       4.436   1.676  -0.125  0.00  0.00    +0.152 HD
BRANCH  16  20
ATOM     18  C   UNL     1       0.359   1.065   1.392  0.00  0.00    +0.022 A 
ATOM     19  C   UNL     1       1.504   1.804   1.163  0.00  0.00    +0.026 A 
ATOM     20  C   UNL     1       2.424   1.380   0.213  0.00  0.00    +0.050 A 
ATOM     21  C   UNL     1       2.188   0.214  -0.507  0.00  0.00    +0.063 A 
ATOM     22  C   UNL     1       1.041  -0.520  -0.274  0.00  0.00    +0.041 A 
ATOM     23  C   UNL     1       0.127  -0.095   0.675  0.00  0.00    +0.042 A 
ATOM     24 CL   UNL     1      -1.313  -1.020   0.966  0.00  0.00    -0.083 Cl
ATOM     25 CL   UNL     1       3.334  -0.319  -1.697  0.00  0.00    -0.082 Cl
ENDBRANCH  16  20
ENDBRANCH   1  16
TORSDOF 3
