REMARK  Name = ZINC49458170
REMARK  6 active torsions:
REMARK  status: ('A' for Active; 'I' for Inactive)
REMARK    1  A    between atoms: C_2  and  S_17
REMARK    2  A    between atoms: C_5  and  C_6
REMARK    3  A    between atoms: N_8  and  C_9
REMARK    4  A    between atoms: C_9  and  C_10
REMARK    5  A    between atoms: C_10  and  C_11
REMARK    6  A    between atoms: S_17  and  N_20
REMARK                            x       y       z     vdW  Elec       q    Type
REMARK                         _______ _______ _______ _____ _____    ______ ____
ROOT
ATOM      1  C   UNL     1      -0.017   1.383   0.010  0.00  0.00    +0.050 A 
ATOM      2  C   UNL     1       1.212   1.996   0.001  0.00  0.00    +0.127 A 
ATOM      3  C   UNL     1       2.332   1.230  -0.014  0.00  0.00    +0.082 A 
ATOM      4  S   UNL     1       1.751  -0.347  -0.017  0.00  0.00    -0.075 S 
ATOM      5  C   UNL     1       0.002  -0.004   0.002  0.00  0.00    +0.077 A 
ATOM      6 BR   UNL     1       4.134   1.804  -0.028  0.00  0.00    -0.041 Br
ENDROOT
BRANCH   5   7
ATOM      7  C   UNL     1      -1.123  -0.943   0.008  0.00  0.00    +0.251 C 
ATOM      8  O   UNL     1      -2.265  -0.523   0.022  0.00  0.00    -0.270 OA
ATOM      9  N   UNL     1      -0.892  -2.271  -0.001  0.00  0.00    -0.311 N 
ATOM     10  H   UNL     1       0.018  -2.605  -0.012  0.00  0.00    +0.149 HD
BRANCH   9  11
ATOM     11  C   UNL     1      -2.017  -3.209   0.005  0.00  0.00    +0.105 C 
BRANCH  11  12
ATOM     12  C   UNL     1      -1.484  -4.644  -0.008  0.00  0.00    +0.022 C 
BRANCH  12  13
ATOM     13  C   UNL     1      -2.659  -5.624  -0.001  0.00  0.00    -0.010 C 
ATOM     14  C   UNL     1      -3.401  -5.550   1.349  0.00  0.00    +0.003 C 
ATOM     15  C   UNL     1      -3.812  -7.015   1.638  0.00  0.00    +0.000 C 
ATOM     16  C   UNL     1      -2.589  -7.819   1.131  0.00  0.00    +0.000 C 
ATOM     17  C   UNL     1      -2.142  -7.067  -0.140  0.00  0.00    +0.003 C 
ENDBRANCH  12  13
ENDBRANCH  11  12
ENDBRANCH   9  11
ENDBRANCH   5   7
BRANCH   2  18
ATOM     18  S   UNL     1       1.333   3.754   0.009  0.00  0.00    +0.058 S 
ATOM     19  O   UNL     1       2.245   4.103  -1.024  0.00  0.00    -0.153 OA
ATOM     20  O   UNL     1       0.003   4.253   0.051  0.00  0.00    -0.153 OA
BRANCH  18  21
ATOM     21  N   UNL     1       2.047   4.190   1.438  0.00  0.00    -0.203 NA
ATOM     22  H   UNL     1       2.590   4.993   1.485  0.00  0.00    +0.144 HD
ATOM     23  H   UNL     1       1.923   3.642   2.229  0.00  0.00    +0.144 HD
ENDBRANCH  18  21
ENDBRANCH   2  18
TORSDOF 6
