REMARK  Name = ZINC49505051
REMARK  7 active torsions:
REMARK  status: ('A' for Active; 'I' for Inactive)
REMARK    1  A    between atoms: C_1  and  O_2
REMARK    2  A    between atoms: O_2  and  C_3
REMARK    3  A    between atoms: C_3  and  C_4
REMARK    4  A    between atoms: C_8  and  N_10
REMARK    5  A    between atoms: N_10  and  S_11
REMARK    6  A    between atoms: S_11  and  C_14
REMARK    7  A    between atoms: C_17  and  N_21
REMARK                            x       y       z     vdW  Elec       q    Type
REMARK                         _______ _______ _______ _____ _____    ______ ____
ROOT
ATOM      1  S   UNL     1       2.277  -6.111  -1.380  0.00  0.00    +0.074 S 
ATOM      2  O   UNL     1       1.335  -5.723  -2.371  0.00  0.00    -0.150 OA
ATOM      3  O   UNL     1       3.557  -6.634  -1.708  0.00  0.00    -0.150 OA
ENDROOT
BRANCH   1   4
ATOM      4  C   UNL     1       1.482  -7.320  -0.375  0.00  0.00    +0.127 A 
ATOM      5  C   UNL     1       0.199  -7.736  -0.681  0.00  0.00    +0.032 A 
ATOM      6  C   UNL     1      -0.428  -8.684   0.103  0.00  0.00    +0.025 A 
ATOM      7  C   UNL     1       0.232  -9.221   1.202  0.00  0.00    +0.026 A 
ATOM      8  C   UNL     1       1.520  -8.802   1.507  0.00  0.00    +0.044 A 
ATOM      9  C   UNL     1       2.144  -7.857   0.715  0.00  0.00    +0.069 A 
ATOM     10 CL   UNL     1       3.757  -7.337   1.091  0.00  0.00    -0.081 Cl
BRANCH   7  11
ATOM     11  N   UNL     1      -0.399 -10.179   1.998  0.00  0.00    -0.358 N 
ATOM     12  H   UNL     1      -1.300 -10.470   1.784  0.00  0.00    +0.142 HD
ATOM     13  H   UNL     1       0.062 -10.553   2.765  0.00  0.00    +0.142 HD
ENDBRANCH   7  11
ENDBRANCH   1   4
BRANCH   1  14
ATOM     14  N   UNL     1       2.539  -4.780  -0.429  0.00  0.00    -0.216 N 
ATOM     15  H   UNL     1       3.444  -4.519  -0.200  0.00  0.00    +0.174 HD
BRANCH  14  20
ATOM     16  C   UNL     1       0.408  -1.913   0.433  0.00  0.00    -0.020 A 
ATOM     17  C   UNL     1      -0.690  -2.557   0.975  0.00  0.00    +0.006 A 
ATOM     18  C   UNL     1      -0.717  -3.937   1.052  0.00  0.00    +0.002 A 
ATOM     19  C   UNL     1       0.352  -4.678   0.587  0.00  0.00    +0.024 A 
ATOM     20  C   UNL     1       1.456  -4.035   0.042  0.00  0.00    +0.048 A 
ATOM     21  C   UNL     1       1.478  -2.648  -0.039  0.00  0.00    +0.030 A 
BRANCH  16  22
ATOM     22  C   UNL     1       0.434  -0.409   0.352  0.00  0.00    +0.194 C 
BRANCH  22  24
ATOM     23  C   UNL     1      -0.157   1.429  -1.070  0.00  0.00    +0.194 C 
ATOM     24  O   UNL     1      -0.133   0.011  -0.891  0.00  0.00    -0.378 OA
ENDBRANCH  22  24
ENDBRANCH  16  22
ENDBRANCH  14  20
ENDBRANCH   1  14
TORSDOF 6
