REMARK  Name = ZINC66871316
REMARK  7 active torsions:
REMARK  status: ('A' for Active; 'I' for Inactive)
REMARK    1  A    between atoms: C_1  and  C_2
REMARK    2  A    between atoms: C_5  and  C_26
REMARK    3  A    between atoms: N_13  and  C_14
REMARK    4  A    between atoms: C_14  and  C_15
REMARK    5  A    between atoms: C_15  and  C_16
REMARK    6  A    between atoms: N_18  and  C_19
REMARK    7  A    between atoms: C_19  and  C_20
REMARK                            x       y       z     vdW  Elec       q    Type
REMARK                         _______ _______ _______ _____ _____    ______ ____
ROOT
ATOM      1  C   UNL     1      -0.454   1.522  -0.340  0.00  0.00    +0.028 C 
ATOM      2  C   UNL     1      -0.211   0.020  -0.182  0.00  0.00    +0.071 C 
ATOM      3  C   UNL     1       0.515  -0.523  -1.420  0.00  0.00    +0.039 C 
ATOM      4  C   UNL     1       0.684  -2.034  -1.270  0.00  0.00    +0.108 C 
ATOM      5  C   UNL     1       1.305  -2.366   0.062  0.00  0.00    -0.014 A 
ATOM      6  C   UNL     1       1.929  -3.591   0.224  0.00  0.00    +0.006 A 
ATOM      7  C   UNL     1       2.505  -3.926   1.433  0.00  0.00    +0.000 A 
ATOM      8  C   UNL     1       2.462  -3.038   2.493  0.00  0.00    +0.002 A 
ATOM      9  C   UNL     1       1.842  -1.814   2.340  0.00  0.00    +0.023 A 
ATOM     10  C   UNL     1       1.262  -1.474   1.122  0.00  0.00    +0.034 A 
ATOM     11  N   UNL     1       0.646  -0.226   0.986  0.00  0.00    -0.326 N 
ENDROOT
BRANCH   4  12
ATOM     12  C   UNL     1       1.575  -2.547  -2.372  0.00  0.00    +0.218 C 
ATOM     13  O   UNL     1       2.507  -1.875  -2.760  0.00  0.00    -0.275 OA
ATOM     14  N   UNL     1       1.337  -3.753  -2.925  0.00  0.00    -0.329 N 
ATOM     15  H   UNL     1       0.551  -4.259  -2.665  0.00  0.00    +0.145 HD
ATOM     16  H   UNL     1       1.952  -4.115  -3.582  0.00  0.00    +0.145 HD
ENDBRANCH   4  12
BRANCH  11  17
ATOM     17  C   UNL     1       0.852   0.821   1.991  0.00  0.00    +0.114 C 
BRANCH  17  18
ATOM     18  C   UNL     1      -0.218   0.703   3.078  0.00  0.00    +0.114 C 
BRANCH  18  19
ATOM     19  C   UNL     1      -0.006   1.779   4.111  0.00  0.00    +0.215 C 
ATOM     20  O   UNL     1       0.912   2.563   3.990  0.00  0.00    -0.276 OA
ATOM     21  N   UNL     1      -0.835   1.870   5.169  0.00  0.00    -0.315 N 
ATOM     22  H   UNL     1      -1.569   1.243   5.266  0.00  0.00    +0.149 HD
BRANCH  21  23
ATOM     23  C   UNL     1      -0.628   2.917   6.174  0.00  0.00    +0.107 C 
BRANCH  23  24
ATOM     24  C   UNL     1      -1.699   2.799   7.260  0.00  0.00    +0.006 C 
ATOM     25  C   UNL     1      -3.074   3.085   6.655  0.00  0.00    +0.005 C 
ATOM     26  C   UNL     1      -4.145   2.967   7.741  0.00  0.00    +0.000 C 
ATOM     27  C   UNL     1      -3.856   3.978   8.853  0.00  0.00    +0.000 C 
ATOM     28  C   UNL     1      -2.481   3.692   9.459  0.00  0.00    +0.000 C 
ATOM     29  C   UNL     1      -1.410   3.810   8.372  0.00  0.00    +0.005 C 
ENDBRANCH  23  24
ENDBRANCH  21  23
ENDBRANCH  18  19
ENDBRANCH  17  18
ENDBRANCH  11  17
TORSDOF 6
