REMARK  Name = ZINC48775364
REMARK  7 active torsions:
REMARK  status: ('A' for Active; 'I' for Inactive)
REMARK    1  A    between atoms: C_1  and  C_2
REMARK    2  A    between atoms: C_4  and  C_8
REMARK    3  A    between atoms: C_5  and  C_7
REMARK    4  A    between atoms: C_8  and  C_10
REMARK    5  A    between atoms: C_10  and  N_11
REMARK    6  A    between atoms: C_14  and  C_18
REMARK    7  A    between atoms: C_14  and  C_19
REMARK                            x       y       z     vdW  Elec       q    Type
REMARK                         _______ _______ _______ _____ _____    ______ ____
ROOT
ATOM      1  C   UNL     1      -3.197  -2.907   0.000  0.00  0.00    +0.197 C 
ENDROOT
BRANCH   1   2
ATOM      2  N   UNL     1      -4.026  -4.115  -0.002  0.00  0.00    -0.217 N 
ATOM      3  C   UNL     1      -4.455  -4.737  -1.119  0.00  0.00    +0.246 C 
ATOM      4  O   UNL     1      -4.236  -4.413  -2.267  0.00  0.00    -0.273 OA
ATOM      5  C   UNL     1      -5.266  -5.924  -0.641  0.00  0.00    +0.107 C 
ATOM      6  N   UNL     1      -5.194  -5.825   0.827  0.00  0.00    -0.285 N 
ATOM      7  C   UNL     1      -4.445  -4.742   1.103  0.00  0.00    +0.310 C 
ATOM      8  O   UNL     1      -4.182  -4.371   2.230  0.00  0.00    -0.252 OA
ATOM      9  C   UNL     1      -6.716  -5.812  -1.117  0.00  0.00    +0.041 C 
ATOM     10  C   UNL     1      -4.640  -7.234  -1.123  0.00  0.00    +0.041 C 
ATOM     11  H   UNL     1      -5.603  -6.425   1.470  0.00  0.00    +0.151 HD
ENDBRANCH   1   2
BRANCH   1  12
ATOM     12  C   UNL     1      -1.741  -3.296  -0.009  0.00  0.00    +0.182 C 
ATOM     13  O   UNL     1      -1.427  -4.468  -0.017  0.00  0.00    -0.290 OA
BRANCH  12  17
ATOM     14  C   UNL     1      -0.018   1.503   0.010  0.00  0.00    +0.051 C 
ATOM     15  C   UNL     1       0.002  -0.004   0.002  0.00  0.00    -0.012 A 
ATOM     16  C   UNL     1      -1.042  -0.855   0.002  0.00  0.00    +0.022 A 
ATOM     17  C   UNL     1      -0.707  -2.260  -0.008  0.00  0.00    +0.029 A 
ATOM     18  C   UNL     1       0.637  -2.579  -0.016  0.00  0.00    -0.003 A 
ATOM     19  S   UNL     1       1.411  -1.090  -0.018  0.00  0.00    -0.098 S 
ATOM     20  C   UNL     1       1.264  -3.949  -0.027  0.00  0.00    +0.052 C 
ENDBRANCH  12  17
ENDBRANCH   1  12
TORSDOF 3
