REMARK  Name = ZINC04104313
REMARK  4 active torsions:
REMARK  status: ('A' for Active; 'I' for Inactive)
REMARK    1  A    between atoms: C_1  and  C_2
REMARK    2  A    between atoms: C_4  and  N_14
REMARK    3  A    between atoms: C_5  and  N_9
REMARK    4  A    between atoms: C_7  and  N_8
REMARK                            x       y       z     vdW  Elec       q    Type
REMARK                         _______ _______ _______ _____ _____    ______ ____
ROOT
ATOM      1  C   UNL     1       0.344  -1.427  -5.827  0.00  0.00    +0.046 C 
ATOM      2  C   UNL     1       0.046  -0.624  -4.586  0.00  0.00    -0.028 A 
ATOM      3  C   UNL     1       0.317   0.730  -4.559  0.00  0.00    +0.039 A 
ATOM      4  C   UNL     1       0.046   1.469  -3.424  0.00  0.00    +0.147 A 
ATOM      5  C   UNL     1      -0.501   0.852  -2.305  0.00  0.00    +0.062 A 
ATOM      6  C   UNL     1      -0.769  -0.509  -2.327  0.00  0.00    +0.048 A 
ATOM      7  C   UNL     1      -0.500  -1.248  -3.471  0.00  0.00    +0.029 A 
ENDROOT
BRANCH   5   8
ATOM      8  N   UNL     1      -0.776   1.600  -1.158  0.00  0.00    -0.328 N 
ATOM      9  C   UNL     1      -0.013   1.086   0.008  0.00  0.00    +0.105 C 
ATOM     10  C   UNL     1      -0.782   1.607   1.240  0.00  0.00    +0.020 C 
ATOM     11  C   UNL     1      -2.223   1.850   0.736  0.00  0.00    +0.020 C 
ATOM     12  C   UNL     1      -2.199   1.455  -0.756  0.00  0.00    +0.105 C 
ENDBRANCH   5   8
BRANCH   7  13
ATOM     13  N   UNL     1      -0.773  -2.617  -3.500  0.00  0.00    -0.358 N 
ATOM     14  H   UNL     1      -0.582  -3.134  -4.298  0.00  0.00    +0.142 HD
ATOM     15  H   UNL     1      -1.155  -3.052  -2.721  0.00  0.00    +0.142 HD
ENDBRANCH   7  13
BRANCH   4  16
ATOM     16  N   UNL     1       0.337   2.920  -3.399  0.00  0.00    +0.058 N 
ATOM     17  O   UNL     1       0.816   3.462  -4.379  0.00  0.00    -0.126 OA
ATOM     18  O   UNL     1       0.098   3.572  -2.399  0.00  0.00    -0.126 OA
ENDBRANCH   4  16
TORSDOF 3
