REMARK  Name = ZINC67381681
REMARK  12 active torsions:
REMARK  status: ('A' for Active; 'I' for Inactive)
REMARK    1  A    between atoms: C_1  and  C_2
REMARK    2  A    between atoms: C_2  and  C_4
REMARK    3  A    between atoms: C_2  and  N_15
REMARK    4  A    between atoms: C_8  and  S_10
REMARK    5  A    between atoms: S_10  and  N_13
REMARK    6  A    between atoms: N_13  and  C_14
REMARK    7  A    between atoms: N_18  and  C_19
REMARK    8  A    between atoms: C_19  and  C_20
REMARK    9  A    between atoms: C_20  and  C_22
REMARK   10  A    between atoms: C_20  and  N_27
REMARK   11  A    between atoms: N_27  and  C_28
REMARK   12  A    between atoms: N_27  and  C_29
REMARK                            x       y       z     vdW  Elec       q    Type
REMARK                         _______ _______ _______ _____ _____    ______ ____
ROOT
ATOM      1  N   UNL     1       0.531   0.352   1.859  0.00  0.00    -0.293 N 
ATOM      2  C   UNL     1      -0.093  -0.100   2.965  0.00  0.00    +0.300 C 
ATOM      3  O   UNL     1      -1.290   0.063   3.098  0.00  0.00    -0.253 OA
ATOM      4  N   UNL     1       0.612  -0.733   3.925  0.00  0.00    -0.301 N 
ATOM      5  H   UNL     1       1.486   0.222   1.753  0.00  0.00    +0.151 HD
ATOM      6  H   UNL     1       1.567  -0.863   3.819  0.00  0.00    +0.150 HD
ENDROOT
BRANCH   1   8
ATOM      7  C   UNL     1      -0.363   2.522   1.172  0.00  0.00    +0.033 C 
ATOM      8  C   UNL     1      -0.235   1.040   0.816  0.00  0.00    +0.102 C 
BRANCH   8   9
ATOM      9  C   UNL     1       0.477   0.900  -0.504  0.00  0.00    -0.026 A 
ATOM     10  C   UNL     1       1.855   0.991  -0.560  0.00  0.00    +0.005 A 
ATOM     11  C   UNL     1       2.508   0.863  -1.771  0.00  0.00    +0.002 A 
ATOM     12  C   UNL     1       1.783   0.642  -2.927  0.00  0.00    +0.028 A 
ATOM     13  C   UNL     1       0.405   0.549  -2.872  0.00  0.00    +0.106 A 
ATOM     14  C   UNL     1      -0.247   0.674  -1.659  0.00  0.00    +0.034 A 
BRANCH  13  15
ATOM     15  S   UNL     1      -0.519   0.269  -4.346  0.00  0.00    +0.058 S 
ATOM     16  O   UNL     1      -1.828   0.766  -4.105  0.00  0.00    -0.153 OA
ATOM     17  O   UNL     1       0.285   0.730  -5.423  0.00  0.00    -0.153 OA
BRANCH  15  18
ATOM     18  N   UNL     1      -0.662  -1.371  -4.529  0.00  0.00    -0.193 NA
ATOM     19  C   UNL     1      -1.420  -2.154  -3.551  0.00  0.00    +0.127 C 
ATOM     20  H   UNL     1      -0.243  -1.812  -5.284  0.00  0.00    +0.148 HD
ENDBRANCH  15  18
ENDBRANCH  13  15
ENDBRANCH   8   9
ENDBRANCH   1   8
BRANCH   4  21
ATOM     21  C   UNL     1      -0.066  -1.224   5.127  0.00  0.00    +0.098 C 
BRANCH  21  22
ATOM     22  C   UNL     1       0.927  -2.009   5.987  0.00  0.00    +0.016 C 
BRANCH  22  23
ATOM     23  C   UNL     1       1.996  -1.077   6.497  0.00  0.00    +0.093 A 
ATOM     24  C   UNL     1       2.046  -0.535   7.727  0.00  0.00    +0.043 A 
ATOM     25  C   UNL     1       3.209   0.269   7.773  0.00  0.00    +0.041 A 
ATOM     26  C   UNL     1       3.800   0.169   6.569  0.00  0.00    +0.195 A 
ATOM     27  O   UNL     1       3.064  -0.651   5.802  0.00  0.00    -0.469 OA
ENDBRANCH  22  23
BRANCH  22  28
ATOM     28  N   UNL     1       1.545  -3.068   5.178  0.00  0.00    +0.384 N 
ATOM     29  C   UNL     1       2.505  -3.815   6.002  0.00  0.00    -0.096 C 
ATOM     30  C   UNL     1       0.504  -3.981   4.689  0.00  0.00    -0.096 C 
ATOM     31  H   UNL     1       2.026  -2.654   4.393  0.00  0.00    -0.082 HD
ENDBRANCH  22  28
ENDBRANCH  21  22
ENDBRANCH   4  21
TORSDOF 8
