REMARK  Name = ZINC65383365
REMARK  3 active torsions:
REMARK  status: ('A' for Active; 'I' for Inactive)
REMARK    1  A    between atoms: C_1  and  C_2
REMARK    2  A    between atoms: C_11  and  C_13
REMARK    3  A    between atoms: C_13  and  C_14
REMARK                            x       y       z     vdW  Elec       q    Type
REMARK                         _______ _______ _______ _____ _____    ______ ____
ROOT
ATOM      1  C   UNL     1      -1.487  -3.723   2.638  0.00  0.00    +0.116 C 
ENDROOT
BRANCH   1   2
ATOM      2  C   UNL     1      -1.785  -4.741   1.568  0.00  0.00    +0.218 C 
ATOM      3  O   UNL     1      -2.084  -4.376   0.451  0.00  0.00    -0.276 OA
ATOM      4  N   UNL     1      -1.719  -6.057   1.852  0.00  0.00    -0.295 N 
ATOM      5  C   UNL     1      -2.001  -7.065   0.820  0.00  0.00    +0.114 C 
ATOM      6  C   UNL     1      -0.727  -7.877   0.550  0.00  0.00    +0.074 C 
ATOM      7  C   UNL     1      -0.099  -8.246   1.868  0.00  0.00    +0.039 A 
ATOM      8  N   UNL     1       0.827  -9.214   2.118  0.00  0.00    -0.349 N 
ATOM      9  C   UNL     1       1.095  -9.174   3.444  0.00  0.00    +0.171 A 
ATOM     10  N   UNL     1       0.371  -8.231   3.990  0.00  0.00    -0.348 N 
ATOM     11  C   UNL     1      -0.371  -7.648   3.047  0.00  0.00    +0.054 A 
ATOM     12  H   UNL     1       1.220  -9.818   1.468  0.00  0.00    +0.166 HD
ATOM     13  C   UNL     1      -1.357  -6.520   3.204  0.00  0.00    +0.162 C 
ATOM     14  H   UNL     1       0.374  -7.995   4.931  0.00  0.00    +0.166 HD
ENDBRANCH   1   2
BRANCH   1  24
ATOM     15  C   UNL     1      -0.018   1.503   0.010  0.00  0.00    +0.039 C 
ATOM     16  C   UNL     1       0.002  -0.004   0.002  0.00  0.00    -0.070 C 
ATOM     17  C   UNL     1       0.006  -0.675  -1.151  0.00  0.00    -0.000 C 
ATOM     18  C   UNL     1       0.032  -2.142  -1.191  0.00  0.00    +0.015 C 
ATOM     19  C   UNL     1      -0.303  -2.844  -0.083  0.00  0.00    +0.069 C 
ATOM     20  N   UNL     1      -0.622  -2.081   1.024  0.00  0.00    -0.344 N 
ATOM     21  C   UNL     1       0.025  -0.777   1.297  0.00  0.00    +0.043 C 
ATOM     22  N   UNL     1      -0.789  -0.112   2.333  0.00  0.00    +0.395 N 
ATOM     23  C   UNL     1      -1.311  -1.248   3.147  0.00  0.00    -0.056 C 
ATOM     24  C   UNL     1      -1.632  -2.315   2.058  0.00  0.00    +0.063 C 
ATOM     25  H   UNL     1      -0.216   0.497   2.898  0.00  0.00    -0.083 HD
ATOM     26  H   UNL     1      -1.548   0.403   1.912  0.00  0.00    -0.083 HD
ENDBRANCH   1  24
TORSDOF 2
