REMARK  Name = ZINC62506803
REMARK  9 active torsions:
REMARK  status: ('A' for Active; 'I' for Inactive)
REMARK    1  A    between atoms: C_1  and  C_2
REMARK    2  A    between atoms: C_2  and  C_3
REMARK    3  A    between atoms: C_2  and  N_8
REMARK    4  A    between atoms: C_3  and  C_4
REMARK    5  A    between atoms: C_4  and  N_5
REMARK    6  A    between atoms: N_5  and  C_6
REMARK    7  A    between atoms: N_5  and  C_7
REMARK    8  A    between atoms: N_11  and  N_12
REMARK    9  A    between atoms: C_13  and  C_15
REMARK                            x       y       z     vdW  Elec       q    Type
REMARK                         _______ _______ _______ _____ _____    ______ ____
ROOT
ATOM      1  N   UNL     1       0.688  -0.476  -1.203  0.00  0.00    -0.296 N 
ATOM      2  C   UNL     1       0.006  -0.608  -2.358  0.00  0.00    +0.316 C 
ATOM      3  O   UNL     1      -1.178  -0.335  -2.400  0.00  0.00    -0.251 OA
ATOM      4  N   UNL     1       0.637  -1.043  -3.467  0.00  0.00    -0.218 N 
ATOM      5  H   UNL     1       1.632  -0.695  -1.170  0.00  0.00    +0.151 HD
ATOM      6  H   UNL     1       0.146  -1.137  -4.299  0.00  0.00    +0.174 HD
ENDROOT
BRANCH   4   7
ATOM      7  N   UNL     1       2.001  -1.358  -3.419  0.00  0.00    -0.229 N 
ATOM      8  C   UNL     1       2.632  -1.792  -4.528  0.00  0.00    +0.267 C 
ATOM      9  O   UNL     1       2.017  -1.911  -5.571  0.00  0.00    -0.268 OA
ATOM     10  H   UNL     1       2.492  -1.263  -2.588  0.00  0.00    +0.173 HD
BRANCH   8  11
ATOM     11  C   UNL     1       4.060  -2.122  -4.478  0.00  0.00    +0.076 A 
ATOM     12  C   UNL     1       4.886  -2.572  -5.488  0.00  0.00    +0.024 A 
ATOM     13  C   UNL     1       6.218  -2.810  -5.157  0.00  0.00    -0.036 A 
ATOM     14  C   UNL     1       6.572  -2.575  -3.866  0.00  0.00    -0.006 A 
ATOM     15  S   UNL     1       5.185  -2.039  -3.098  0.00  0.00    -0.088 S 
ATOM     16  C   UNL     1       7.923  -2.751  -3.237  0.00  0.00    +0.043 C 
ATOM     17  C   UNL     1       9.010  -2.551  -4.299  0.00  0.00    +0.005 C 
ATOM     18  C   UNL     1       9.301  -3.897  -4.957  0.00  0.00    +0.001 C 
ATOM     19  C   UNL     1       8.049  -4.444  -5.637  0.00  0.00    +0.005 C 
ATOM     20  C   UNL     1       7.210  -3.304  -6.204  0.00  0.00    +0.036 C 
ENDBRANCH   8  11
ENDBRANCH   4   7
BRANCH   1  22
ATOM     21  C   UNL     1      -0.019   1.526   0.010  0.00  0.00    +0.028 C 
ATOM     22  C   UNL     1       0.002  -0.004   0.002  0.00  0.00    +0.070 C 
BRANCH  22  23
ATOM     23  C   UNL     1       0.742  -0.511   1.242  0.00  0.00    +0.003 C 
BRANCH  23  24
ATOM     24  C   UNL     1       0.655  -2.037   1.299  0.00  0.00    -0.078 C 
BRANCH  24  25
ATOM     25  N   UNL     1       1.366  -2.524   2.489  0.00  0.00    +0.376 N 
ATOM     26  C   UNL     1       1.182  -3.977   2.609  0.00  0.00    -0.097 C 
ATOM     27  C   UNL     1       2.798  -2.220   2.362  0.00  0.00    -0.097 C 
ATOM     28  H   UNL     1       0.997  -2.069   3.310  0.00  0.00    -0.083 HD
ENDBRANCH  24  25
ENDBRANCH  23  24
ENDBRANCH  22  23
ENDBRANCH   1  22
TORSDOF 6
