REMARK  Name = ZINC49988037
REMARK  7 active torsions:
REMARK  status: ('A' for Active; 'I' for Inactive)
REMARK    1  A    between atoms: C_1  and  C_2
REMARK    2  A    between atoms: C_2  and  C_3
REMARK    3  A    between atoms: C_6  and  N_9
REMARK    4  A    between atoms: N_9  and  C_10
REMARK    5  A    between atoms: N_9  and  C_11
REMARK    6  A    between atoms: C_12  and  C_20
REMARK    7  A    between atoms: C_20  and  N_21
REMARK                            x       y       z     vdW  Elec       q    Type
REMARK                         _______ _______ _______ _____ _____    ______ ____
ROOT
ATOM      1  C   UNL     1       2.030  -2.040   5.790  0.00  0.00    +0.123 A 
ATOM      2  C   UNL     1       1.786  -1.067   6.705  0.00  0.00    +0.046 A 
ATOM      3  N   UNL     1       1.060  -1.640   7.717  0.00  0.00    -0.305 N 
ATOM      4  C   UNL     1       0.545  -1.141   8.878  0.00  0.00    +0.093 A 
ATOM      5  C   UNL     1      -0.147  -1.937   9.721  0.00  0.00    +0.018 A 
ATOM      6  C   UNL     1      -0.347  -3.292   9.412  0.00  0.00    +0.005 A 
ATOM      7  C   UNL     1       0.161  -3.801   8.256  0.00  0.00    +0.045 A 
ATOM      8  C   UNL     1       0.880  -2.958   7.387  0.00  0.00    +0.117 A 
ATOM      9  N   UNL     1       1.469  -3.176   6.218  0.00  0.00    -0.328 N 
ATOM     10  H   UNL     1       1.491  -4.025   5.750  0.00  0.00    +0.169 HD
ENDROOT
BRANCH   1  11
ATOM     11  N   UNL     1       2.745  -1.879   4.596  0.00  0.00    -0.288 N 
ATOM     12  C   UNL     1       4.173  -2.201   4.548  0.00  0.00    +0.137 C 
BRANCH  11  16
ATOM     13  C   UNL     1       0.809  -0.488   1.181  0.00  0.00    -0.048 A 
ATOM     14  C   UNL     1       2.179  -0.677   1.169  0.00  0.00    +0.005 A 
ATOM     15  C   UNL     1       2.824  -1.138   2.300  0.00  0.00    +0.024 A 
ATOM     16  C   UNL     1       2.095  -1.412   3.450  0.00  0.00    +0.035 A 
ATOM     17  C   UNL     1       0.719  -1.221   3.459  0.00  0.00    +0.024 A 
ATOM     18  C   UNL     1       0.081  -0.755   2.327  0.00  0.00    +0.005 A 
BRANCH  13  20
ATOM     19  C   UNL     1       0.068   1.544  -0.031  0.00  0.00    +0.009 C 
ATOM     20  C   UNL     1       0.108   0.014  -0.054  0.00  0.00    +0.032 C 
ENDBRANCH  13  20
ENDBRANCH  11  16
ENDBRANCH   1  11
BRANCH   2  21
ATOM     21  C   UNL     1       2.229   0.371   6.624  0.00  0.00    -0.028 C 
BRANCH  21  22
ATOM     22  N   UNL     1       3.489   0.537   7.361  0.00  0.00    +0.382 N 
ATOM     23  H   UNL     1       3.349   0.282   8.327  0.00  0.00    -0.090 HD
ATOM     24  H   UNL     1       4.197  -0.057   6.955  0.00  0.00    -0.090 HD
ATOM     25  H   UNL     1       3.786   1.500   7.306  0.00  0.00    -0.090 HD
ENDBRANCH  21  22
ENDBRANCH   2  21
TORSDOF 5
