REMARK  Name = ZINC10608292
REMARK  11 active torsions:
REMARK  status: ('A' for Active; 'I' for Inactive)
REMARK    1  A    between atoms: C_1  and  C_2
REMARK    2  A    between atoms: C_2  and  C_3
REMARK    3  A    between atoms: C_3  and  N_4
REMARK    4  A    between atoms: C_5  and  C_7
REMARK    5  A    between atoms: C_7  and  N_48
REMARK    6  A    between atoms: C_8  and  N_48
REMARK    7  A    between atoms: C_9  and  C_10
REMARK    8  A    between atoms: C_9  and  N_48
REMARK    9  A    between atoms: N_12  and  C_13
REMARK   10  A    between atoms: C_16  and  C_22
REMARK   11  A    between atoms: C_23  and  C_25
REMARK                            x       y       z     vdW  Elec       q    Type
REMARK                         _______ _______ _______ _____ _____    ______ ____
ROOT
ATOM      1  C   UNL     1      -2.530  -0.317   4.493  0.00  0.00    +0.203 C 
ATOM      2  O   UNL     1      -2.060  -1.078   3.673  0.00  0.00    -0.277 OA
ATOM      3  N   UNL     1      -2.439   1.014   4.307  0.00  0.00    -0.257 N 
ATOM      4  H   UNL     1      -2.815   1.622   4.962  0.00  0.00    +0.158 HD
ENDROOT
BRANCH   3   5
ATOM      5  C   UNL     1      -1.808   1.515   3.181  0.00  0.00    +0.206 A 
ATOM      6  C   UNL     1      -1.647   2.843   2.871  0.00  0.00    +0.110 A 
ATOM      7  C   UNL     1      -0.913   2.865   1.581  0.00  0.00    +0.053 A 
ATOM      8  C   UNL     1      -0.592   4.173   1.001  0.00  0.00    +0.070 A 
ATOM      9  N   UNL     1      -0.949   5.255   1.621  0.00  0.00    -0.175 NA
ATOM     10  N   UNL     1      -1.635   5.260   2.833  0.00  0.00    -0.242 N 
ATOM     11  H   UNL     1      -1.866   6.113   3.233  0.00  0.00    +0.192 HD
ATOM     12  C   UNL     1      -1.998   4.127   3.470  0.00  0.00    +0.277 A 
ATOM     13  O   UNL     1      -2.596   4.175   4.529  0.00  0.00    -0.266 OA
ATOM     14  C   UNL     1       0.148   4.259  -0.308  0.00  0.00    +0.068 C 
ATOM     15  C   UNL     1      -0.718   1.572   1.248  0.00  0.00    +0.114 A 
ATOM     16  O   UNL     1      -1.249   0.785   2.203  0.00  0.00    -0.445 OA
ATOM     17  C   UNL     1      -0.013   1.086   0.008  0.00  0.00    +0.087 C 
ENDBRANCH   3   5
BRANCH   1  18
ATOM     18  C   UNL     1      -3.217  -0.862   5.719  0.00  0.00    +0.019 C 
BRANCH  18  20
ATOM     19  C   UNL     1      -1.808  -2.829   5.807  0.00  0.00    -0.095 C 
ATOM     20  N   UNL     1      -3.194  -2.339   5.661  0.00  0.00    +0.389 N 
ATOM     21  H   UNL     1      -3.562  -2.643   4.752  0.00  0.00    -0.081 HD
BRANCH  20  22
ATOM     22  C   UNL     1      -4.043  -2.899   6.734  0.00  0.00    +0.019 C 
BRANCH  22  24
ATOM     23  N   UNL     1      -4.928  -5.121   7.365  0.00  0.00    -0.317 N 
ATOM     24  C   UNL     1      -4.180  -4.384   6.520  0.00  0.00    +0.196 C 
ATOM     25  O   UNL     1      -3.617  -4.917   5.587  0.00  0.00    -0.278 OA
ATOM     26  H   UNL     1      -5.378  -4.695   8.112  0.00  0.00    +0.149 HD
BRANCH  23  27
ATOM     27  C   UNL     1      -5.060  -6.565   7.157  0.00  0.00    +0.104 C 
BRANCH  27  29
ATOM     28  C   UNL     1      -6.094  -8.665   8.031  0.00  0.00    +0.005 C 
ATOM     29  C   UNL     1      -5.955  -7.157   8.248  0.00  0.00    +0.015 C 
ENDBRANCH  27  29
ENDBRANCH  23  27
ENDBRANCH  22  24
ENDBRANCH  20  22
ENDBRANCH  18  20
ENDBRANCH   1  18
TORSDOF 7
