REMARK  Name = ZINC42142047
REMARK  5 active torsions:
REMARK  status: ('A' for Active; 'I' for Inactive)
REMARK    1  A    between atoms: C_6  and  N_7
REMARK    2  A    between atoms: C_10  and  S_12
REMARK    3  A    between atoms: S_12  and  C_13
REMARK    4  A    between atoms: C_13  and  C_14
REMARK    5  A    between atoms: C_14  and  N_15
REMARK                            x       y       z     vdW  Elec       q    Type
REMARK                         _______ _______ _______ _____ _____    ______ ____
ROOT
ATOM      1  C   UNL     1      -0.017   1.388   0.010  0.00  0.00    +0.025 A 
ATOM      2  C   UNL     1       1.161   2.101   0.002  0.00  0.00    +0.032 A 
ATOM      3  C   UNL     1       2.383   1.426  -0.013  0.00  0.00    +0.090 A 
ATOM      4  C   UNL     1       2.400   0.021  -0.021  0.00  0.00    +0.069 A 
ATOM      5  C   UNL     1       1.208  -0.686  -0.014  0.00  0.00    +0.050 A 
ATOM      6  C   UNL     1       0.002  -0.004   0.002  0.00  0.00    +0.027 A 
ATOM      7  N   UNL     1       3.735  -0.348  -0.035  0.00  0.00    -0.333 N 
ATOM      8  H   UNL     1       4.081  -1.255  -0.044  0.00  0.00    +0.168 HD
ATOM      9  C   UNL     1       4.474   0.802  -0.036  0.00  0.00    +0.167 A 
ATOM     10  N   UNL     1       3.679   1.842  -0.023  0.00  0.00    -0.222 NA
ENDROOT
BRANCH   6  11
ATOM     11  N   UNL     1      -1.202  -0.717   0.010  0.00  0.00    -0.358 N 
ATOM     12  H   UNL     1      -2.047  -0.242   0.020  0.00  0.00    +0.142 HD
ATOM     13  H   UNL     1      -1.191  -1.687   0.004  0.00  0.00    +0.142 HD
ENDBRANCH   6  11
BRANCH   9  14
ATOM     14  S   UNL     1       6.235   0.874  -0.052  0.00  0.00    -0.086 S 
BRANCH  14  15
ATOM     15  C   UNL     1       6.601   2.650  -0.046  0.00  0.00    +0.096 C 
BRANCH  15  16
ATOM     16  C   UNL     1       8.117   2.858  -0.059  0.00  0.00    +0.120 C 
BRANCH  16  17
ATOM     17  N   UNL     1       8.413   4.293  -0.054  0.00  0.00    -0.283 N 
ATOM     18  C   UNL     1       8.569   5.135  -1.250  0.00  0.00    +0.128 C 
ATOM     19  C   UNL     1       8.866   6.535  -0.680  0.00  0.00    +0.124 C 
ATOM     20  N   UNL     1       8.847   6.334   0.777  0.00  0.00    -0.298 N 
ATOM     21  C   UNL     1       8.579   5.048   1.040  0.00  0.00    +0.302 C 
ATOM     22  O   UNL     1       8.499   4.605   2.169  0.00  0.00    -0.253 OA
ATOM     23  H   UNL     1       8.999   7.023   1.442  0.00  0.00    +0.150 HD
ENDBRANCH  16  17
ENDBRANCH  15  16
ENDBRANCH  14  15
ENDBRANCH   9  14
TORSDOF 5
