REMARK  Name = ZINC26330672
REMARK  6 active torsions:
REMARK  status: ('A' for Active; 'I' for Inactive)
REMARK    1  A    between atoms: C_1  and  C_2
REMARK    2  A    between atoms: C_2  and  C_3
REMARK    3  A    between atoms: C_2  and  C_4
REMARK    4  A    between atoms: C_2  and  C_5
REMARK    5  A    between atoms: N_8  and  C_11
REMARK    6  A    between atoms: N_15  and  N_18
REMARK                            x       y       z     vdW  Elec       q    Type
REMARK                         _______ _______ _______ _____ _____    ______ ____
ROOT
ATOM      1  C   UNL     1       2.631  -1.814  -4.620  0.00  0.00    +0.163 C 
ATOM      2  C   UNL     1       2.335  -1.483  -5.910  0.00  0.00    +0.266 C 
ATOM      3  C   UNL     1       3.304  -2.210  -6.762  0.00  0.00    +0.255 C 
ATOM      4  O   UNL     1       3.355  -2.167  -7.974  0.00  0.00    -0.491 OA
ATOM      5  N   UNL     1       4.117  -2.927  -5.967  0.00  0.00    -0.147 N 
ATOM      6  C   UNL     1       3.784  -2.739  -4.678  0.00  0.00    +0.291 C 
ATOM      7  O   UNL     1       4.336  -3.245  -3.722  0.00  0.00    -0.266 OA
ATOM      8  O   UNL     1       1.349  -0.654  -6.329  0.00  0.00    -0.280 OA
ATOM      9  H   UNL     1       2.686  -1.596  -8.376  0.00  0.00    +0.294 HD
ENDROOT
BRANCH   5  10
ATOM     10  N   UNL     1       5.163  -3.744  -6.415  0.00  0.00    -0.223 N 
ATOM     11  C   UNL     1       6.475  -3.326  -6.280  0.00  0.00    +0.232 A 
ATOM     12  N   UNL     1       6.725  -2.152  -5.720  0.00  0.00    -0.222 NA
ATOM     13  C   UNL     1       7.968  -1.722  -5.575  0.00  0.00    +0.116 A 
ATOM     14  C   UNL     1       9.014  -2.517  -6.019  0.00  0.00    +0.039 A 
ATOM     15  C   UNL     1       8.716  -3.739  -6.600  0.00  0.00    +0.116 A 
ATOM     16  N   UNL     1       7.452  -4.112  -6.710  0.00  0.00    -0.222 NA
ATOM     17  H   UNL     1       4.967  -4.604  -6.820  0.00  0.00    +0.174 HD
ENDBRANCH   5  10
BRANCH   1  21
ATOM     18  C   UNL     1       0.707  -0.490  -1.238  0.00  0.00    -0.039 A 
ATOM     19  C   UNL     1       0.047  -1.288  -2.162  0.00  0.00    +0.022 A 
ATOM     20  C   UNL     1       0.722  -1.716  -3.287  0.00  0.00    +0.092 A 
ATOM     21  N   UNL     1       1.988  -1.372  -3.489  0.00  0.00    -0.316 N 
ATOM     22  C   UNL     1       2.647  -0.610  -2.625  0.00  0.00    +0.092 A 
ATOM     23  C   UNL     1       2.029  -0.144  -1.483  0.00  0.00    +0.022 A 
BRANCH  18  25
ATOM     24  C   UNL     1      -0.019   1.526   0.010  0.00  0.00    +0.015 C 
ATOM     25  C   UNL     1       0.002  -0.004   0.002  0.00  0.00    -0.013 C 
ATOM     26  C   UNL     1       0.742  -0.511   1.242  0.00  0.00    +0.015 C 
ATOM     27  C   UNL     1      -1.433  -0.534   0.013  0.00  0.00    +0.015 C 
ENDBRANCH  18  25
ENDBRANCH   1  21
TORSDOF 3
