REMARK  Name = ZINC67003110
REMARK  13 active torsions:
REMARK  status: ('A' for Active; 'I' for Inactive)
REMARK    1  A    between atoms: C_1  and  N_2
REMARK    2  A    between atoms: N_2  and  C_3
REMARK    3  A    between atoms: N_2  and  C_4
REMARK    4  A    between atoms: C_4  and  C_6
REMARK    5  A    between atoms: C_4  and  C_23
REMARK    6  A    between atoms: C_6  and  N_7
REMARK    7  A    between atoms: N_10  and  C_11
REMARK    8  A    between atoms: C_11  and  C_12
REMARK    9  A    between atoms: C_14  and  O_21
REMARK   10  A    between atoms: C_15  and  O_20
REMARK   11  A    between atoms: C_16  and  O_18
REMARK   12  A    between atoms: O_18  and  C_19
REMARK   13  A    between atoms: O_21  and  C_22
REMARK                            x       y       z     vdW  Elec       q    Type
REMARK                         _______ _______ _______ _____ _____    ______ ____
ROOT
ATOM      1  N   UNL     1      -0.871  -2.415   1.123  0.00  0.00    -0.301 N 
ATOM      2  C   UNL     1      -0.780  -3.743   1.332  0.00  0.00    +0.300 C 
ATOM      3  O   UNL     1      -1.310  -4.517   0.558  0.00  0.00    -0.253 OA
ATOM      4  N   UNL     1      -0.102  -4.213   2.398  0.00  0.00    -0.295 N 
ATOM      5  H   UNL     1      -0.448  -1.797   1.740  0.00  0.00    +0.150 HD
ATOM      6  H   UNL     1       0.320  -3.595   3.015  0.00  0.00    +0.151 HD
ENDROOT
BRANCH   1   7
ATOM      7  C   UNL     1      -1.607  -1.903  -0.035  0.00  0.00    +0.091 C 
BRANCH   7   8
ATOM      8  C   UNL     1      -1.399  -0.392  -0.146  0.00  0.00    -0.049 C 
BRANCH   8   9
ATOM      9  C   UNL     1      -2.352   0.179  -1.198  0.00  0.00    -0.023 C 
ATOM     10  C   UNL     1      -2.066   1.669  -1.390  0.00  0.00    +0.002 C 
ATOM     11  C   UNL     1      -3.019   2.240  -2.443  0.00  0.00    +0.000 C 
ATOM     12  C   UNL     1      -4.464   2.054  -1.976  0.00  0.00    +0.000 C 
ATOM     13  C   UNL     1      -4.750   0.563  -1.784  0.00  0.00    +0.000 C 
ATOM     14  C   UNL     1      -3.797  -0.007  -0.732  0.00  0.00    +0.002 C 
ENDBRANCH   8   9
BRANCH   8  16
ATOM     15  C   UNL     1       0.904  -0.660   0.472  0.00  0.00    -0.096 C 
ATOM     16  N   UNL     1      -0.011  -0.116  -0.541  0.00  0.00    +0.379 N 
ATOM     17  C   UNL     1       0.263  -0.748  -1.839  0.00  0.00    -0.096 C 
ATOM     18  H   UNL     1       0.125   0.881  -0.617  0.00  0.00    -0.082 HD
ENDBRANCH   8  16
ENDBRANCH   7   8
ENDBRANCH   1   7
BRANCH   4  19
ATOM     19  C   UNL     1      -0.004  -5.657   2.625  0.00  0.00    +0.141 C 
BRANCH  19  20
ATOM     20  C   UNL     1       0.799  -5.916   3.873  0.00  0.00    -0.023 A 
ATOM     21  C   UNL     1       2.171  -6.063   3.792  0.00  0.00    +0.054 A 
ATOM     22  C   UNL     1       2.914  -6.301   4.938  0.00  0.00    +0.165 A 
ATOM     23  C   UNL     1       2.277  -6.393   6.170  0.00  0.00    +0.201 A 
ATOM     24  C   UNL     1       0.898  -6.244   6.248  0.00  0.00    +0.165 A 
ATOM     25  C   UNL     1       0.163  -6.000   5.097  0.00  0.00    +0.054 A 
BRANCH  24  26
ATOM     26  O   UNL     1       0.270  -6.332   7.451  0.00  0.00    -0.491 OA
ATOM     27  C   UNL     1      -1.150  -6.169   7.455  0.00  0.00    +0.277 C 
ENDBRANCH  24  26
BRANCH  23  28
ATOM     28  O   UNL     1       3.003  -6.627   7.297  0.00  0.00    -0.501 OA
ATOM     29  H   UNL     1       3.313  -5.825   7.740  0.00  0.00    +0.292 HD
ENDBRANCH  23  28
BRANCH  22  30
ATOM     30  O   UNL     1       4.264  -6.447   4.857  0.00  0.00    -0.491 OA
ATOM     31  C   UNL     1       4.851  -6.341   3.558  0.00  0.00    +0.277 C 
ENDBRANCH  22  30
ENDBRANCH  19  20
ENDBRANCH   4  19
TORSDOF 9
