REMARK  Name = ZINC39683927
REMARK  9 active torsions:
REMARK  status: ('A' for Active; 'I' for Inactive)
REMARK    1  A    between atoms: C_1  and  C_2
REMARK    2  A    between atoms: C_2  and  S_3
REMARK    3  A    between atoms: S_3  and  C_4
REMARK    4  A    between atoms: C_5  and  C_10
REMARK    5  A    between atoms: C_14  and  C_23
REMARK    6  A    between atoms: N_25  and  C_26
REMARK    7  A    between atoms: C_26  and  C_28
REMARK    8  A    between atoms: C_26  and  C_29
REMARK    9  A    between atoms: N_31  and  C_32
REMARK                            x       y       z     vdW  Elec       q    Type
REMARK                         _______ _______ _______ _____ _____    ______ ____
ROOT
ATOM      1  C   UNL     1       1.889  -2.661  -3.423  0.00  0.00    +0.249 C 
ATOM      2  O   UNL     1       1.893  -1.447  -3.501  0.00  0.00    -0.270 OA
ATOM      3  N   UNL     1       2.583  -3.395  -4.315  0.00  0.00    -0.296 N 
ATOM      4  C   UNL     1       2.615  -4.871  -4.447  0.00  0.00    +0.121 C 
ATOM      5  C   UNL     1       2.626  -5.126  -5.971  0.00  0.00    +0.100 C 
ATOM      6  C   UNL     1       3.200  -3.837  -6.581  0.00  0.00    -0.004 C 
ATOM      7  C   UNL     1       3.481  -2.909  -5.390  0.00  0.00    +0.115 C 
ATOM      8  C   UNL     1       2.179  -3.193  -7.513  0.00  0.00    -0.010 C 
ATOM      9  C   UNL     1       2.793  -1.944  -8.152  0.00  0.00    -0.082 C 
ATOM     10  N   UNL     1       4.000  -2.317  -8.899  0.00  0.00    +0.379 N 
ATOM     11  C   UNL     1       5.013  -2.850  -7.980  0.00  0.00    -0.082 C 
ATOM     12  C   UNL     1       4.492  -4.138  -7.334  0.00  0.00    -0.010 C 
ATOM     13  H   UNL     1       3.766  -3.020  -9.584  0.00  0.00    -0.086 HD
ATOM     14  H   UNL     1       4.369  -1.504  -9.368  0.00  0.00    -0.086 HD
ENDROOT
BRANCH   1  16
ATOM     15  C   UNL     1      -0.103  -2.803  -1.916  0.00  0.00    +0.109 A 
ATOM     16  C   UNL     1       1.126  -3.328  -2.353  0.00  0.00    +0.069 A 
ATOM     17  C   UNL     1       1.611  -4.496  -1.755  0.00  0.00    +0.017 A 
ATOM     18  C   UNL     1       0.857  -5.085  -0.755  0.00  0.00    +0.020 A 
ATOM     19  C   UNL     1      -0.344  -4.509  -0.378  0.00  0.00    +0.112 A 
ATOM     20  N   UNL     1      -0.782  -3.405  -0.951  0.00  0.00    -0.248 NA
BRANCH  15  21
ATOM     21  S   UNL     1      -0.740  -1.333  -2.650  0.00  0.00    -0.105 S 
BRANCH  21  23
ATOM     22  C   UNL     1      -2.969   0.217  -2.323  0.00  0.00    +0.015 C 
ATOM     23  C   UNL     1      -2.303  -1.047  -1.776  0.00  0.00    +0.072 C 
ENDBRANCH  21  23
ENDBRANCH  15  21
ENDBRANCH   1  16
BRANCH   5  24
ATOM     24  C   UNL     1       3.508  -6.303  -6.300  0.00  0.00    +0.219 C 
ATOM     25  O   UNL     1       4.474  -6.549  -5.608  0.00  0.00    -0.275 OA
ATOM     26  N   UNL     1       3.225  -7.082  -7.362  0.00  0.00    -0.304 N 
ATOM     27  H   UNL     1       2.452  -6.886  -7.915  0.00  0.00    +0.149 HD
BRANCH  26  28
ATOM     28  C   UNL     1       4.082  -8.226  -7.681  0.00  0.00    +0.156 C 
ATOM     29  C   UNL     1       3.642  -9.439  -6.859  0.00  0.00    +0.038 C 
BRANCH  28  30
ATOM     30  C   UNL     1       3.967  -8.546  -9.150  0.00  0.00    +0.233 C 
ATOM     31  O   UNL     1       3.241  -7.883  -9.859  0.00  0.00    -0.274 OA
ATOM     32  N   UNL     1       4.672  -9.568  -9.674  0.00  0.00    -0.317 N 
ATOM     33  C   UNL     1       4.561  -9.878 -11.101  0.00  0.00    +0.128 C 
ATOM     34  H   UNL     1       5.254 -10.098  -9.106  0.00  0.00    +0.148 HD
ENDBRANCH  28  30
ENDBRANCH  26  28
ENDBRANCH   5  24
TORSDOF 6
