REMARK  Name = ZINC62238095
REMARK  5 active torsions:
REMARK  status: ('A' for Active; 'I' for Inactive)
REMARK    1  A    between atoms: C_3  and  C_19
REMARK    2  A    between atoms: C_5  and  N_7
REMARK    3  A    between atoms: C_8  and  C_14
REMARK    4  A    between atoms: C_9  and  C_12
REMARK    5  A    between atoms: C_12  and  N_13
REMARK                            x       y       z     vdW  Elec       q    Type
REMARK                         _______ _______ _______ _____ _____    ______ ____
ROOT
ATOM      1  N   UNL     1       1.237  -2.082  -0.022  0.00  0.00    -0.209 N 
ATOM      2  C   UNL     1       0.355  -2.924   0.606  0.00  0.00    +0.131 A 
ATOM      3  C   UNL     1       0.767  -4.195   0.320  0.00  0.00    +0.077 A 
ATOM      4  N   UNL     1       1.851  -4.132  -0.448  0.00  0.00    -0.135 NA
ATOM      5  N   UNL     1       2.162  -2.906  -0.681  0.00  0.00    -0.060 NA
ENDROOT
BRANCH   1  10
ATOM      6  C   UNL     1      -0.017   1.377   0.010  0.00  0.00    +0.003 A 
ATOM      7  C   UNL     1       1.171   2.086   0.002  0.00  0.00    +0.012 A 
ATOM      8  C   UNL     1       2.380   1.415  -0.013  0.00  0.00    +0.057 A 
ATOM      9  C   UNL     1       2.405   0.034  -0.022  0.00  0.00    +0.040 A 
ATOM     10  C   UNL     1       1.215  -0.680  -0.014  0.00  0.00    +0.068 A 
ATOM     11  C   UNL     1       0.002  -0.004   0.002  0.00  0.00    +0.028 A 
BRANCH   8  12
ATOM     12  C   UNL     1       3.671   2.192  -0.022  0.00  0.00    +0.417 C 
ATOM     13  F   UNL     1       3.391   3.562  -0.012  0.00  0.00    -0.166 F 
ATOM     14  F   UNL     1       4.422   1.861   1.111  0.00  0.00    -0.166 F 
ATOM     15  F   UNL     1       4.399   1.873  -1.173  0.00  0.00    -0.166 F 
ENDBRANCH   8  12
ENDBRANCH   1  10
BRANCH   2  16
ATOM     16  C   UNL     1      -0.805  -2.535   1.427  0.00  0.00    +0.155 A 
ATOM     17  C   UNL     1      -0.819  -1.565   2.383  0.00  0.00    +0.051 A 
ATOM     18  C   UNL     1      -2.125  -1.533   2.909  0.00  0.00    +0.042 A 
ATOM     19  C   UNL     1      -2.837  -2.473   2.256  0.00  0.00    +0.196 A 
ATOM     20  O   UNL     1      -2.038  -3.073   1.358  0.00  0.00    -0.461 OA
ENDBRANCH   2  16
BRANCH   3  21
ATOM     21  C   UNL     1       0.102  -5.461   0.797  0.00  0.00    -0.026 C 
BRANCH  21  22
ATOM     22  N   UNL     1      -0.915  -5.877  -0.177  0.00  0.00    +0.382 N 
ATOM     23  H   UNL     1      -1.607  -5.149  -0.273  0.00  0.00    -0.090 HD
ATOM     24  H   UNL     1      -0.476  -6.044  -1.071  0.00  0.00    -0.090 HD
ATOM     25  H   UNL     1      -1.360  -6.725   0.142  0.00  0.00    -0.090 HD
ENDBRANCH  21  22
ENDBRANCH   3  21
TORSDOF 5
