REMARK  Name = ZINC20464465
REMARK  12 active torsions:
REMARK  status: ('A' for Active; 'I' for Inactive)
REMARK    1  A    between atoms: C_1  and  C_2
REMARK    2  A    between atoms: C_2  and  C_3
REMARK    3  A    between atoms: C_2  and  N_4
REMARK    4  A    between atoms: N_4  and  C_5
REMARK    5  A    between atoms: C_5  and  C_6
REMARK    6  A    between atoms: C_8  and  O_33
REMARK    7  A    between atoms: C_10  and  O_32
REMARK    8  A    between atoms: C_12  and  C_15
REMARK    9  A    between atoms: C_15  and  C_16
REMARK   10  A    between atoms: N_21  and  C_24
REMARK   11  A    between atoms: C_29  and  O_30
REMARK   12  A    between atoms: O_30  and  C_31
REMARK                            x       y       z     vdW  Elec       q    Type
REMARK                         _______ _______ _______ _____ _____    ______ ____
ROOT
ATOM      1  C   UNL     1      -5.280   2.722   0.396  0.00  0.00    +0.130 C 
ENDROOT
BRANCH   1   2
ATOM      2  C   UNL     1      -5.299   2.054   1.747  0.00  0.00    +0.218 C 
ATOM      3  O   UNL     1      -4.722   1.000   1.910  0.00  0.00    -0.276 OA
ATOM      4  N   UNL     1      -5.957   2.628   2.774  0.00  0.00    -0.298 N 
ATOM      5  C   UNL     1      -6.657   3.910   2.599  0.00  0.00    +0.126 C 
ATOM      6  C   UNL     1      -8.093   3.749   3.123  0.00  0.00    +0.124 C 
ATOM      7  N   UNL     1      -8.052   3.247   4.503  0.00  0.00    -0.324 N 
ATOM      8  C   UNL     1      -7.445   1.911   4.567  0.00  0.00    +0.124 C 
ATOM      9  C   UNL     1      -5.987   1.993   4.100  0.00  0.00    +0.126 C 
BRANCH   7  10
ATOM     10  C   UNL     1      -9.330   3.245   5.074  0.00  0.00    +0.072 A 
ATOM     11  C   UNL     1     -10.446   3.468   4.282  0.00  0.00    +0.027 A 
ATOM     12  C   UNL     1     -11.707   3.461   4.848  0.00  0.00    +0.002 A 
ATOM     13  C   UNL     1     -11.859   3.241   6.205  0.00  0.00    +0.004 A 
ATOM     14  C   UNL     1     -10.750   3.023   7.002  0.00  0.00    +0.047 A 
ATOM     15  C   UNL     1      -9.483   3.024   6.441  0.00  0.00    +0.141 A 
BRANCH  15  16
ATOM     16  O   UNL     1      -8.392   2.810   7.224  0.00  0.00    -0.493 OA
ATOM     17  C   UNL     1      -8.625   2.591   8.617  0.00  0.00    +0.277 C 
ENDBRANCH  15  16
ENDBRANCH   7  10
ENDBRANCH   1   2
BRANCH   1  21
ATOM     18  C   UNL     1      -2.373   1.516  -1.444  0.00  0.00    +0.133 C 
ATOM     19  C   UNL     1      -3.130   2.232  -2.584  0.00  0.00    +0.172 C 
ATOM     20  C   UNL     1      -4.543   2.470  -2.005  0.00  0.00    +0.174 C 
ATOM     21  C   UNL     1      -4.471   1.869  -0.583  0.00  0.00    +0.158 C 
ATOM     22  O   UNL     1      -3.069   1.901  -0.239  0.00  0.00    -0.369 OA
BRANCH  20  23
ATOM     23  O   UNL     1      -5.526   1.791  -2.789  0.00  0.00    -0.387 OA
ATOM     24  H   UNL     1      -6.589   1.856  -2.514  0.00  0.00    +0.210 HD
ENDBRANCH  20  23
BRANCH  19  25
ATOM     25  O   UNL     1      -3.195   1.398  -3.743  0.00  0.00    -0.387 OA
ATOM     26  H   UNL     1      -3.702   1.757  -4.651  0.00  0.00    +0.210 HD
ENDBRANCH  19  25
BRANCH  18  27
ATOM     27  C   UNL     1      -0.918   1.988  -1.392  0.00  0.00    -0.048 C 
BRANCH  27  28
ATOM     28  N   UNL     1      -0.187   1.211  -0.383  0.00  0.00    +0.382 N 
ATOM     29  H   UNL     1      -0.232   0.146  -0.657  0.00  0.00    -0.085 HD
ATOM     30  H   UNL     1      -0.669   1.359   0.594  0.00  0.00    -0.085 HD
BRANCH  28  32
ATOM     31  C   UNL     1       1.774   1.310   1.082  0.00  0.00    -0.014 C 
ATOM     32  C   UNL     1       1.217   1.637  -0.305  0.00  0.00    -0.078 C 
ATOM     33  C   UNL     1       2.034   0.901  -1.369  0.00  0.00    -0.014 C 
ENDBRANCH  28  32
ENDBRANCH  27  28
ENDBRANCH  18  27
ENDBRANCH   1  21
TORSDOF 9
