REMARK  Name = ZINC50574298
REMARK  8 active torsions:
REMARK  status: ('A' for Active; 'I' for Inactive)
REMARK    1  A    between atoms: C_1  and  C_2
REMARK    2  A    between atoms: C_2  and  N_3
REMARK    3  A    between atoms: C_4  and  C_6
REMARK    4  A    between atoms: C_6  and  N_7
REMARK    5  A    between atoms: C_14  and  C_16
REMARK    6  A    between atoms: C_16  and  N_17
REMARK    7  A    between atoms: N_20  and  C_21
REMARK    8  A    between atoms: C_21  and  C_22
REMARK                            x       y       z     vdW  Elec       q    Type
REMARK                         _______ _______ _______ _____ _____    ______ ____
ROOT
ATOM      1  N   UNL     1       1.552  -3.753  -2.673  0.00  0.00    +0.386 N 
ATOM      2  C   UNL     1       2.446  -4.197  -3.741  0.00  0.00    -0.077 C 
ATOM      3  C   UNL     1       3.053  -5.530  -3.363  0.00  0.00    +0.000 C 
ATOM      4  C   UNL     1       2.198  -6.667  -3.951  0.00  0.00    +0.106 C 
ATOM      5  N   UNL     1       0.758  -6.360  -3.842  0.00  0.00    -0.302 N 
ATOM      6  C   UNL     1       0.181  -5.758  -2.658  0.00  0.00    +0.089 C 
ATOM      7  C   UNL     1       0.222  -4.217  -2.780  0.00  0.00    -0.059 C 
ATOM      8  C   UNL     1      -0.049  -6.650  -4.882  0.00  0.00    +0.233 C 
ATOM      9  O   UNL     1      -1.235  -6.406  -4.816  0.00  0.00    -0.274 OA
ATOM     10  H   UNL     1       1.930  -4.070  -1.793  0.00  0.00    -0.081 HD
ENDROOT
BRANCH   1  11
ATOM     11  C   UNL     1       1.532  -2.285  -2.665  0.00  0.00    +0.019 C 
BRANCH  11  13
ATOM     12  N   UNL     1       0.688  -0.476  -1.203  0.00  0.00    -0.317 N 
ATOM     13  C   UNL     1       0.827  -1.799  -1.425  0.00  0.00    +0.196 C 
ATOM     14  O   UNL     1       0.384  -2.597  -0.627  0.00  0.00    -0.278 OA
ATOM     15  H   UNL     1       1.042   0.162  -1.842  0.00  0.00    +0.149 HD
BRANCH  12  17
ATOM     16  C   UNL     1      -0.019   1.526   0.010  0.00  0.00    +0.024 C 
ATOM     17  C   UNL     1       0.002  -0.004   0.002  0.00  0.00    +0.101 C 
ENDBRANCH  12  17
ENDBRANCH  11  13
ENDBRANCH   1  11
BRANCH   8  18
ATOM     18  C   UNL     1       0.523  -7.276  -6.128  0.00  0.00    +0.201 C 
BRANCH  18  19
ATOM     19  N   UNL     1      -0.549  -7.491  -7.103  0.00  0.00    -0.291 N 
ATOM     20  C   UNL     1      -0.270  -8.044  -8.300  0.00  0.00    +0.300 C 
ATOM     21  O   UNL     1       0.871  -8.364  -8.571  0.00  0.00    -0.253 OA
ATOM     22  N   UNL     1      -1.256  -8.241  -9.197  0.00  0.00    -0.299 N 
ATOM     23  H   UNL     1      -1.459  -7.235  -6.887  0.00  0.00    +0.151 HD
ATOM     24  H   UNL     1      -2.166  -7.985  -8.982  0.00  0.00    +0.150 HD
BRANCH  22  25
ATOM     25  C   UNL     1      -0.953  -8.842 -10.499  0.00  0.00    +0.109 C 
BRANCH  25  26
ATOM     26  C   UNL     1      -2.238  -8.954 -11.321  0.00  0.00    +0.006 C 
ATOM     27  C   UNL     1      -3.186  -9.989 -10.681  0.00  0.00    +0.005 C 
ATOM     28  C   UNL     1      -3.846 -10.698 -11.890  0.00  0.00    +0.000 C 
ATOM     29  C   UNL     1      -2.680 -10.796 -12.906  0.00  0.00    +0.000 C 
ATOM     30  C   UNL     1      -1.917  -9.467 -12.735  0.00  0.00    +0.005 C 
ENDBRANCH  25  26
ENDBRANCH  22  25
ENDBRANCH  18  19
ENDBRANCH   8  18
TORSDOF 7
