REMARK  Name = ZINC22057772
REMARK  9 active torsions:
REMARK  status: ('A' for Active; 'I' for Inactive)
REMARK    1  A    between atoms: C_1  and  C_2
REMARK    2  A    between atoms: C_2  and  C_26
REMARK    3  A    between atoms: N_5  and  N_9
REMARK    4  A    between atoms: C_10  and  C_12
REMARK    5  A    between atoms: C_12  and  N_13
REMARK    6  A    between atoms: N_16  and  C_19
REMARK    7  A    between atoms: C_24  and  O_25
REMARK    8  A    between atoms: C_29  and  O_32
REMARK    9  A    between atoms: O_32  and  C_33
REMARK                            x       y       z     vdW  Elec       q    Type
REMARK                         _______ _______ _______ _____ _____    ______ ____
ROOT
ATOM      1  N   UNL     1       1.744   3.327  -0.574  0.00  0.00    -0.225 N 
ATOM      2  C   UNL     1       1.524   1.999  -0.518  0.00  0.00    +0.213 C 
ATOM      3  O   UNL     1       2.437   1.224  -0.708  0.00  0.00    -0.276 OA
ATOM      4  H   UNL     1       0.916   4.030  -0.401  0.00  0.00    +0.173 HD
ENDROOT
BRANCH   1   9
ATOM      5  C   UNL     1       5.038   6.232  -2.067  0.00  0.00    +0.047 C 
ATOM      6  C   UNL     1       4.856   4.725  -1.875  0.00  0.00    +0.137 C 
ATOM      7  C   UNL     1       3.399   4.340  -2.036  0.00  0.00    +0.267 C 
ATOM      8  O   UNL     1       2.710   4.476  -3.024  0.00  0.00    -0.271 OA
ATOM      9  N   UNL     1       3.029   3.813  -0.852  0.00  0.00    -0.137 N 
ATOM     10  C   UNL     1       4.037   3.817   0.027  0.00  0.00    +0.327 C 
ATOM     11  O   UNL     1       3.944   3.397   1.164  0.00  0.00    -0.251 OA
ATOM     12  N   UNL     1       5.167   4.335  -0.489  0.00  0.00    -0.280 N 
ATOM     13  H   UNL     1       6.177   4.496  -0.085  0.00  0.00    +0.152 HD
BRANCH   6  14
ATOM     14  C   UNL     1       5.717   3.961  -2.847  0.00  0.00    -0.015 A 
ATOM     15  C   UNL     1       5.197   3.561  -4.064  0.00  0.00    +0.010 A 
ATOM     16  C   UNL     1       5.986   2.865  -4.959  0.00  0.00    +0.046 A 
ATOM     17  C   UNL     1       7.298   2.557  -4.631  0.00  0.00    +0.120 A 
ATOM     18  C   UNL     1       7.817   2.954  -3.407  0.00  0.00    +0.046 A 
ATOM     19  C   UNL     1       7.025   3.655  -2.518  0.00  0.00    +0.010 A 
BRANCH  17  20
ATOM     20  O   UNL     1       8.075   1.867  -5.507  0.00  0.00    -0.495 OA
ATOM     21  C   UNL     1       7.476   1.491  -6.749  0.00  0.00    +0.277 C 
ENDBRANCH  17  20
ENDBRANCH   6  14
ENDBRANCH   1   9
BRANCH   2  22
ATOM     22  C   UNL     1       0.142   1.476  -0.219  0.00  0.00    +0.020 C 
BRANCH  22  23
ATOM     23  N   UNL     1       0.165   0.007  -0.214  0.00  0.00    +0.387 N 
ATOM     24  C   UNL     1       0.452  -0.519  -1.556  0.00  0.00    -0.059 C 
ATOM     25  C   UNL     1       0.545  -2.046  -1.492  0.00  0.00    +0.086 C 
ATOM     26  N   UNL     1      -0.718  -2.590  -0.975  0.00  0.00    -0.331 N 
ATOM     27  C   UNL     1      -1.005  -2.063   0.367  0.00  0.00    +0.086 C 
ATOM     28  C   UNL     1      -1.098  -0.537   0.303  0.00  0.00    -0.059 C 
ATOM     29  H   UNL     1       0.974  -0.315   0.458  0.00  0.00    -0.081 HD
BRANCH  26  30
ATOM     30  C   UNL     1      -0.697  -3.989  -0.970  0.00  0.00    +0.072 A 
ATOM     31  C   UNL     1       0.488  -4.668  -1.218  0.00  0.00    +0.027 A 
ATOM     32  C   UNL     1       0.507  -6.050  -1.209  0.00  0.00    +0.002 A 
ATOM     33  C   UNL     1      -0.653  -6.759  -0.962  0.00  0.00    +0.004 A 
ATOM     34  C   UNL     1      -1.839  -6.090  -0.719  0.00  0.00    +0.047 A 
ATOM     35  C   UNL     1      -1.866  -4.705  -0.722  0.00  0.00    +0.138 A 
BRANCH  35  36
ATOM     36  O   UNL     1      -3.031  -4.046  -0.484  0.00  0.00    -0.505 OA
ATOM     37  H   UNL     1      -3.954  -4.612  -0.289  0.00  0.00    +0.292 HD
ENDBRANCH  35  36
ENDBRANCH  26  30
ENDBRANCH  22  23
ENDBRANCH   2  22
TORSDOF 7
