REMARK  Name = ZINC37801605
REMARK  8 active torsions:
REMARK  status: ('A' for Active; 'I' for Inactive)
REMARK    1  A    between atoms: C_1  and  C_2
REMARK    2  A    between atoms: C_2  and  C_3
REMARK    3  A    between atoms: C_2  and  C_4
REMARK    4  A    between atoms: C_2  and  N_5
REMARK    5  A    between atoms: C_6  and  C_8
REMARK    6  A    between atoms: C_8  and  N_9
REMARK    7  A    between atoms: N_9  and  C_10
REMARK    8  A    between atoms: C_11  and  C_13
REMARK                            x       y       z     vdW  Elec       q    Type
REMARK                         _______ _______ _______ _____ _____    ______ ____
ROOT
ATOM      1  N   UNL     1       4.051  -0.111  -2.677  0.00  0.00    -0.297 N 
ATOM      2  C   UNL     1       5.125  -0.892  -2.057  0.00  0.00    +0.132 C 
ATOM      3  C   UNL     1       4.328   1.073  -3.257  0.00  0.00    +0.202 C 
ATOM      4  O   UNL     1       3.439   1.720  -3.770  0.00  0.00    -0.277 OA
ENDROOT
BRANCH   3   5
ATOM      5  C   UNL     1       5.742   1.595  -3.268  0.00  0.00    +0.017 C 
ATOM      6  C   UNL     1       6.235   1.818  -1.816  0.00  0.00    -0.005 C 
ATOM      7  C   UNL     1       6.489   3.324  -1.739  0.00  0.00    -0.026 C 
ATOM      8  C   UNL     1       7.670   3.758  -0.890  0.00  0.00    +0.002 C 
ATOM      9  C   UNL     1       7.779   5.287  -1.008  0.00  0.00    +0.000 C 
ATOM     10  C   UNL     1       7.946   5.725  -2.459  0.00  0.00    -0.002 C 
ATOM     11  C   UNL     1       6.819   5.172  -3.346  0.00  0.00    -0.015 C 
ATOM     12  C   UNL     1       6.821   3.665  -3.217  0.00  0.00    -0.068 C 
ATOM     13  N   UNL     1       5.791   2.920  -3.950  0.00  0.00    +0.389 N 
ATOM     14  H   UNL     1       6.055   2.809  -4.917  0.00  0.00    -0.084 HD
ATOM     15  H   UNL     1       4.900   3.387  -3.877  0.00  0.00    -0.084 HD
ENDBRANCH   3   5
BRANCH   1  16
ATOM     16  C   UNL     1       2.677  -0.618  -2.667  0.00  0.00    +0.203 C 
BRANCH  16  18
ATOM     17  N   UNL     1       0.688  -0.476  -1.203  0.00  0.00    -0.309 N 
ATOM     18  C   UNL     1       1.972  -0.132  -1.427  0.00  0.00    +0.231 C 
ATOM     19  O   UNL     1       2.559   0.569  -0.630  0.00  0.00    -0.274 OA
ATOM     20  H   UNL     1       0.218  -1.037  -1.840  0.00  0.00    +0.149 HD
BRANCH  17  22
ATOM     21  C   UNL     1      -0.019   1.526   0.010  0.00  0.00    +0.031 C 
ATOM     22  C   UNL     1       0.002  -0.004   0.002  0.00  0.00    +0.026 C 
ATOM     23  C   UNL     1       0.742  -0.511   1.242  0.00  0.00    +0.031 C 
ATOM     24  C   UNL     1      -1.433  -0.534   0.013  0.00  0.00    +0.031 C 
ENDBRANCH  17  22
ENDBRANCH  16  18
ENDBRANCH   1  16
TORSDOF 4
