REMARK  Name = ZINC59640679
REMARK  9 active torsions:
REMARK  status: ('A' for Active; 'I' for Inactive)
REMARK    1  A    between atoms: C_1  and  C_2
REMARK    2  A    between atoms: C_4  and  C_29
REMARK    3  A    between atoms: C_5  and  C_27
REMARK    4  A    between atoms: C_6  and  N_8
REMARK    5  A    between atoms: N_8  and  N_9
REMARK    6  A    between atoms: N_9  and  C_10
REMARK    7  A    between atoms: N_17  and  C_20
REMARK    8  A    between atoms: C_29  and  O_30
REMARK    9  A    between atoms: O_30  and  C_31
REMARK                            x       y       z     vdW  Elec       q    Type
REMARK                         _______ _______ _______ _____ _____    ______ ____
ROOT
ATOM      1  C   UNL     1       1.430  -2.492   5.098  0.00  0.00    +0.106 C 
ATOM      2  C   UNL     1       0.836  -1.761   6.115  0.00  0.00    +0.116 C 
ATOM      3  C   UNL     1       0.176  -2.421   7.250  0.00  0.00    +0.276 C 
ATOM      4  O   UNL     1       0.129  -3.768   7.334  0.00  0.00    -0.268 OA
ATOM      5  N   UNL     1      -0.371  -1.666   8.188  0.00  0.00    -0.153 NA
ATOM      6  C   UNL     1      -0.340  -0.337   8.131  0.00  0.00    +0.171 C 
ATOM      7  S   UNL     1      -1.079   0.544   9.399  0.00  0.00    -0.016 S 
ATOM      8  N   UNL     1       0.239   0.350   7.136  0.00  0.00    -0.216 N 
ATOM      9  C   UNL     1       0.845  -0.287   6.110  0.00  0.00    +0.263 C 
ATOM     10  O   UNL     1       1.375   0.336   5.209  0.00  0.00    -0.269 OA
ENDROOT
BRANCH   8  11
ATOM     11  C   UNL     1       0.221   1.750   7.163  0.00  0.00    +0.043 A 
ATOM     12  C   UNL     1      -0.922   2.439   6.779  0.00  0.00    +0.025 A 
ATOM     13  C   UNL     1      -0.938   3.819   6.807  0.00  0.00    +0.022 A 
ATOM     14  C   UNL     1       0.185   4.517   7.217  0.00  0.00    +0.041 A 
ATOM     15  C   UNL     1       1.325   3.833   7.600  0.00  0.00    +0.022 A 
ATOM     16  C   UNL     1       1.344   2.453   7.580  0.00  0.00    +0.025 A 
ATOM     17 CL   UNL     1       0.162   6.252   7.251  0.00  0.00    -0.084 Cl
ENDBRANCH   8  11
BRANCH   1  18
ATOM     18  N   UNL     1       1.920  -1.862   4.013  0.00  0.00    -0.272 N 
ATOM     19  H   UNL     1       1.784  -0.907   3.904  0.00  0.00    +0.169 HD
BRANCH  18  20
ATOM     20  N   UNL     1       2.627  -2.584   3.043  0.00  0.00    -0.250 N 
ATOM     21  H   UNL     1       2.764  -3.538   3.153  0.00  0.00    +0.171 HD
BRANCH  20  27
ATOM     22  C   UNL     1       3.160   1.505   0.625  0.00  0.00    +0.065 C 
ATOM     23  C   UNL     1       3.406   0.022   0.737  0.00  0.00    +0.041 A 
ATOM     24  C   UNL     1       4.113  -0.626  -0.260  0.00  0.00    +0.030 A 
ATOM     25  C   UNL     1       4.340  -1.987  -0.160  0.00  0.00    +0.000 A 
ATOM     26  C   UNL     1       3.840  -2.664   0.958  0.00  0.00    +0.098 A 
ATOM     27  C   UNL     1       3.131  -1.936   1.929  0.00  0.00    +0.153 A 
ATOM     28  N   UNL     1       2.947  -0.633   1.786  0.00  0.00    -0.235 NA
BRANCH  26  29
ATOM     29  C   UNL     1       4.046  -4.073   1.110  0.00  0.00    +0.103 C 
ATOM     30  N   UNL     1       4.210  -5.191   1.230  0.00  0.00    -0.191 NA
ENDBRANCH  26  29
BRANCH  25  31
ATOM     31  C   UNL     1       5.106  -2.723  -1.229  0.00  0.00    +0.196 C 
BRANCH  31  32
ATOM     32  O   UNL     1       5.499  -1.804  -2.251  0.00  0.00    -0.378 OA
ATOM     33  C   UNL     1       6.236  -2.403  -3.319  0.00  0.00    +0.194 C 
ENDBRANCH  31  32
ENDBRANCH  25  31
ENDBRANCH  20  27
ENDBRANCH  18  20
ENDBRANCH   1  18
TORSDOF 7
