REMARK  Name = ZINC50253760
REMARK  7 active torsions:
REMARK  status: ('A' for Active; 'I' for Inactive)
REMARK    1  A    between atoms: C_1  and  C_2
REMARK    2  A    between atoms: C_4  and  S_8
REMARK    3  A    between atoms: N_6  and  C_7
REMARK    4  A    between atoms: S_8  and  N_11
REMARK    5  A    between atoms: N_11  and  C_12
REMARK    6  A    between atoms: C_12  and  C_19
REMARK    7  A    between atoms: N_15  and  C_18
REMARK                            x       y       z     vdW  Elec       q    Type
REMARK                         _______ _______ _______ _____ _____    ______ ____
ROOT
ATOM      1  N   UNL     1      -0.700  -2.869  -3.141  0.00  0.00    -0.169 NA
ATOM      2  H   UNL     1      -1.625  -3.105  -3.311  0.00  0.00    +0.150 HD
ENDROOT
BRANCH   1   3
ATOM      3  C   UNL     1      -0.043  -1.847  -3.960  0.00  0.00    +0.122 C 
ATOM      4  C   UNL     1       1.235  -2.425  -4.574  0.00  0.00    +0.020 C 
ATOM      5  C   UNL     1       1.873  -1.379  -5.490  0.00  0.00    -0.076 C 
ATOM      6  N   UNL     1       0.934  -1.022  -6.560  0.00  0.00    +0.378 N 
ATOM      7  C   UNL     1      -0.264  -0.400  -5.983  0.00  0.00    -0.076 C 
ATOM      8  C   UNL     1      -0.985  -1.409  -5.085  0.00  0.00    +0.020 C 
ATOM      9  C   UNL     1       1.579  -0.076  -7.480  0.00  0.00    -0.096 C 
ATOM     10  H   UNL     1       0.669  -1.853  -7.066  0.00  0.00    -0.082 HD
BRANCH   3  11
ATOM     11  C   UNL     1       0.295  -0.685  -3.120  0.00  0.00    +0.086 C 
ATOM     12  N   UNL     1       0.555   0.210  -2.473  0.00  0.00    -0.195 NA
ENDBRANCH   3  11
ENDBRANCH   1   3
BRANCH   1  13
ATOM     13  S   UNL     1       0.138  -3.621  -1.927  0.00  0.00    +0.078 S 
ATOM     14  O   UNL     1      -0.771  -4.517  -1.302  0.00  0.00    -0.151 OA
ATOM     15  O   UNL     1       0.817  -2.600  -1.209  0.00  0.00    -0.151 OA
BRANCH  13  19
ATOM     16  C   UNL     1       2.700  -6.631  -5.387  0.00  0.00    +0.086 C 
ATOM     17  C   UNL     1       2.399  -5.847  -4.136  0.00  0.00    +0.109 A 
ATOM     18  N   UNL     1       1.298  -5.189  -3.897  0.00  0.00    -0.213 NA
ATOM     19  C   UNL     1       1.380  -4.613  -2.688  0.00  0.00    +0.211 A 
ATOM     20  C   UNL     1       2.577  -4.927  -2.158  0.00  0.00    +0.135 A 
ATOM     21  N   UNL     1       3.222  -5.714  -3.074  0.00  0.00    -0.336 N 
ATOM     22  C   UNL     1       4.557  -6.299  -2.930  0.00  0.00    +0.150 C 
ENDBRANCH  13  19
ENDBRANCH   1  13
TORSDOF 4
