REMARK  Name = ZINC62384665
REMARK  9 active torsions:
REMARK  status: ('A' for Active; 'I' for Inactive)
REMARK    1  A    between atoms: C_1  and  C_2
REMARK    2  A    between atoms: C_2  and  N_3
REMARK    3  A    between atoms: C_4  and  C_21
REMARK    4  A    between atoms: C_8  and  O_20
REMARK    5  A    between atoms: C_9  and  C_10
REMARK    6  A    between atoms: C_10  and  N_11
REMARK    7  A    between atoms: N_11  and  C_12
REMARK    8  A    between atoms: N_11  and  C_13
REMARK    9  A    between atoms: N_16  and  C_19
REMARK                            x       y       z     vdW  Elec       q    Type
REMARK                         _______ _______ _______ _____ _____    ______ ____
ROOT
ATOM      1  N   UNL     1       2.479  -0.854  -2.825  0.00  0.00    -0.344 N 
ATOM      2  C   UNL     1       1.789  -1.000  -3.981  0.00  0.00    +0.020 A 
ATOM      3  C   UNL     1       0.520  -1.467  -3.976  0.00  0.00    +0.075 A 
ATOM      4  C   UNL     1      -0.088  -1.804  -2.746  0.00  0.00    +0.223 A 
ATOM      5  O   UNL     1      -1.235  -2.228  -2.713  0.00  0.00    -0.284 OA
ATOM      6  C   UNL     1       0.658  -1.640  -1.552  0.00  0.00    +0.185 A 
ATOM      7  C   UNL     1       1.927  -1.173  -1.625  0.00  0.00    +0.079 A 
ATOM      8  C   UNL     1       2.444  -0.639  -5.290  0.00  0.00    +0.063 C 
ENDROOT
BRANCH   1  10
ATOM      9  C   UNL     1       4.818  -1.507  -3.115  0.00  0.00    +0.027 C 
ATOM     10  C   UNL     1       3.852  -0.346  -2.869  0.00  0.00    +0.118 C 
ENDBRANCH   1  10
BRANCH   6  11
ATOM     11  O   UNL     1       0.107  -1.953  -0.347  0.00  0.00    -0.502 OA
ATOM     12  H   UNL     1      -0.801  -2.281  -0.403  0.00  0.00    +0.292 HD
ENDBRANCH   6  11
BRANCH   7  13
ATOM     13  C   UNL     1       2.733  -1.000  -0.363  0.00  0.00    +0.141 C 
BRANCH  13  14
ATOM     14  N   UNL     1       2.980   0.430  -0.132  0.00  0.00    -0.297 NA
ATOM     15  C   UNL     1       1.778   1.095   0.389  0.00  0.00    +0.105 C 
BRANCH  14  16
ATOM     16  C   UNL     1       4.123   0.627   0.769  0.00  0.00    +0.053 C 
ATOM     17  C   UNL     1       3.784   0.074   2.156  0.00  0.00    +0.000 C 
ATOM     18  C   UNL     1       4.947   0.354   3.110  0.00  0.00    -0.078 C 
ATOM     19  N   UNL     1       5.173   1.802   3.200  0.00  0.00    +0.378 N 
ATOM     20  C   UNL     1       5.569   2.327   1.888  0.00  0.00    -0.078 C 
ATOM     21  C   UNL     1       4.429   2.123   0.888  0.00  0.00    +0.000 C 
ATOM     22  C   UNL     1       6.238   2.070   4.176  0.00  0.00    -0.096 C 
ATOM     23  H   UNL     1       4.323   2.256   3.501  0.00  0.00    -0.082 HD
ENDBRANCH  14  16
ENDBRANCH  13  14
ENDBRANCH   7  13
TORSDOF 5
