REMARK  Name = ZINC62097821
REMARK  4 active torsions:
REMARK  status: ('A' for Active; 'I' for Inactive)
REMARK    1  A    between atoms: C_1  and  C_2
REMARK    2  A    between atoms: C_6  and  C_10
REMARK    3  A    between atoms: N_15  and  S_18
REMARK    4  A    between atoms: S_18  and  C_21
REMARK                            x       y       z     vdW  Elec       q    Type
REMARK                         _______ _______ _______ _____ _____    ______ ____
ROOT
ATOM      1  C   UNL     1      -0.504  -4.062   1.165  0.00  0.00    +0.217 C 
ATOM      2  O   UNL     1      -1.111  -4.685   0.320  0.00  0.00    -0.275 OA
ATOM      3  N   UNL     1       0.249  -4.714   2.072  0.00  0.00    -0.299 N 
ATOM      4  C   UNL     1       0.890  -3.985   3.176  0.00  0.00    +0.125 C 
ATOM      5  C   UNL     1       0.460  -4.626   4.501  0.00  0.00    +0.128 C 
ATOM      6  N   UNL     1       0.655  -6.079   4.405  0.00  0.00    -0.178 NA
ATOM      7  C   UNL     1       0.015  -6.808   3.301  0.00  0.00    +0.128 C 
ATOM      8  C   UNL     1       0.441  -6.168   1.979  0.00  0.00    +0.125 C 
ENDROOT
BRANCH   1  13
ATOM      9  C   UNL     1      -2.137   1.382   0.466  0.00  0.00    -0.014 C 
ATOM     10  C   UNL     1      -2.014  -0.143   0.507  0.00  0.00    -0.075 C 
ATOM     11  C   UNL     1      -1.952  -0.610   1.963  0.00  0.00    -0.015 C 
ATOM     12  C   UNL     1      -1.829  -2.136   1.998  0.00  0.00    +0.009 C 
ATOM     13  C   UNL     1      -0.592  -2.558   1.200  0.00  0.00    +0.058 C 
ATOM     14  C   UNL     1      -0.705  -2.018  -0.228  0.00  0.00    -0.070 C 
ATOM     15  N   UNL     1      -0.792  -0.553  -0.195  0.00  0.00    +0.381 N 
ATOM     16  H   UNL     1      -0.812  -0.198  -1.139  0.00  0.00    -0.086 HD
ATOM     17  H   UNL     1       0.012  -0.179   0.286  0.00  0.00    -0.086 HD
ENDBRANCH   1  13
BRANCH   6  18
ATOM     18  S   UNL     1       1.581  -6.880   5.520  0.00  0.00    +0.029 S 
ATOM     19  O   UNL     1       2.055  -8.033   4.837  0.00  0.00    -0.158 OA
ATOM     20  O   UNL     1       2.489  -5.902   6.008  0.00  0.00    -0.158 OA
ATOM     21  C   UNL     1       0.421  -7.363   6.829  0.00  0.00    +0.215 C 
ENDBRANCH   6  18
TORSDOF 2
