REMARK  Name = ZINC05603882
REMARK  2 active torsions:
REMARK  status: ('A' for Active; 'I' for Inactive)
REMARK    1  A    between atoms: C_4  and  C_7
REMARK    2  A    between atoms: C_25  and  C_27
REMARK                            x       y       z     vdW  Elec       q    Type
REMARK                         _______ _______ _______ _____ _____    ______ ____
ROOT
ATOM      1  C   UNL     1       2.490   1.048  -0.016  0.00  0.00    +0.111 C 
ATOM      2  C   UNL     1       3.133   1.119   1.374  0.00  0.00    +0.056 C 
ATOM      3  C   UNL     1       2.217   0.505   2.402  0.00  0.00    +0.009 C 
ATOM      4  C   UNL     1       1.153   1.389   2.977  0.00  0.00    +0.001 C 
ATOM      5  C   UNL     1       1.443   2.865   3.046  0.00  0.00    +0.009 C 
ATOM      6  C   UNL     1       2.206   3.386   1.831  0.00  0.00    +0.056 C 
ATOM      7  C   UNL     1       3.495   2.562   1.687  0.00  0.00    +0.113 C 
ATOM      8  N   UNL     1       4.305   3.121   0.604  0.00  0.00    -0.278 N 
ATOM      9  C   UNL     1       4.214   2.661  -0.652  0.00  0.00    +0.302 C 
ATOM     10  O   UNL     1       4.911   3.164  -1.512  0.00  0.00    -0.253 OA
ATOM     11  N   UNL     1       3.383   1.665  -0.996  0.00  0.00    -0.292 N 
ATOM     12  N   UNL     1       4.243   2.653   2.943  0.00  0.00    -0.278 N 
ATOM     13  C   UNL     1       4.197   3.776   3.679  0.00  0.00    +0.302 C 
ATOM     14  O   UNL     1       4.845   3.829   4.706  0.00  0.00    -0.253 OA
ATOM     15  N   UNL     1       3.464   4.843   3.325  0.00  0.00    -0.292 N 
ATOM     16  C   UNL     1       2.631   4.838   2.120  0.00  0.00    +0.111 C 
ATOM     17  H   UNL     1       4.923   3.843   0.799  0.00  0.00    +0.152 HD
ATOM     18  H   UNL     1       3.374   1.349  -1.913  0.00  0.00    +0.151 HD
ATOM     19  H   UNL     1       4.772   1.898   3.245  0.00  0.00    +0.152 HD
ATOM     20  H   UNL     1       3.487   5.638   3.881  0.00  0.00    +0.151 HD
ENDROOT
BRANCH   1  24
ATOM     21  C   UNL     1      -1.238   3.132   0.029  0.00  0.00    +0.000 A 
ATOM     22  C   UNL     1      -1.121   1.911   0.666  0.00  0.00    +0.000 A 
ATOM     23  C   UNL     1       0.086   1.239   0.656  0.00  0.00    +0.005 A 
ATOM     24  C   UNL     1       1.175   1.783   0.000  0.00  0.00    -0.027 A 
ATOM     25  C   UNL     1       1.057   3.003  -0.640  0.00  0.00    +0.005 A 
ATOM     26  C   UNL     1      -0.149   3.677  -0.626  0.00  0.00    +0.000 A 
ENDBRANCH   1  24
BRANCH  16  27
ATOM     27  C   UNL     1       1.408   5.690   2.344  0.00  0.00    -0.027 A 
ATOM     28  C   UNL     1       0.766   5.668   3.568  0.00  0.00    +0.005 A 
ATOM     29  C   UNL     1      -0.353   6.453   3.775  0.00  0.00    +0.000 A 
ATOM     30  C   UNL     1      -0.835   7.252   2.755  0.00  0.00    +0.000 A 
ATOM     31  C   UNL     1      -0.196   7.269   1.530  0.00  0.00    +0.000 A 
ATOM     32  C   UNL     1       0.926   6.488   1.324  0.00  0.00    +0.005 A 
ENDBRANCH  16  27
TORSDOF 2
