REMARK  Name = ZINC44677606
REMARK  6 active torsions:
REMARK  status: ('A' for Active; 'I' for Inactive)
REMARK    1  A    between atoms: C_4  and  C_7
REMARK    2  A    between atoms: C_10  and  N_12
REMARK    3  A    between atoms: N_12  and  S_13
REMARK    4  A    between atoms: S_13  and  C_16
REMARK    5  A    between atoms: C_19  and  C_21
REMARK    6  A    between atoms: C_21  and  N_22
REMARK                            x       y       z     vdW  Elec       q    Type
REMARK                         _______ _______ _______ _____ _____    ______ ____
ROOT
ATOM      1  S   UNL     1       5.732  -1.970   3.188  0.00  0.00    +0.065 S 
ATOM      2  O   UNL     1       7.146  -2.055   3.302  0.00  0.00    -0.153 OA
ATOM      3  O   UNL     1       4.968  -1.003   3.896  0.00  0.00    -0.153 OA
ENDROOT
BRANCH   1   4
ATOM      4  C   UNL     1       5.094  -3.548   3.644  0.00  0.00    +0.143 A 
ATOM      5  C   UNL     1       5.708  -4.756   3.619  0.00  0.00    +0.036 A 
ATOM      6  C   UNL     1       5.005  -5.873   4.028  0.00  0.00    +0.011 A 
ATOM      7  C   UNL     1       3.723  -5.728   4.443  0.00  0.00    -0.026 A 
ATOM      8  S   UNL     1       3.475  -3.969   4.267  0.00  0.00    -0.075 S 
BRANCH   7   9
ATOM      9  C   UNL     1       2.758  -6.778   4.931  0.00  0.00    -0.043 C 
BRANCH   9  10
ATOM     10  N   UNL     1       2.887  -6.922   6.387  0.00  0.00    +0.381 N 
ATOM     11  H   UNL     1       3.829  -7.199   6.616  0.00  0.00    -0.090 HD
ATOM     12  H   UNL     1       2.678  -6.041   6.832  0.00  0.00    -0.090 HD
ATOM     13  H   UNL     1       2.241  -7.625   6.714  0.00  0.00    -0.090 HD
ENDBRANCH   9  10
ENDBRANCH   7   9
ENDBRANCH   1   4
BRANCH   1  14
ATOM     14  N   UNL     1       5.398  -1.752   1.581  0.00  0.00    -0.186 NA
ATOM     15  H   UNL     1       6.122  -1.692   0.939  0.00  0.00    +0.148 HD
BRANCH  14  18
ATOM     16  C   UNL     1       3.711  -0.707  -0.038  0.00  0.00    +0.039 C 
ATOM     17  C   UNL     1       3.671  -2.222  -0.251  0.00  0.00    +0.030 C 
ATOM     18  C   UNL     1       4.008  -1.652   1.129  0.00  0.00    +0.085 C 
BRANCH  16  22
ATOM     19  C   UNL     1      -0.017   1.378   0.010  0.00  0.00    +0.000 A 
ATOM     20  C   UNL     1       1.171   2.086   0.002  0.00  0.00    +0.000 A 
ATOM     21  C   UNL     1       2.377   1.411  -0.013  0.00  0.00    +0.004 A 
ATOM     22  C   UNL     1       2.396   0.029  -0.020  0.00  0.00    -0.043 A 
ATOM     23  C   UNL     1       1.208  -0.679  -0.012  0.00  0.00    +0.004 A 
ATOM     24  C   UNL     1       0.002  -0.004   0.002  0.00  0.00    +0.000 A 
ENDBRANCH  16  22
ENDBRANCH  14  18
ENDBRANCH   1  14
TORSDOF 6
