REMARK  Name = ZINC39096554
REMARK  3 active torsions:
REMARK  status: ('A' for Active; 'I' for Inactive)
REMARK    1  A    between atoms: C_3  and  O_15
REMARK    2  A    between atoms: C_4  and  O_14
REMARK    3  A    between atoms: C_6  and  N_7
REMARK                            x       y       z     vdW  Elec       q    Type
REMARK                         _______ _______ _______ _____ _____    ______ ____
ROOT
ATOM      1  C   UNL     1      -0.017   1.397   0.010  0.00  0.00    +0.031 A 
ATOM      2  C   UNL     1       1.167   2.101   0.002  0.00  0.00    +0.051 A 
ATOM      3  C   UNL     1       2.381   1.426  -0.013  0.00  0.00    +0.158 A 
ATOM      4  C   UNL     1       2.408   0.031  -0.022  0.00  0.00    +0.160 A 
ATOM      5  C   UNL     1       1.228  -0.684  -0.014  0.00  0.00    +0.077 A 
ATOM      6  C   UNL     1       0.002  -0.004   0.002  0.00  0.00    +0.071 A 
ENDROOT
BRANCH   6   7
ATOM      7  N   UNL     1      -1.165  -0.702   0.010  0.00  0.00    -0.213 NA
ATOM      8  C   UNL     1      -2.131  -0.354   0.824  0.00  0.00    +0.225 C 
ATOM      9  C   UNL     1      -3.433  -1.015   0.944  0.00  0.00    +0.075 C 
ATOM     10  C   UNL     1      -4.128  -0.345   1.894  0.00  0.00    +0.097 C 
ATOM     11  C   UNL     1      -3.264   0.736   2.370  0.00  0.00    +0.339 C 
ATOM     12  O   UNL     1      -3.551   1.550   3.227  0.00  0.00    -0.245 OA
ATOM     13  O   UNL     1      -2.096   0.674   1.703  0.00  0.00    -0.404 OA
ENDBRANCH   6   7
BRANCH   4  14
ATOM     14  O   UNL     1       3.599  -0.625  -0.037  0.00  0.00    -0.503 OA
ATOM     15  H   UNL     1       3.953  -0.820   0.841  0.00  0.00    +0.292 HD
ENDBRANCH   4  14
BRANCH   3  16
ATOM     16  O   UNL     1       3.545   2.126  -0.021  0.00  0.00    -0.503 OA
ATOM     17  H   UNL     1       3.890   2.324   0.860  0.00  0.00    +0.292 HD
ENDBRANCH   3  16
TORSDOF 3
