REMARK  Name = ZINC15226718
REMARK  6 active torsions:
REMARK  status: ('A' for Active; 'I' for Inactive)
REMARK    1  A    between atoms: C_1  and  C_2
REMARK    2  A    between atoms: C_2  and  C_25
REMARK    3  A    between atoms: C_8  and  C_12
REMARK    4  A    between atoms: C_12  and  C_13
REMARK    5  A    between atoms: N_15  and  C_16
REMARK    6  A    between atoms: C_19  and  C_22
REMARK                            x       y       z     vdW  Elec       q    Type
REMARK                         _______ _______ _______ _____ _____    ______ ____
ROOT
ATOM      1  C   UNL     1      -0.219  -0.151  -0.916  0.00  0.00    +0.051 C 
ATOM      2  C   UNL     1      -0.182   1.339  -0.691  0.00  0.00    +0.034 C 
ATOM      3  C   UNL     1       1.012   1.986  -0.618  0.00  0.00    +0.154 C 
ATOM      4  N   UNL     1       2.112   1.182  -0.762  0.00  0.00    -0.259 N 
ATOM      5  C   UNL     1       3.226   1.512  -1.444  0.00  0.00    +0.279 C 
ATOM      6  O   UNL     1       4.209   0.799  -1.381  0.00  0.00    -0.263 OA
ATOM      7  S   UNL     1       3.263   2.968  -2.422  0.00  0.00    -0.038 S 
ATOM      8  C   UNL     1       2.972   4.222  -1.171  0.00  0.00    +0.203 C 
ATOM      9  N   UNL     1       1.644   4.224  -0.642  0.00  0.00    -0.171 NA
ATOM     10  N   UNL     1       0.925   3.278  -0.425  0.00  0.00    -0.137 NA
ATOM     11  H   UNL     1       2.128   0.183  -0.302  0.00  0.00    +0.157 HD
ENDROOT
BRANCH   2  12
ATOM     12  C   UNL     1      -1.391   2.066  -0.562  0.00  0.00    +0.134 A 
ATOM     13  C   UNL     1      -2.346   2.236  -1.542  0.00  0.00    +0.049 A 
ATOM     14  C   UNL     1      -3.366   3.019  -0.976  0.00  0.00    +0.042 A 
ATOM     15  C   UNL     1      -3.002   3.289   0.296  0.00  0.00    +0.195 A 
ATOM     16  O   UNL     1      -1.817   2.710   0.544  0.00  0.00    -0.463 OA
ENDBRANCH   2  12
BRANCH   8  17
ATOM     17  C   UNL     1       3.253   5.596  -1.783  0.00  0.00    +0.136 C 
BRANCH  17  18
ATOM     18  C   UNL     1       4.686   5.655  -2.246  0.00  0.00    +0.220 C 
ATOM     19  O   UNL     1       5.411   4.694  -2.101  0.00  0.00    -0.275 OA
ATOM     20  N   UNL     1       5.162   6.777  -2.822  0.00  0.00    -0.285 N 
ATOM     21  H   UNL     1       4.484   7.617  -3.033  0.00  0.00    +0.155 HD
BRANCH  20  22
ATOM     22  C   UNL     1       6.514   6.872  -3.150  0.00  0.00    +0.033 A 
ATOM     23  C   UNL     1       7.468   6.251  -2.350  0.00  0.00    +0.024 A 
ATOM     24  C   UNL     1       8.803   6.339  -2.674  0.00  0.00    +0.017 A 
ATOM     25  C   UNL     1       9.200   7.062  -3.802  0.00  0.00    +0.063 A 
ATOM     26  C   UNL     1       8.240   7.690  -4.601  0.00  0.00    +0.017 A 
ATOM     27  C   UNL     1       6.906   7.593  -4.274  0.00  0.00    +0.024 A 
BRANCH  25  28
ATOM     28  C   UNL     1      10.630   7.163  -4.149  0.00  0.00    +0.387 C 
ATOM     29  O   UNL     1      10.974   7.792  -5.130  0.00  0.00    -0.241 OA
ATOM     30  O   UNL     1      11.555   6.558  -3.378  0.00  0.00    -0.241 OA
ENDBRANCH  25  28
ENDBRANCH  20  22
ENDBRANCH  17  18
ENDBRANCH   8  17
TORSDOF 5
