REMARK  Name = ZINC66988210
REMARK  12 active torsions:
REMARK  status: ('A' for Active; 'I' for Inactive)
REMARK    1  A    between atoms: C_1  and  C_2
REMARK    2  A    between atoms: C_2  and  N_3
REMARK    3  A    between atoms: N_3  and  C_4
REMARK    4  A    between atoms: N_3  and  C_5
REMARK    5  A    between atoms: C_5  and  C_6
REMARK    6  A    between atoms: C_6  and  N_7
REMARK    7  A    between atoms: N_10  and  C_11
REMARK    8  A    between atoms: C_11  and  C_12
REMARK    9  A    between atoms: C_12  and  C_14
REMARK   10  A    between atoms: C_12  and  N_19
REMARK   11  A    between atoms: N_19  and  C_20
REMARK   12  A    between atoms: N_19  and  C_21
REMARK                            x       y       z     vdW  Elec       q    Type
REMARK                         _______ _______ _______ _____ _____    ______ ____
ROOT
ATOM      1  N   UNL     1      -3.271  -4.068   1.336  0.00  0.00    -0.301 N 
ATOM      2  C   UNL     1      -4.362  -4.842   1.172  0.00  0.00    +0.300 C 
ATOM      3  O   UNL     1      -5.465  -4.333   1.115  0.00  0.00    -0.253 OA
ATOM      4  N   UNL     1      -4.231  -6.179   1.070  0.00  0.00    -0.301 N 
ATOM      5  H   UNL     1      -2.391  -4.473   1.382  0.00  0.00    +0.150 HD
ATOM      6  H   UNL     1      -3.351  -6.585   1.116  0.00  0.00    +0.150 HD
ENDROOT
BRANCH   1   7
ATOM      7  C   UNL     1      -3.414  -2.614   1.447  0.00  0.00    +0.087 C 
BRANCH   7   8
ATOM      8  C   UNL     1      -2.034  -1.978   1.626  0.00  0.00    -0.060 C 
BRANCH   8   9
ATOM      9  N   UNL     1      -2.177  -0.520   1.737  0.00  0.00    +0.379 N 
ATOM     10  C   UNL     1      -2.692   0.019   0.471  0.00  0.00    -0.096 C 
ATOM     11  H   UNL     1      -2.821  -0.301   2.482  0.00  0.00    -0.082 HD
BRANCH   9  13
ATOM     12  C   UNL     1      -1.037   1.581   2.266  0.00  0.00    -0.017 C 
ATOM     13  C   UNL     1      -0.868   0.080   2.028  0.00  0.00    -0.083 C 
ENDBRANCH   9  13
ENDBRANCH   8   9
ENDBRANCH   7   8
ENDBRANCH   1   7
BRANCH   4  14
ATOM     14  C   UNL     1      -5.417  -7.020   0.891  0.00  0.00    +0.098 C 
BRANCH  14  15
ATOM     15  C   UNL     1      -4.985  -8.472   0.677  0.00  0.00    +0.016 C 
BRANCH  15  16
ATOM     16  C   UNL     1      -4.326  -8.990   1.929  0.00  0.00    +0.093 A 
ATOM     17  C   UNL     1      -4.907  -9.770   2.859  0.00  0.00    +0.043 A 
ATOM     18  C   UNL     1      -3.934 -10.016   3.854  0.00  0.00    +0.041 A 
ATOM     19  C   UNL     1      -2.816  -9.371   3.474  0.00  0.00    +0.195 A 
ATOM     20  O   UNL     1      -3.058  -8.757   2.304  0.00  0.00    -0.469 OA
ENDBRANCH  15  16
BRANCH  15  21
ATOM     21  N   UNL     1      -4.034  -8.540  -0.440  0.00  0.00    +0.384 N 
ATOM     22  C   UNL     1      -3.612  -9.933  -0.640  0.00  0.00    -0.096 C 
ATOM     23  C   UNL     1      -4.678  -8.044  -1.663  0.00  0.00    -0.096 C 
ATOM     24  H   UNL     1      -3.227  -7.971  -0.231  0.00  0.00    -0.082 HD
ENDBRANCH  15  21
ENDBRANCH  14  15
ENDBRANCH   4  14
TORSDOF 8
