REMARK  Name = ZINC63511318
REMARK  9 active torsions:
REMARK  status: ('A' for Active; 'I' for Inactive)
REMARK    1  A    between atoms: C_1  and  C_2
REMARK    2  A    between atoms: C_2  and  O_3
REMARK    3  A    between atoms: O_3  and  C_4
REMARK    4  A    between atoms: C_4  and  C_6
REMARK    5  A    between atoms: C_7  and  C_13
REMARK    6  A    between atoms: C_13  and  N_14
REMARK    7  A    between atoms: N_14  and  C_15
REMARK    8  A    between atoms: C_15  and  C_20
REMARK    9  A    between atoms: C_22  and  C_25
REMARK                            x       y       z     vdW  Elec       q    Type
REMARK                         _______ _______ _______ _____ _____    ______ ____
ROOT
ATOM      1  C   UNL     1       0.768  -1.954  -3.393  0.00  0.00    +0.072 C 
ATOM      2  C   UNL     1       0.951  -3.290  -3.456  0.00  0.00    +0.037 C 
ATOM      3  N   UNL     1       1.514  -3.873  -4.555  0.00  0.00    -0.271 N 
ATOM      4  C   UNL     1       1.920  -3.189  -5.632  0.00  0.00    +0.304 C 
ATOM      5  O   UNL     1       2.410  -3.797  -6.564  0.00  0.00    -0.253 OA
ATOM      6  N   UNL     1       1.804  -1.849  -5.717  0.00  0.00    -0.295 N 
ATOM      7  C   UNL     1       1.202  -1.125  -4.585  0.00  0.00    +0.150 C 
ATOM      8  H   UNL     1       1.625  -4.837  -4.556  0.00  0.00    +0.156 HD
ATOM      9  H   UNL     1       2.105  -1.374  -6.507  0.00  0.00    +0.151 HD
ENDROOT
BRANCH   1  10
ATOM     10  C   UNL     1       0.185  -1.348  -2.255  0.00  0.00    +0.338 C 
ATOM     11  O   UNL     1       0.891  -0.809  -1.424  0.00  0.00    -0.245 OA
BRANCH  10  12
ATOM     12  O   UNL     1      -1.154  -1.369  -2.091  0.00  0.00    -0.462 OA
BRANCH  12  14
ATOM     13  C   UNL     1      -3.199  -0.849  -0.913  0.00  0.00    +0.048 C 
ATOM     14  C   UNL     1      -1.671  -0.790  -0.891  0.00  0.00    +0.229 C 
ENDBRANCH  12  14
ENDBRANCH  10  12
ENDBRANCH   1  10
BRANCH   2  15
ATOM     15  C   UNL     1       0.528  -4.152  -2.294  0.00  0.00    +0.133 C 
BRANCH  15  16
ATOM     16  N   UNL     1      -0.578  -5.024  -2.709  0.00  0.00    -0.299 NA
ATOM     17  H   UNL     1      -1.384  -4.482  -2.982  0.00  0.00    +0.123 HD
BRANCH  16  18
ATOM     18  C   UNL     1      -0.922  -5.980  -1.648  0.00  0.00    +0.083 C 
ATOM     19  C   UNL     1       0.315  -6.823  -1.275  0.00  0.00    +0.030 C 
ATOM     20  C   UNL     1      -0.257  -8.234  -0.994  0.00  0.00    +0.002 C 
ATOM     21  C   UNL     1      -1.365  -8.374  -2.068  0.00  0.00    +0.002 C 
ATOM     22  C   UNL     1      -1.990  -6.966  -2.152  0.00  0.00    +0.030 C 
BRANCH  18  23
ATOM     23  C   UNL     1      -1.430  -5.244  -0.435  0.00  0.00    +0.192 A 
ATOM     24  N   UNL     1      -0.735  -4.354   0.282  0.00  0.00    -0.194 NA
ATOM     25  C   UNL     1      -1.466  -3.903   1.264  0.00  0.00    +0.224 A 
ATOM     26  O   UNL     1      -2.664  -4.497   1.203  0.00  0.00    -0.338 OA
ATOM     27  N   UNL     1      -2.620  -5.365   0.080  0.00  0.00    -0.059 NA
ATOM     28  C   UNL     1      -1.035  -2.887   2.291  0.00  0.00    +0.112 C 
ENDBRANCH  18  23
ENDBRANCH  16  18
ENDBRANCH  15  16
ENDBRANCH   2  15
TORSDOF 7
