REMARK  Name = ZINC08994802
REMARK  5 active torsions:
REMARK  status: ('A' for Active; 'I' for Inactive)
REMARK    1  A    between atoms: C_1  and  C_2
REMARK    2  A    between atoms: C_2  and  C_3
REMARK    3  A    between atoms: C_2  and  C_4
REMARK    4  A    between atoms: N_12  and  C_15
REMARK    5  A    between atoms: C_15  and  C_16
REMARK                            x       y       z     vdW  Elec       q    Type
REMARK                         _______ _______ _______ _____ _____    ______ ____
ROOT
ATOM      1  C   UNL     1       1.530   6.329  -0.761  0.00  0.00    -0.055 C 
ATOM      2  C   UNL     1       1.225   6.774   0.684  0.00  0.00    +0.073 C 
ATOM      3  C   UNL     1      -0.044   5.974   1.090  0.00  0.00    +0.088 C 
ATOM      4  C   UNL     1      -1.087   7.051   1.282  0.00  0.00    +0.225 C 
ATOM      5  O   UNL     1      -2.237   6.861   1.617  0.00  0.00    -0.275 OA
ATOM      6  N   UNL     1      -0.545   8.247   1.025  0.00  0.00    -0.238 N 
ATOM      7  C   UNL     1       0.746   8.208   0.676  0.00  0.00    +0.224 C 
ATOM      8  O   UNL     1       1.426   9.172   0.398  0.00  0.00    -0.275 OA
ATOM      9  C   UNL     1      -0.387   5.140  -0.150  0.00  0.00    +0.050 C 
ATOM     10  C   UNL     1       0.119   3.731  -0.025  0.00  0.00    -0.025 A 
ATOM     11  C   UNL     1       1.370   3.186   0.154  0.00  0.00    +0.043 A 
ATOM     12  C   UNL     1       1.522   1.811   0.237  0.00  0.00    +0.124 A 
ATOM     13  C   UNL     1       0.412   0.989   0.138  0.00  0.00    +0.040 A 
ATOM     14  C   UNL     1      -0.842   1.533  -0.048  0.00  0.00    +0.026 A 
ATOM     15  C   UNL     1      -1.003   2.914  -0.126  0.00  0.00    +0.036 A 
ATOM     16  N   UNL     1      -2.152   3.690  -0.303  0.00  0.00    -0.286 N 
ATOM     17  C   UNL     1      -1.875   5.008  -0.328  0.00  0.00    +0.211 C 
ATOM     18  O   UNL     1      -2.671   5.912  -0.466  0.00  0.00    -0.277 OA
ATOM     19  F   UNL     1       2.750   1.275   0.412  0.00  0.00    -0.205 F 
ATOM     20  H   UNL     1      -3.044   3.322  -0.398  0.00  0.00    +0.155 HD
ATOM     21  N   UNL     1       0.244   5.835  -1.259  0.00  0.00    +0.394 N 
ATOM     22  H   UNL     1       0.392   5.190  -2.044  0.00  0.00    -0.083 HD
ATOM     23  H   UNL     1      -0.343   6.620  -1.566  0.00  0.00    -0.083 HD
ENDROOT
BRANCH   1  25
ATOM     24  C   UNL     1       3.422   7.924  -1.103  0.00  0.00    +0.005 C 
ATOM     25  C   UNL     1       2.031   7.513  -1.591  0.00  0.00    -0.031 C 
ATOM     26  C   UNL     1       2.107   7.108  -3.064  0.00  0.00    +0.005 C 
ENDBRANCH   1  25
BRANCH   6  27
ATOM     27  C   UNL     1      -1.303   9.497   1.118  0.00  0.00    +0.143 C 
BRANCH  27  28
ATOM     28  C   UNL     1      -1.935   9.801  -0.216  0.00  0.00    -0.015 C 
ATOM     29  C   UNL     1      -3.228   9.999  -0.298  0.00  0.00    +0.005 C 
ENDBRANCH  27  28
ENDBRANCH   6  27
TORSDOF 3
