REMARK  Name = ZINC32689461
REMARK  9 active torsions:
REMARK  status: ('A' for Active; 'I' for Inactive)
REMARK    1  A    between atoms: C_1  and  C_2
REMARK    2  A    between atoms: C_4  and  N_20
REMARK    3  A    between atoms: C_6  and  C_7
REMARK    4  A    between atoms: N_9  and  C_10
REMARK    5  A    between atoms: C_10  and  C_11
REMARK    6  A    between atoms: C_16  and  N_17
REMARK    7  A    between atoms: N_17  and  C_18
REMARK    8  A    between atoms: N_17  and  C_19
REMARK    9  A    between atoms: C_21  and  C_23
REMARK                            x       y       z     vdW  Elec       q    Type
REMARK                         _______ _______ _______ _____ _____    ______ ____
ROOT
ATOM      1  C   UNL     1      -0.059   2.133   0.480  0.00  0.00    +0.045 C 
ATOM      2  C   UNL     1      -0.162   0.637   0.331  0.00  0.00    -0.029 A 
ATOM      3  C   UNL     1      -0.287   0.036  -0.894  0.00  0.00    +0.035 A 
ATOM      4  C   UNL     1      -0.376  -1.336  -0.949  0.00  0.00    +0.073 A 
ATOM      5  S   UNL     1      -0.291  -1.816   0.658  0.00  0.00    -0.069 S 
ATOM      6  C   UNL     1      -0.130  -0.216   1.426  0.00  0.00    +0.078 A 
ENDROOT
BRANCH   6   7
ATOM      7  C   UNL     1      -0.000   0.114   2.844  0.00  0.00    +0.251 C 
ATOM      8  O   UNL     1       0.099   1.276   3.192  0.00  0.00    -0.270 OA
ATOM      9  N   UNL     1       0.010  -0.869   3.766  0.00  0.00    -0.307 N 
ATOM     10  H   UNL     1      -0.069  -1.795   3.489  0.00  0.00    +0.149 HD
BRANCH   9  11
ATOM     11  C   UNL     1       0.140  -0.539   5.187  0.00  0.00    +0.143 C 
BRANCH  11  12
ATOM     12  C   UNL     1       0.124  -1.807   6.001  0.00  0.00    +0.008 A 
ATOM     13  C   UNL     1      -1.017  -2.188   6.684  0.00  0.00    +0.010 A 
ATOM     14  C   UNL     1      -0.987  -3.364   7.421  0.00  0.00    +0.018 A 
ATOM     15  C   UNL     1       0.172  -4.113   7.452  0.00  0.00    +0.084 A 
ATOM     16  N   UNL     1       1.246  -3.725   6.792  0.00  0.00    -0.349 N 
ATOM     17  C   UNL     1       1.255  -2.613   6.072  0.00  0.00    +0.103 A 
ATOM     18  H   UNL     1       2.048  -4.270   6.830  0.00  0.00    +0.167 HD
BRANCH  17  19
ATOM     19  N   UNL     1       2.408  -2.245   5.387  0.00  0.00    -0.323 N 
ATOM     20  C   UNL     1       3.395  -1.374   6.029  0.00  0.00    +0.130 C 
ATOM     21  C   UNL     1       2.634  -2.729   4.022  0.00  0.00    +0.130 C 
ENDBRANCH  17  19
ENDBRANCH  11  12
ENDBRANCH   9  11
ENDBRANCH   6   7
BRANCH   4  22
ATOM     22  N   UNL     1      -0.507  -2.138  -2.074  0.00  0.00    -0.273 N 
ATOM     23  C   UNL     1      -0.580  -3.478  -1.942  0.00  0.00    +0.284 C 
ATOM     24  O   UNL     1      -0.532  -3.983  -0.836  0.00  0.00    -0.266 OA
ATOM     25  H   UNL     1      -0.545  -1.735  -2.956  0.00  0.00    +0.156 HD
BRANCH  23  26
ATOM     26  C   UNL     1      -0.718  -4.325  -3.130  0.00  0.00    +0.189 A 
ATOM     27  C   UNL     1      -0.808  -5.688  -3.138  0.00  0.00    +0.054 A 
ATOM     28  C   UNL     1      -0.928  -6.077  -4.481  0.00  0.00    +0.042 A 
ATOM     29  C   UNL     1      -0.905  -4.949  -5.226  0.00  0.00    +0.196 A 
ATOM     30  O   UNL     1      -0.783  -3.895  -4.407  0.00  0.00    -0.458 OA
ENDBRANCH  23  26
ENDBRANCH   4  22
TORSDOF 6
