REMARK  Name = ZINC13345688
REMARK  9 active torsions:
REMARK  status: ('A' for Active; 'I' for Inactive)
REMARK    1  A    between atoms: C_1  and  N_2
REMARK    2  A    between atoms: N_2  and  C_3
REMARK    3  A    between atoms: N_2  and  S_4
REMARK    4  A    between atoms: S_4  and  C_7
REMARK    5  A    between atoms: C_11  and  N_13
REMARK    6  A    between atoms: N_13  and  S_14
REMARK    7  A    between atoms: S_14  and  C_17
REMARK    8  A    between atoms: C_20  and  O_25
REMARK    9  A    between atoms: C_21  and  C_23
REMARK                            x       y       z     vdW  Elec       q    Type
REMARK                         _______ _______ _______ _____ _____    ______ ____
ROOT
ATOM      1  N   UNL     1      -0.017   1.393   0.010  0.00  0.00    -0.216 N 
ATOM      2  H   UNL     1      -0.863   1.866   0.016  0.00  0.00    +0.174 HD
ENDROOT
BRANCH   1   7
ATOM      3  C   UNL     1      -0.826  -2.088  -0.848  0.00  0.00    +0.107 A 
ATOM      4  C   UNL     1       0.039  -2.771  -0.012  0.00  0.00    +0.028 A 
ATOM      5  C   UNL     1       0.885  -2.074   0.830  0.00  0.00    +0.004 A 
ATOM      6  C   UNL     1       0.869  -0.693   0.840  0.00  0.00    +0.024 A 
ATOM      7  C   UNL     1       0.002  -0.004   0.002  0.00  0.00    +0.050 A 
ATOM      8  C   UNL     1      -0.851  -0.707  -0.840  0.00  0.00    +0.053 A 
BRANCH   3   9
ATOM      9  S   UNL     1      -1.903  -2.981  -1.919  0.00  0.00    +0.060 S 
ATOM     10  O   UNL     1      -2.226  -2.106  -2.991  0.00  0.00    -0.153 OA
ATOM     11  O   UNL     1      -1.306  -4.253  -2.127  0.00  0.00    -0.153 OA
BRANCH   9  13
ATOM     12  C   UNL     1      -4.401  -2.273  -1.159  0.00  0.00    +0.131 C 
ATOM     13  N   UNL     1      -3.310  -3.248  -1.087  0.00  0.00    -0.183 NA
ATOM     14  C   UNL     1      -3.463  -4.460  -0.278  0.00  0.00    +0.131 C 
ENDBRANCH   9  13
ENDBRANCH   3   9
ENDBRANCH   1   7
BRANCH   1  15
ATOM     15  S   UNL     1       1.406   2.240   0.001  0.00  0.00    +0.072 S 
ATOM     16  O   UNL     1       1.058   3.618  -0.016  0.00  0.00    -0.150 OA
ATOM     17  O   UNL     1       2.223   1.673   1.015  0.00  0.00    -0.150 OA
BRANCH  15  18
ATOM     18  C   UNL     1       2.203   1.904  -1.534  0.00  0.00    +0.110 A 
ATOM     19  C   UNL     1       3.081   0.837  -1.636  0.00  0.00    +0.032 A 
ATOM     20  C   UNL     1       3.708   0.560  -2.834  0.00  0.00    +0.048 A 
ATOM     21  C   UNL     1       3.470   1.357  -3.944  0.00  0.00    +0.131 A 
ATOM     22  C   UNL     1       2.586   2.440  -3.844  0.00  0.00    +0.106 A 
ATOM     23  C   UNL     1       1.954   2.706  -2.626  0.00  0.00    +0.047 A 
BRANCH  22  24
ATOM     24  C   UNL     1       2.324   3.294  -5.017  0.00  0.00    +0.390 C 
ATOM     25  O   UNL     1       2.875   3.060  -6.074  0.00  0.00    -0.240 OA
ATOM     26  O   UNL     1       1.473   4.334  -4.917  0.00  0.00    -0.240 OA
ENDBRANCH  22  24
BRANCH  21  27
ATOM     27  O   UNL     1       4.090   1.089  -5.121  0.00  0.00    -0.506 OA
ATOM     28  H   UNL     1       4.940   1.537  -5.229  0.00  0.00    +0.292 HD
ENDBRANCH  21  27
ENDBRANCH  15  18
ENDBRANCH   1  15
TORSDOF 7
