REMARK  Name = ZINC44896731
REMARK  3 active torsions:
REMARK  status: ('A' for Active; 'I' for Inactive)
REMARK    1  A    between atoms: C_1  and  C_2
REMARK    2  A    between atoms: N_10  and  N_14
REMARK    3  A    between atoms: C_15  and  C_17
REMARK                            x       y       z     vdW  Elec       q    Type
REMARK                         _______ _______ _______ _____ _____    ______ ____
ROOT
ATOM      1  C   UNL     1      -0.019   1.526   0.010  0.00  0.00    +0.007 C 
ATOM      2  C   UNL     1       0.002  -0.004   0.002  0.00  0.00    -0.014 C 
ATOM      3  C   UNL     1      -1.433  -0.533   0.010  0.00  0.00    +0.006 C 
ATOM      4  C   UNL     1      -1.412  -2.064  -0.009  0.00  0.00    +0.035 C 
ATOM      5  C   UNL     1      -0.655  -2.578   1.211  0.00  0.00    +0.114 C 
ATOM      6  C   UNL     1       0.772  -2.041   1.227  0.00  0.00    +0.035 C 
ATOM      7  C   UNL     1       0.742  -0.510   1.242  0.00  0.00    +0.006 C 
ATOM      8  C   UNL     1      -0.651  -4.089   1.231  0.00  0.00    +0.263 C 
ATOM      9  O   UNL     1      -0.174  -4.833   0.401  0.00  0.00    -0.271 OA
ATOM     10  N   UNL     1      -1.290  -4.436   2.367  0.00  0.00    -0.137 N 
ATOM     11  C   UNL     1      -1.691  -3.361   3.056  0.00  0.00    +0.326 C 
ATOM     12  O   UNL     1      -2.288  -3.418   4.113  0.00  0.00    -0.251 OA
ATOM     13  N   UNL     1      -1.358  -2.207   2.446  0.00  0.00    -0.284 N 
ATOM     14  H   UNL     1      -1.546  -1.309   2.760  0.00  0.00    +0.151 HD
ENDROOT
BRANCH  10  15
ATOM     15  N   UNL     1      -1.508  -5.759   2.776  0.00  0.00    -0.223 N 
ATOM     16  C   UNL     1      -0.773  -6.285   3.775  0.00  0.00    +0.234 C 
ATOM     17  O   UNL     1       0.077  -5.615   4.321  0.00  0.00    -0.274 OA
ATOM     18  H   UNL     1      -2.188  -6.295   2.339  0.00  0.00    +0.174 HD
BRANCH  16  19
ATOM     19  C   UNL     1      -1.008  -7.708   4.214  0.00  0.00    +0.099 C 
ATOM     20  C   UNL     1      -0.747  -8.656   3.032  0.00  0.00    +0.037 C 
ATOM     21  C   UNL     1      -0.687 -10.110   3.582  0.00  0.00    +0.166 C 
ATOM     22  S   UNL     1       0.263  -9.843   5.138  0.00  0.00    -0.030 S 
ATOM     23  O   UNL     1       1.646 -10.036   4.874  0.00  0.00    -0.174 OA
ATOM     24  O   UNL     1      -0.356 -10.571   6.189  0.00  0.00    -0.174 OA
ATOM     25  C   UNL     1      -0.052  -8.049   5.383  0.00  0.00    +0.178 C 
ENDBRANCH  16  19
ENDBRANCH  10  15
TORSDOF 2
