REMARK  Name = ZINC39623462
REMARK  9 active torsions:
REMARK  status: ('A' for Active; 'I' for Inactive)
REMARK    1  A    between atoms: C_1  and  C_2
REMARK    2  A    between atoms: C_2  and  C_3
REMARK    3  A    between atoms: C_3  and  C_4
REMARK    4  A    between atoms: C_4  and  C_5
REMARK    5  A    between atoms: C_5  and  N_6
REMARK    6  A    between atoms: C_7  and  C_9
REMARK    7  A    between atoms: C_20  and  C_22
REMARK    8  A    between atoms: C_27  and  O_28
REMARK    9  A    between atoms: O_28  and  C_29
REMARK                            x       y       z     vdW  Elec       q    Type
REMARK                         _______ _______ _______ _____ _____    ______ ____
ROOT
ATOM      1  C   UNL     1       2.429  -6.528   3.110  0.00  0.00    +0.100 C 
ATOM      2  C   UNL     1       0.962  -6.902   3.419  0.00  0.00    +0.121 C 
ATOM      3  N   UNL     1       1.057  -8.029   4.376  0.00  0.00    -0.296 N 
ATOM      4  C   UNL     1       2.187  -7.665   5.265  0.00  0.00    +0.115 C 
ATOM      5  C   UNL     1       3.229  -7.030   4.323  0.00  0.00    -0.004 C 
ATOM      6  C   UNL     1       3.924  -5.862   5.018  0.00  0.00    -0.010 C 
ATOM      7  C   UNL     1       4.760  -6.393   6.186  0.00  0.00    -0.082 C 
ATOM      8  N   UNL     1       5.753  -7.351   5.684  0.00  0.00    +0.379 N 
ATOM      9  C   UNL     1       5.075  -8.515   5.101  0.00  0.00    -0.082 C 
ATOM     10  C   UNL     1       4.252  -8.074   3.887  0.00  0.00    -0.010 C 
ATOM     11  C   UNL     1       0.290  -9.136   4.427  0.00  0.00    +0.252 C 
ATOM     12  O   UNL     1       0.432  -9.933   5.335  0.00  0.00    -0.270 OA
ATOM     13  H   UNL     1       6.321  -6.906   4.979  0.00  0.00    -0.086 HD
ATOM     14  H   UNL     1       6.342  -7.653   6.446  0.00  0.00    -0.086 HD
ENDROOT
BRANCH  11  15
ATOM     15  C   UNL     1      -0.721  -9.382   3.381  0.00  0.00    +0.099 A 
ATOM     16  C   UNL     1      -1.418  -8.316   2.800  0.00  0.00    +0.020 A 
ATOM     17  C   UNL     1      -2.355  -8.600   1.823  0.00  0.00    +0.021 A 
ATOM     18  C   UNL     1      -2.575  -9.914   1.452  0.00  0.00    +0.114 A 
ATOM     19  N   UNL     1      -1.907 -10.903   2.013  0.00  0.00    -0.220 NA
ATOM     20  C   UNL     1      -0.996 -10.687   2.947  0.00  0.00    +0.233 A 
BRANCH  20  21
ATOM     21  O   UNL     1      -0.330 -11.733   3.492  0.00  0.00    -0.437 OA
BRANCH  21  22
ATOM     22  C   UNL     1      -0.693 -12.987   3.115  0.00  0.00    +0.130 A 
ATOM     23  C   UNL     1      -1.498 -13.756   3.943  0.00  0.00    +0.046 A 
ATOM     24  C   UNL     1      -1.865 -15.030   3.557  0.00  0.00    +0.004 A 
ATOM     25  C   UNL     1      -1.433 -15.540   2.347  0.00  0.00    +0.000 A 
ATOM     26  C   UNL     1      -0.631 -14.775   1.520  0.00  0.00    +0.004 A 
ATOM     27  C   UNL     1      -0.265 -13.498   1.898  0.00  0.00    +0.046 A 
ENDBRANCH  21  22
ENDBRANCH  20  21
ENDBRANCH  11  15
BRANCH   1  29
ATOM     28  N   UNL     1       3.559  -4.520   2.209  0.00  0.00    -0.315 N 
ATOM     29  C   UNL     1       2.572  -5.034   2.968  0.00  0.00    +0.218 C 
ATOM     30  O   UNL     1       1.798  -4.295   3.538  0.00  0.00    -0.275 OA
ATOM     31  H   UNL     1       4.178  -5.112   1.753  0.00  0.00    +0.149 HD
BRANCH  28  32
ATOM     32  C   UNL     1       3.697  -3.068   2.071  0.00  0.00    +0.104 C 
BRANCH  32  33
ATOM     33  C   UNL     1       4.888  -2.753   1.163  0.00  0.00    +0.019 C 
BRANCH  33  34
ATOM     34  C   UNL     1       5.032  -1.237   1.019  0.00  0.00    +0.001 C 
BRANCH  34  36
ATOM     35  C   UNL     1       6.367   0.595  -0.033  0.00  0.00    +0.004 C 
ATOM     36  C   UNL     1       6.222  -0.922   0.111  0.00  0.00    -0.003 C 
ENDBRANCH  34  36
ENDBRANCH  33  34
ENDBRANCH  32  33
ENDBRANCH  28  32
ENDBRANCH   1  29
TORSDOF 8
