REMARK  Name = ZINC37326803
REMARK  6 active torsions:
REMARK  status: ('A' for Active; 'I' for Inactive)
REMARK    1  A    between atoms: C_4  and  O_18
REMARK    2  A    between atoms: C_5  and  C_7
REMARK    3  A    between atoms: N_11  and  C_15
REMARK    4  A    between atoms: C_15  and  C_16
REMARK    5  A    between atoms: C_16  and  N_17
REMARK    6  A    between atoms: O_18  and  C_19
REMARK                            x       y       z     vdW  Elec       q    Type
REMARK                         _______ _______ _______ _____ _____    ______ ____
ROOT
ATOM      1  C   UNL     1       1.254  -2.152  -0.021  0.00  0.00    +0.032 C 
ATOM      2  C   UNL     1       0.098  -2.854   0.089  0.00  0.00    +0.080 C 
ATOM      3  C   UNL     1      -0.111  -4.311   0.210  0.00  0.00    +0.260 C 
ATOM      4  O   UNL     1       0.822  -5.091   0.223  0.00  0.00    -0.269 OA
ATOM      5  N   UNL     1      -1.364  -4.724   0.303  0.00  0.00    -0.230 N 
ATOM      6  C   UNL     1      -2.395  -3.856   0.288  0.00  0.00    +0.286 C 
ATOM      7  O   UNL     1      -3.586  -4.095   0.365  0.00  0.00    -0.262 OA
ATOM      8  S   UNL     1      -1.591  -2.269   0.136  0.00  0.00    -0.026 S 
ENDROOT
BRANCH   1  13
ATOM      9  C   UNL     1       0.110   1.356   0.633  0.00  0.00    +0.001 A 
ATOM     10  C   UNL     1       1.187   2.086   0.156  0.00  0.00    +0.004 A 
ATOM     11  C   UNL     1       2.286   1.443  -0.380  0.00  0.00    +0.046 A 
ATOM     12  C   UNL     1       2.320   0.059  -0.443  0.00  0.00    +0.134 A 
ATOM     13  C   UNL     1       1.231  -0.686   0.040  0.00  0.00    +0.018 A 
ATOM     14  C   UNL     1       0.124  -0.021   0.579  0.00  0.00    +0.011 A 
BRANCH  12  15
ATOM     15  O   UNL     1       3.399  -0.574  -0.969  0.00  0.00    -0.434 OA
BRANCH  15  16
ATOM     16  C   UNL     1       4.467   0.250  -1.441  0.00  0.00    +0.541 C 
ATOM     17  F   UNL     1       3.995   1.093  -2.453  0.00  0.00    -0.166 F 
ATOM     18  F   UNL     1       4.962   1.022  -0.384  0.00  0.00    -0.166 F 
ENDBRANCH  15  16
ENDBRANCH  12  15
ENDBRANCH   1  13
BRANCH   5  19
ATOM     19  C   UNL     1      -1.637  -6.158   0.425  0.00  0.00    +0.098 C 
BRANCH  19  20
ATOM     20  C   UNL     1      -1.661  -6.549   1.904  0.00  0.00    -0.067 C 
BRANCH  20  21
ATOM     21  N   UNL     1      -1.935  -7.987   2.026  0.00  0.00    +0.379 N 
ATOM     22  H   UNL     1      -2.829  -8.196   1.609  0.00  0.00    -0.090 HD
ATOM     23  H   UNL     1      -1.213  -8.509   1.552  0.00  0.00    -0.090 HD
ATOM     24  H   UNL     1      -1.950  -8.245   3.001  0.00  0.00    -0.090 HD
ENDBRANCH  20  21
ENDBRANCH  19  20
ENDBRANCH   5  19
TORSDOF 6
