REMARK  Name = ZINC20206098
REMARK  11 active torsions:
REMARK  status: ('A' for Active; 'I' for Inactive)
REMARK    1  A    between atoms: C_1  and  O_2
REMARK    2  A    between atoms: O_2  and  C_3
REMARK    3  A    between atoms: C_6  and  O_9
REMARK    4  A    between atoms: O_9  and  C_10
REMARK    5  A    between atoms: C_10  and  C_11
REMARK    6  A    between atoms: C_11  and  C_12
REMARK    7  A    between atoms: C_12  and  O_13
REMARK    8  A    between atoms: O_13  and  C_14
REMARK    9  A    between atoms: C_17  and  C_20
REMARK   10  A    between atoms: C_31  and  S_32
REMARK   11  A    between atoms: S_32  and  C_35
REMARK                            x       y       z     vdW  Elec       q    Type
REMARK                         _______ _______ _______ _____ _____    ______ ____
ROOT
ATOM      1  C   UNL     1      -7.943  -7.885  -0.730  0.00  0.00    +0.121 A 
ATOM      2  C   UNL     1      -6.792  -8.572  -0.358  0.00  0.00    +0.046 A 
ATOM      3  C   UNL     1      -6.829  -9.930  -0.175  0.00  0.00    +0.011 A 
ATOM      4  C   UNL     1      -8.030 -10.627  -0.364  0.00  0.00    -0.024 A 
ATOM      5  C   UNL     1      -9.188  -9.930  -0.740  0.00  0.00    +0.011 A 
ATOM      6  C   UNL     1      -9.139  -8.571  -0.915  0.00  0.00    +0.046 A 
ENDROOT
BRANCH   4   7
ATOM      7  C   UNL     1      -8.076 -12.078  -0.171  0.00  0.00    +0.024 C 
ATOM      8  C   UNL     1      -9.167 -12.657   0.438  0.00  0.00    +0.078 C 
ATOM      9  C   UNL     1      -9.347 -14.137   0.488  0.00  0.00    +0.117 C 
ATOM     10  N   UNL     1      -8.354 -14.981   0.559  0.00  0.00    -0.386 N 
ATOM     11  N   UNL     1     -10.700 -14.532   0.451  0.00  0.00    -0.203 N 
ATOM     12  C   UNL     1     -11.659 -13.629   0.859  0.00  0.00    +0.183 C 
ATOM     13  N   UNL     1     -11.461 -12.374   1.194  0.00  0.00    -0.152 NA
ATOM     14  C   UNL     1     -10.225 -11.845   1.087  0.00  0.00    +0.273 C 
ATOM     15  O   UNL     1      -9.983 -10.725   1.508  0.00  0.00    -0.268 OA
ATOM     16  S   UNL     1     -13.069 -14.514   0.792  0.00  0.00    +0.049 S 
ATOM     17  N   UNL     1     -12.463 -15.945   0.163  0.00  0.00    -0.174 NA
ATOM     18  C   UNL     1     -11.188 -15.733   0.060  0.00  0.00    +0.257 C 
ATOM     19  H   UNL     1      -7.441 -14.662   0.483  0.00  0.00    +0.157 HD
ATOM     20  H   UNL     1      -8.528 -15.926   0.687  0.00  0.00    +0.157 HD
BRANCH  18  21
ATOM     21  S   UNL     1     -10.115 -16.979  -0.573  0.00  0.00    +0.026 S 
ATOM     22  O   UNL     1     -10.960 -17.833  -1.333  0.00  0.00    -0.167 OA
ATOM     23  O   UNL     1      -9.057 -16.264  -1.197  0.00  0.00    -0.167 OA
ATOM     24  C   UNL     1      -9.500 -17.853   0.892  0.00  0.00    +0.203 C 
ENDBRANCH  18  21
ENDBRANCH   4   7
BRANCH   1  25
ATOM     25  O   UNL     1      -7.901  -6.541  -0.909  0.00  0.00    -0.492 OA
BRANCH  25  26
ATOM     26  C   UNL     1      -6.641  -5.899  -0.704  0.00  0.00    +0.232 C 
BRANCH  26  27
ATOM     27  C   UNL     1      -6.788  -4.396  -0.950  0.00  0.00    +0.082 C 
BRANCH  27  28
ATOM     28  C   UNL     1      -5.439  -3.708  -0.730  0.00  0.00    +0.232 C 
BRANCH  28  29
ATOM     29  O   UNL     1      -5.577  -2.305  -0.959  0.00  0.00    -0.492 OA
BRANCH  29  33
ATOM     30  C   UNL     1      -2.193   0.012  -0.488  0.00  0.00    +0.120 A 
ATOM     31  C   UNL     1      -3.393   0.604  -0.855  0.00  0.00    +0.049 A 
ATOM     32  C   UNL     1      -4.525  -0.172  -1.012  0.00  0.00    +0.049 A 
ATOM     33  C   UNL     1      -4.462  -1.542  -0.805  0.00  0.00    +0.121 A 
ATOM     34  C   UNL     1      -3.262  -2.133  -0.440  0.00  0.00    +0.049 A 
ATOM     35  C   UNL     1      -2.128  -1.358  -0.286  0.00  0.00    +0.049 A 
BRANCH  30  37
ATOM     36  C   UNL     1      -1.217   2.180  -0.557  0.00  0.00    +0.277 C 
ATOM     37  O   UNL     1      -1.078   0.776  -0.333  0.00  0.00    -0.495 OA
ENDBRANCH  30  37
ENDBRANCH  29  33
ENDBRANCH  28  29
ENDBRANCH  27  28
ENDBRANCH  26  27
ENDBRANCH  25  26
ENDBRANCH   1  25
TORSDOF 9
