REMARK  Name = ZINC44496158
REMARK  10 active torsions:
REMARK  status: ('A' for Active; 'I' for Inactive)
REMARK    1  A    between atoms: C_1  and  C_2
REMARK    2  A    between atoms: C_2  and  N_3
REMARK    3  A    between atoms: C_5  and  C_8
REMARK    4  A    between atoms: C_8  and  C_10
REMARK    5  A    between atoms: C_8  and  N_11
REMARK    6  A    between atoms: N_11  and  C_12
REMARK    7  A    between atoms: C_18  and  C_20
REMARK    8  A    between atoms: C_20  and  C_21
REMARK    9  A    between atoms: C_20  and  C_22
REMARK   10  A    between atoms: C_20  and  C_23
REMARK                            x       y       z     vdW  Elec       q    Type
REMARK                         _______ _______ _______ _____ _____    ______ ____
ROOT
ATOM      1  N   UNL     1       3.318  -3.623  -4.376  0.00  0.00    +0.386 N 
ATOM      2  H   UNL     1       2.881  -3.178  -5.169  0.00  0.00    -0.085 HD
ATOM      3  H   UNL     1       4.000  -2.998  -3.973  0.00  0.00    -0.085 HD
ENDROOT
BRANCH   1   4
ATOM      4  C   UNL     1       3.984  -4.858  -4.813  0.00  0.00    -0.067 C 
ATOM      5  C   UNL     1       5.459  -4.569  -5.098  0.00  0.00    -0.015 C 
ATOM      6  C   UNL     1       5.569  -3.512  -6.199  0.00  0.00    -0.002 C 
ATOM      7  C   UNL     1       4.896  -4.031  -7.472  0.00  0.00    +0.000 C 
ATOM      8  C   UNL     1       3.421  -4.320  -7.188  0.00  0.00    +0.002 C 
ATOM      9  C   UNL     1       3.312  -5.377  -6.086  0.00  0.00    -0.020 C 
BRANCH   9  10
ATOM     10  C   UNL     1       1.836  -5.666  -5.802  0.00  0.00    -0.036 C 
ATOM     11  C   UNL     1       1.070  -4.346  -5.691  0.00  0.00    +0.011 C 
ATOM     12  C   UNL     1       1.251  -6.501  -6.942  0.00  0.00    +0.011 C 
ATOM     13  C   UNL     1       1.712  -6.439  -4.487  0.00  0.00    +0.011 C 
ENDBRANCH   9  10
ENDBRANCH   1   4
BRANCH   1  14
ATOM     14  C   UNL     1       2.297  -3.948  -3.372  0.00  0.00    -0.041 C 
ATOM     15  C   UNL     1       2.858  -4.975  -2.386  0.00  0.00    -0.009 C 
BRANCH  14  18
ATOM     16  N   UNL     1       0.735  -1.165  -1.606  0.00  0.00    -0.272 N 
ATOM     17  C   UNL     1       0.658  -2.352  -2.245  0.00  0.00    +0.110 A 
ATOM     18  C   UNL     1       1.910  -2.696  -2.627  0.00  0.00    -0.024 A 
ATOM     19  C   UNL     1       2.781  -1.685  -2.207  0.00  0.00    +0.136 A 
ATOM     20  N   UNL     1       2.077  -0.764  -1.601  0.00  0.00    -0.179 NA
BRANCH  16  22
ATOM     21  C   UNL     1      -0.099  -0.128   0.446  0.00  0.00    +0.029 C 
ATOM     22  C   UNL     1      -0.389  -0.424  -1.027  0.00  0.00    +0.140 C 
ENDBRANCH  16  22
ENDBRANCH  14  18
ENDBRANCH   1  14
TORSDOF 5
