REMARK  Name = ZINC37621440
REMARK  7 active torsions:
REMARK  status: ('A' for Active; 'I' for Inactive)
REMARK    1  A    between atoms: C_1  and  C_2
REMARK    2  A    between atoms: C_2  and  C_3
REMARK    3  A    between atoms: C_3  and  C_4
REMARK    4  A    between atoms: C_4  and  C_5
REMARK    5  A    between atoms: C_4  and  C_6
REMARK    6  A    between atoms: C_4  and  N_18
REMARK    7  A    between atoms: N_8  and  C_9
REMARK                            x       y       z     vdW  Elec       q    Type
REMARK                         _______ _______ _______ _____ _____    ______ ____
ROOT
ATOM      1  C   UNL     1      -2.379  -3.687   0.534  0.00  0.00    +0.206 C 
ATOM      2  O   UNL     1      -2.930  -3.950   1.582  0.00  0.00    -0.277 OA
ATOM      3  N   UNL     1      -3.049  -3.807  -0.629  0.00  0.00    -0.285 N 
ATOM      4  H   UNL     1      -2.633  -3.528  -1.460  0.00  0.00    +0.155 HD
ENDROOT
BRANCH   3   5
ATOM      5  C   UNL     1      -4.346  -4.334  -0.639  0.00  0.00    +0.062 A 
ATOM      6  C   UNL     1      -5.442  -3.488  -0.518  0.00  0.00    +0.041 A 
ATOM      7  C   UNL     1      -6.721  -4.011  -0.528  0.00  0.00    +0.032 A 
ATOM      8  C   UNL     1      -6.911  -5.376  -0.658  0.00  0.00    +0.020 A 
ATOM      9  C   UNL     1      -5.822  -6.221  -0.777  0.00  0.00    +0.032 A 
ATOM     10  C   UNL     1      -4.540  -5.703  -0.774  0.00  0.00    +0.041 A 
ATOM     11 BR   UNL     1      -3.053  -6.857  -0.946  0.00  0.00    -0.048 Br
ATOM     12 BR   UNL     1      -8.663  -6.088  -0.670  0.00  0.00    -0.050 Br
ATOM     13 BR   UNL     1      -5.184  -1.623  -0.341  0.00  0.00    -0.048 Br
ENDBRANCH   3   5
BRANCH   1  14
ATOM     14  C   UNL     1      -0.944  -3.227   0.533  0.00  0.00    +0.005 C 
ATOM     15  C   UNL     1      -0.024  -4.426   0.295  0.00  0.00    -0.001 C 
BRANCH  14  16
ATOM     16  N   UNL     1      -0.747  -2.239  -0.537  0.00  0.00    +0.387 N 
ATOM     17  H   UNL     1       0.213  -1.931  -0.538  0.00  0.00    -0.089 HD
ATOM     18  H   UNL     1      -0.966  -2.660  -1.428  0.00  0.00    -0.089 HD
ATOM     19  H   UNL     1      -1.354  -1.448  -0.381  0.00  0.00    -0.089 HD
ENDBRANCH  14  16
BRANCH  14  20
ATOM     20  C   UNL     1      -0.612  -2.588   1.883  0.00  0.00    -0.004 C 
BRANCH  20  22
ATOM     21  C   UNL     1       1.136  -1.372   3.189  0.00  0.00    +0.004 C 
ATOM     22  C   UNL     1       0.804  -2.010   1.839  0.00  0.00    -0.004 C 
ENDBRANCH  20  22
ENDBRANCH  14  20
ENDBRANCH   1  14
TORSDOF 5
