REMARK  Name = ZINC42948760
REMARK  11 active torsions:
REMARK  status: ('A' for Active; 'I' for Inactive)
REMARK    1  A    between atoms: C_1  and  C_2
REMARK    2  A    between atoms: C_5  and  C_8
REMARK    3  A    between atoms: C_11  and  S_14
REMARK    4  A    between atoms: N_12  and  N_13
REMARK    5  A    between atoms: S_14  and  C_15
REMARK    6  A    between atoms: C_15  and  C_17
REMARK    7  A    between atoms: C_15  and  C_20
REMARK    8  A    between atoms: C_17  and  C_18
REMARK    9  A    between atoms: C_17  and  C_19
REMARK   10  A    between atoms: N_22  and  C_23
REMARK   11  A    between atoms: C_28  and  C_29
REMARK                            x       y       z     vdW  Elec       q    Type
REMARK                         _______ _______ _______ _____ _____    ______ ____
ROOT
ATOM      1  S   UNL     1       0.532  -7.829   1.485  0.00  0.00    -0.071 S 
ENDROOT
BRANCH   1   5
ATOM      2  C   UNL     1       0.106  -4.246  -0.015  0.00  0.00    +0.182 A 
ATOM      3  N   UNL     1      -0.158  -5.021  -1.041  0.00  0.00    -0.127 NA
ATOM      4  N   UNL     1      -0.056  -6.255  -0.696  0.00  0.00    -0.121 NA
ATOM      5  C   UNL     1       0.279  -6.343   0.572  0.00  0.00    +0.209 A 
ATOM      6  N   UNL     1       0.398  -5.069   1.048  0.00  0.00    -0.224 N 
BRANCH   2  11
ATOM      7  C   UNL     1       0.066   1.508   0.025  0.00  0.00    +0.044 C 
ATOM      8  C   UNL     1       0.077   0.001   0.015  0.00  0.00    -0.050 A 
ATOM      9  C   UNL     1       0.082  -0.679  -1.190  0.00  0.00    +0.004 A 
ATOM     10  C   UNL     1       0.091  -2.058  -1.206  0.00  0.00    +0.012 A 
ATOM     11  C   UNL     1       0.096  -2.768  -0.004  0.00  0.00    +0.021 A 
ATOM     12  C   UNL     1       0.092  -2.075   1.207  0.00  0.00    +0.012 A 
ATOM     13  C   UNL     1       0.088  -0.696   1.210  0.00  0.00    +0.004 A 
ENDBRANCH   2  11
BRANCH   6  14
ATOM     14  N   UNL     1       0.736  -4.691   2.317  0.00  0.00    -0.295 N 
ATOM     15  H   UNL     1      -0.085  -4.598   2.897  0.00  0.00    +0.163 HD
ATOM     16  H   UNL     1       1.395  -5.337   2.724  0.00  0.00    +0.163 HD
ENDBRANCH   6  14
ENDBRANCH   1   5
BRANCH   1  17
ATOM     17  C   UNL     1       0.225  -9.145   0.275  0.00  0.00    +0.143 C 
BRANCH  17  18
ATOM     18  C   UNL     1       0.529 -10.482   0.899  0.00  0.00    +0.231 C 
ATOM     19  O   UNL     1       0.469 -10.617   2.103  0.00  0.00    -0.274 OA
ATOM     20  N   UNL     1       0.867 -11.529   0.120  0.00  0.00    -0.284 N 
ATOM     21  H   UNL     1       0.837 -11.444  -0.846  0.00  0.00    +0.155 HD
BRANCH  20  22
ATOM     22  C   UNL     1       1.260 -12.738   0.705  0.00  0.00    +0.036 A 
ATOM     23  C   UNL     1       1.798 -12.749   1.985  0.00  0.00    +0.023 A 
ATOM     24  C   UNL     1       2.186 -13.944   2.559  0.00  0.00    +0.002 A 
ATOM     25  C   UNL     1       2.040 -15.128   1.860  0.00  0.00    +0.000 A 
ATOM     26  C   UNL     1       1.506 -15.120   0.585  0.00  0.00    +0.005 A 
ATOM     27  C   UNL     1       1.110 -13.929   0.007  0.00  0.00    -0.029 A 
ATOM     28  C   UNL     1       0.521 -13.922  -1.380  0.00  0.00    +0.045 C 
ENDBRANCH  20  22
ENDBRANCH  17  18
BRANCH  17  29
ATOM     29  C   UNL     1      -1.242  -9.107  -0.160  0.00  0.00    +0.005 C 
ATOM     30  C   UNL     1      -1.500 -10.217  -1.181  0.00  0.00    +0.009 C 
ATOM     31  C   UNL     1      -2.141  -9.316   1.060  0.00  0.00    +0.009 C 
ENDBRANCH  17  29
ENDBRANCH   1  17
TORSDOF 7
