REMARK  Name = ZINC11955865
REMARK  5 active torsions:
REMARK  status: ('A' for Active; 'I' for Inactive)
REMARK    1  A    between atoms: C_1  and  C_2
REMARK    2  A    between atoms: C_2  and  C_3
REMARK    3  A    between atoms: C_3  and  C_5
REMARK    4  A    between atoms: C_3  and  C_6
REMARK    5  A    between atoms: N_10  and  C_20
REMARK                            x       y       z     vdW  Elec       q    Type
REMARK                         _______ _______ _______ _____ _____    ______ ____
ROOT
ATOM      1  C   UNL     1       1.446   1.382  -0.424  0.00  0.00    +0.020 C 
ATOM      2  C   UNL     1       2.359   0.697   0.565  0.00  0.00    +0.206 C 
ATOM      3  O   UNL     1       3.551   0.680   0.343  0.00  0.00    -0.277 OA
ATOM      4  N   UNL     1       1.902   0.102   1.672  0.00  0.00    -0.270 N 
ATOM      5  C   UNL     1       0.495   0.084   2.048  0.00  0.00    +0.090 C 
ATOM      6  C   UNL     1       0.266   1.097   3.203  0.00  0.00    +0.187 C 
ATOM      7  S   UNL     1      -1.556   1.343   3.086  0.00  0.00    -0.031 S 
ATOM      8  O   UNL     1      -2.203   0.429   3.960  0.00  0.00    -0.174 OA
ATOM      9  O   UNL     1      -1.843   2.731   3.188  0.00  0.00    -0.174 OA
ATOM     10  C   UNL     1      -1.822   0.805   1.359  0.00  0.00    +0.152 C 
ATOM     11  C   UNL     1      -0.391   0.486   0.863  0.00  0.00    -0.027 C 
ATOM     12  N   UNL     1       0.161   1.695   0.225  0.00  0.00    +0.391 N 
ATOM     13  H   UNL     1      -0.500   2.040  -0.480  0.00  0.00    -0.084 HD
ATOM     14  H   UNL     1       0.309   2.418   0.939  0.00  0.00    -0.084 HD
ENDROOT
BRANCH   4  15
ATOM     15  C   UNL     1       2.823  -0.536   2.513  0.00  0.00    +0.037 A 
ATOM     16  C   UNL     1       3.427   0.170   3.545  0.00  0.00    +0.026 A 
ATOM     17  C   UNL     1       4.330  -0.463   4.377  0.00  0.00    +0.040 A 
ATOM     18  C   UNL     1       4.643  -1.796   4.174  0.00  0.00    +0.124 A 
ATOM     19  C   UNL     1       4.046  -2.500   3.142  0.00  0.00    +0.040 A 
ATOM     20  C   UNL     1       3.138  -1.873   2.311  0.00  0.00    +0.026 A 
ATOM     21  F   UNL     1       5.530  -2.412   4.985  0.00  0.00    -0.205 F 
ENDBRANCH   4  15
BRANCH   1  22
ATOM     22  C   UNL     1       2.100   2.682  -0.896  0.00  0.00    -0.020 C 
ATOM     23  C   UNL     1       2.262   3.632   0.292  0.00  0.00    +0.006 C 
BRANCH  22  25
ATOM     24  C   UNL     1       1.942   4.554  -2.543  0.00  0.00    +0.004 C 
ATOM     25  C   UNL     1       1.217   3.340  -1.959  0.00  0.00    -0.001 C 
ENDBRANCH  22  25
ENDBRANCH   1  22
TORSDOF 3
