REMARK  Name = ZINC53858924
REMARK  6 active torsions:
REMARK  status: ('A' for Active; 'I' for Inactive)
REMARK    1  A    between atoms: C_1  and  C_2
REMARK    2  A    between atoms: C_2  and  N_3
REMARK    3  A    between atoms: N_3  and  C_4
REMARK    4  A    between atoms: C_10  and  C_12
REMARK    5  A    between atoms: C_12  and  N_13
REMARK    6  A    between atoms: C_17  and  C_19
REMARK                            x       y       z     vdW  Elec       q    Type
REMARK                         _______ _______ _______ _____ _____    ______ ____
ROOT
ATOM      1  C   UNL     1      -3.410  -2.032   1.491  0.00  0.00    -0.077 C 
ENDROOT
BRANCH   1   7
ATOM      2  C   UNL     1      -1.301  -2.244   0.169  0.00  0.00    -0.070 C 
ATOM      3  C   UNL     1      -0.661  -2.877  -1.069  0.00  0.00    -0.016 C 
ATOM      4  C   UNL     1      -0.751  -4.401  -0.967  0.00  0.00    -0.002 C 
ATOM      5  C   UNL     1      -2.219  -4.820  -0.882  0.00  0.00    +0.000 C 
ATOM      6  C   UNL     1      -2.860  -4.188   0.355  0.00  0.00    -0.000 C 
ATOM      7  C   UNL     1      -2.770  -2.664   0.254  0.00  0.00    -0.042 C 
BRANCH   2   8
ATOM      8  N   UNL     1      -1.215  -0.781   0.071  0.00  0.00    +0.381 N 
ATOM      9  H   UNL     1      -1.708  -0.363   0.845  0.00  0.00    -0.086 HD
ATOM     10  H   UNL     1      -1.630  -0.477  -0.797  0.00  0.00    -0.086 HD
BRANCH   8  12
ATOM     11  C   UNL     1       0.285   1.154   0.008  0.00  0.00    -0.017 C 
ATOM     12  C   UNL     1       0.195  -0.370   0.110  0.00  0.00    -0.086 C 
ENDBRANCH   8  12
ENDBRANCH   2   8
ENDBRANCH   1   7
BRANCH   1  13
ATOM     13  N   UNL     1      -4.851  -2.317   1.497  0.00  0.00    +0.382 N 
ATOM     14  C   UNL     1      -5.455  -1.802   2.744  0.00  0.00    -0.078 C 
ATOM     15  C   UNL     1      -6.011  -0.406   2.367  0.00  0.00    -0.020 C 
ATOM     16  C   UNL     1      -6.527  -0.653   0.925  0.00  0.00    -0.017 C 
ATOM     17  C   UNL     1      -5.494  -1.646   0.352  0.00  0.00    -0.065 C 
ATOM     18  H   UNL     1      -5.001  -3.313   1.435  0.00  0.00    -0.081 HD
BRANCH  17  19
ATOM     19  C   UNL     1      -6.199  -2.680  -0.529  0.00  0.00    -0.025 C 
ATOM     20  C   UNL     1      -5.181  -3.721  -1.039  0.00  0.00    +0.002 C 
ATOM     21  C   UNL     1      -5.647  -4.031  -2.484  0.00  0.00    +0.000 C 
ATOM     22  C   UNL     1      -6.112  -2.646  -2.998  0.00  0.00    +0.000 C 
ATOM     23  C   UNL     1      -6.790  -1.996  -1.774  0.00  0.00    +0.002 C 
ENDBRANCH  17  19
ENDBRANCH   1  13
TORSDOF 5
