REMARK  Name = ZINC54911423
REMARK  5 active torsions:
REMARK  status: ('A' for Active; 'I' for Inactive)
REMARK    1  A    between atoms: C_1  and  C_2
REMARK    2  A    between atoms: C_2  and  C_23
REMARK    3  A    between atoms: N_9  and  C_10
REMARK    4  A    between atoms: N_9  and  C_11
REMARK    5  A    between atoms: C_19  and  O_22
REMARK                            x       y       z     vdW  Elec       q    Type
REMARK                         _______ _______ _______ _____ _____    ______ ____
ROOT
ATOM      1  C   UNL     1      -0.019   1.526   0.010  0.00  0.00    +0.011 C 
ATOM      2  C   UNL     1       0.002  -0.004   0.002  0.00  0.00    -0.027 C 
ATOM      3  C   UNL     1      -1.435  -0.531  -0.004  0.00  0.00    +0.060 C 
ATOM      4  C   UNL     1      -1.401  -2.042   0.173  0.00  0.00    +0.031 A 
ATOM      5  C   UNL     1      -0.296  -2.655   0.668  0.00  0.00    +0.040 A 
ATOM      6  S   UNL     1      -0.767  -4.362   0.668  0.00  0.00    -0.056 S 
ATOM      7  C   UNL     1      -2.320  -4.161   0.045  0.00  0.00    +0.139 A 
ATOM      8  N   UNL     1      -2.407  -2.861  -0.129  0.00  0.00    -0.340 N 
ATOM      9  N   UNL     1      -3.274  -5.131  -0.219  0.00  0.00    -0.309 N 
ATOM     10  C   UNL     1      -4.578  -4.747  -0.766  0.00  0.00    +0.131 C 
ATOM     11  C   UNL     1       0.983  -2.020   1.097  0.00  0.00    +0.153 C 
ATOM     12  C   UNL     1       0.743  -0.509   1.243  0.00  0.00    +0.043 C 
ATOM     13  C   UNL     1       0.725  -0.495  -1.254  0.00  0.00    +0.011 C 
ATOM     14  H   UNL     1      -3.227  -2.487  -0.487  0.00  0.00    +0.167 HD
ENDROOT
BRANCH   9  15
ATOM     15  C   UNL     1      -2.979  -6.541   0.048  0.00  0.00    +0.097 C 
ATOM     16  C   UNL     1      -3.116  -7.356  -1.250  0.00  0.00    +0.046 C 
ATOM     17  C   UNL     1      -3.124  -8.869  -0.924  0.00  0.00    +0.168 C 
ATOM     18  S   UNL     1      -3.820  -8.913   0.777  0.00  0.00    -0.029 S 
ATOM     19  O   UNL     1      -5.113  -9.501   0.733  0.00  0.00    -0.174 OA
ATOM     20  O   UNL     1      -2.842  -9.440   1.663  0.00  0.00    -0.174 OA
ATOM     21  C   UNL     1      -3.995  -7.104   1.082  0.00  0.00    +0.188 C 
ENDBRANCH   9  15
BRANCH  11  22
ATOM     22  O   UNL     1       1.395  -2.567   2.352  0.00  0.00    -0.387 OA
ATOM     23  H   UNL     1       1.545  -3.522   2.334  0.00  0.00    +0.210 HD
ENDBRANCH  11  22
TORSDOF 2
