REMARK  Name = ZINC37107956
REMARK  10 active torsions:
REMARK  status: ('A' for Active; 'I' for Inactive)
REMARK    1  A    between atoms: C_1  and  C_2
REMARK    2  A    between atoms: C_2  and  O_3
REMARK    3  A    between atoms: O_3  and  C_4
REMARK    4  A    between atoms: C_7  and  C_10
REMARK    5  A    between atoms: C_10  and  C_12
REMARK    6  A    between atoms: C_10  and  N_13
REMARK    7  A    between atoms: N_13  and  C_14
REMARK    8  A    between atoms: C_17  and  C_25
REMARK    9  A    between atoms: N_19  and  C_24
REMARK   10  A    between atoms: C_21  and  C_23
REMARK                            x       y       z     vdW  Elec       q    Type
REMARK                         _______ _______ _______ _____ _____    ______ ____
ROOT
ATOM      1  N   UNL     1      -3.116  -6.449  -0.898  0.00  0.00    +0.385 N 
ATOM      2  H   UNL     1      -3.977  -6.080  -0.521  0.00  0.00    -0.085 HD
ATOM      3  H   UNL     1      -2.955  -6.059  -1.814  0.00  0.00    -0.085 HD
ENDROOT
BRANCH   1   4
ATOM      4  C   UNL     1      -3.213  -7.912  -0.998  0.00  0.00    -0.071 C 
ATOM      5  C   UNL     1      -1.961  -8.462  -1.687  0.00  0.00    -0.031 C 
ATOM      6  C   UNL     1      -2.104  -9.976  -1.859  0.00  0.00    -0.074 C 
ATOM      7  N   UNL     1      -3.285 -10.269  -2.680  0.00  0.00    +0.380 N 
ATOM      8  C   UNL     1      -4.497  -9.808  -1.992  0.00  0.00    -0.077 C 
ATOM      9  C   UNL     1      -4.447  -8.288  -1.823  0.00  0.00    -0.045 C 
ATOM     10  C   UNL     1      -4.362  -7.625  -3.200  0.00  0.00    +0.004 C 
ATOM     11  C   UNL     1      -3.373 -11.717  -2.908  0.00  0.00    -0.096 C 
ATOM     12  C   UNL     1      -0.855 -10.530  -2.548  0.00  0.00    -0.013 C 
ATOM     13  H   UNL     1      -3.202  -9.796  -3.567  0.00  0.00    -0.082 HD
ENDBRANCH   1   4
BRANCH   1  14
ATOM     14  C   UNL     1      -2.001  -6.092  -0.011  0.00  0.00    -0.044 C 
ATOM     15  C   UNL     1      -2.303  -6.576   1.409  0.00  0.00    -0.009 C 
BRANCH  14  19
ATOM     16  C   UNL     1      -1.498  -1.848   0.006  0.00  0.00    +0.121 A 
ATOM     17  C   UNL     1      -0.388  -2.679  -0.003  0.00  0.00    +0.046 A 
ATOM     18  C   UNL     1      -0.553  -4.051  -0.008  0.00  0.00    +0.005 A 
ATOM     19  C   UNL     1      -1.823  -4.596  -0.005  0.00  0.00    -0.061 A 
ATOM     20  C   UNL     1      -2.932  -3.769   0.004  0.00  0.00    +0.005 A 
ATOM     21  C   UNL     1      -2.772  -2.397   0.016  0.00  0.00    +0.046 A 
BRANCH  16  22
ATOM     22  O   UNL     1      -1.339  -0.499   0.012  0.00  0.00    -0.492 OA
BRANCH  22  24
ATOM     23  C   UNL     1      -0.019   1.526   0.010  0.00  0.00    +0.048 C 
ATOM     24  C   UNL     1       0.002  -0.004   0.002  0.00  0.00    +0.225 C 
ENDBRANCH  22  24
ENDBRANCH  16  22
ENDBRANCH  14  19
ENDBRANCH   1  14
TORSDOF 5
