REMARK  Name = ZINC05882718
REMARK  8 active torsions:
REMARK  status: ('A' for Active; 'I' for Inactive)
REMARK    1  A    between atoms: C_1  and  C_2
REMARK    2  A    between atoms: C_2  and  N_3
REMARK    3  A    between atoms: C_5  and  C_12
REMARK    4  A    between atoms: C_13  and  C_14
REMARK    5  A    between atoms: C_14  and  C_16
REMARK    6  A    between atoms: C_14  and  C_17
REMARK    7  A    between atoms: N_19  and  C_26
REMARK    8  A    between atoms: C_26  and  C_27
REMARK                            x       y       z     vdW  Elec       q    Type
REMARK                         _______ _______ _______ _____ _____    ______ ____
ROOT
ATOM      1  C   UNL     1      -3.570   4.849  -2.091  0.00  0.00    +0.011 C 
ATOM      2  C   UNL     1      -2.631   5.080  -1.183  0.00  0.00    -0.018 C 
ENDROOT
BRANCH   1   5
ATOM      3  N   UNL     1      -6.284   2.824  -0.548  0.00  0.00    -0.300 N 
ATOM      4  C   UNL     1      -5.356   3.808  -0.733  0.00  0.00    +0.103 A 
ATOM      5  C   UNL     1      -4.580   3.797  -1.857  0.00  0.00    +0.055 A 
ATOM      6  C   UNL     1      -4.771   2.707  -2.825  0.00  0.00    +0.261 A 
ATOM      7  O   UNL     1      -4.100   2.651  -3.839  0.00  0.00    -0.267 OA
ATOM      8  N   UNL     1      -5.707   1.769  -2.566  0.00  0.00    -0.274 N 
ATOM      9  H   UNL     1      -5.852   1.019  -3.212  0.00  0.00    +0.173 HD
ATOM     10  C   UNL     1      -6.444   1.836  -1.444  0.00  0.00    +0.329 A 
ATOM     11  O   UNL     1      -7.279   0.978  -1.233  0.00  0.00    -0.246 OA
BRANCH   3  13
ATOM     12  C   UNL     1      -6.421   2.058   1.770  0.00  0.00    +0.027 C 
ATOM     13  C   UNL     1      -7.118   2.842   0.656  0.00  0.00    +0.123 C 
ENDBRANCH   3  13
ENDBRANCH   1   5
BRANCH   2  14
ATOM     14  C   UNL     1      -2.498   4.172   0.012  0.00  0.00    +0.045 C 
ATOM     15  C   UNL     1      -2.734   4.976   1.292  0.00  0.00    +0.017 C 
BRANCH  14  16
ATOM     16  C   UNL     1      -1.113   3.578   0.040  0.00  0.00    +0.040 A 
ATOM     17  C   UNL     1      -0.941   2.240  -0.022  0.00  0.00    +0.100 A 
ATOM     18  N   UNL     1       0.323   1.717   0.010  0.00  0.00    -0.300 N 
ATOM     19  C   UNL     1       1.397   2.524   0.092  0.00  0.00    +0.329 A 
ATOM     20  O   UNL     1       2.511   2.039   0.115  0.00  0.00    -0.246 OA
ATOM     21  N   UNL     1       1.254   3.862   0.149  0.00  0.00    -0.275 N 
ATOM     22  H   UNL     1       2.063   4.447   0.210  0.00  0.00    +0.173 HD
ATOM     23  C   UNL     1       0.025   4.416   0.126  0.00  0.00    +0.258 A 
ATOM     24  O   UNL     1      -0.105   5.625   0.178  0.00  0.00    -0.267 OA
BRANCH  18  25
ATOM     25  C   UNL     1       0.510   0.266  -0.052  0.00  0.00    +0.123 C 
ATOM     26  C   UNL     1       0.516  -0.308   1.366  0.00  0.00    +0.027 C 
ENDBRANCH  18  25
ENDBRANCH  14  16
ENDBRANCH   2  14
TORSDOF 5
