REMARK  Name = ZINC64002766
REMARK  4 active torsions:
REMARK  status: ('A' for Active; 'I' for Inactive)
REMARK    1  A    between atoms: C_1  and  C_2
REMARK    2  A    between atoms: C_3  and  C_13
REMARK    3  A    between atoms: N_15  and  N_16
REMARK    4  A    between atoms: C_17  and  C_19
REMARK                            x       y       z     vdW  Elec       q    Type
REMARK                         _______ _______ _______ _____ _____    ______ ____
ROOT
ATOM      1  C   UNL     1      -0.008  -0.258  -2.565  0.00  0.00    +0.269 C 
ATOM      2  O   UNL     1      -0.026   0.937  -2.802  0.00  0.00    -0.268 OA
ATOM      3  N   UNL     1      -0.001  -1.145  -3.580  0.00  0.00    -0.230 N 
ATOM      4  H   UNL     1       0.014  -2.097  -3.391  0.00  0.00    +0.173 HD
ENDROOT
BRANCH   1   7
ATOM      5  C   UNL     1      -0.018   1.503   0.010  0.00  0.00    +0.067 C 
ATOM      6  C   UNL     1       0.002  -0.004   0.002  0.00  0.00    +0.060 A 
ATOM      7  C   UNL     1       0.006  -0.729  -1.181  0.00  0.00    +0.099 A 
ATOM      8  S   UNL     1       0.032  -2.397  -0.545  0.00  0.00    -0.047 S 
ATOM      9  C   UNL     1       0.035  -2.022   1.096  0.00  0.00    +0.162 A 
ATOM     10  N   UNL     1       0.022  -0.700   1.111  0.00  0.00    -0.229 NA
ATOM     11  N   UNL     1       0.052  -2.886   2.169  0.00  0.00    -0.305 N 
ATOM     12  C   UNL     1       0.045  -2.380   3.550  0.00  0.00    +0.135 C 
ATOM     13  C   UNL     1      -1.065  -3.101   4.324  0.00  0.00    +0.179 C 
ATOM     14  O   UNL     1      -0.907  -4.513   4.167  0.00  0.00    -0.377 OA
ATOM     15  C   UNL     1      -1.034  -4.969   2.818  0.00  0.00    +0.179 C 
ATOM     16  C   UNL     1       0.071  -4.344   1.967  0.00  0.00    +0.135 C 
ENDBRANCH   1   7
BRANCH   3  17
ATOM     17  N   UNL     1      -0.014  -0.694  -4.906  0.00  0.00    -0.229 N 
ATOM     18  C   UNL     1      -0.007  -1.581  -5.920  0.00  0.00    +0.275 C 
ATOM     19  O   UNL     1       0.011  -2.774  -5.684  0.00  0.00    -0.267 OA
ATOM     20  H   UNL     1      -0.028   0.258  -5.094  0.00  0.00    +0.173 HD
BRANCH  18  21
ATOM     21  C   UNL     1      -0.021  -1.106  -7.314  0.00  0.00    +0.108 C 
ATOM     22  N   UNL     1      -0.035   0.130  -7.719  0.00  0.00    -0.255 NA
ATOM     23  C   UNL     1      -0.045   0.256  -9.050  0.00  0.00    +0.107 C 
ATOM     24  C   UNL     1      -0.039  -0.923  -9.677  0.00  0.00    -0.001 C 
ATOM     25  C   UNL     1      -0.015  -1.960  -8.568  0.00  0.00    +0.089 C 
ENDBRANCH  18  21
ENDBRANCH   3  17
TORSDOF 3
