REMARK  Name = ZINC43461266
REMARK  3 active torsions:
REMARK  status: ('A' for Active; 'I' for Inactive)
REMARK    1  A    between atoms: C_5  and  C_7
REMARK    2  A    between atoms: C_7  and  N_8
REMARK    3  A    between atoms: C_16  and  N_17
REMARK                            x       y       z     vdW  Elec       q    Type
REMARK                         _______ _______ _______ _____ _____    ______ ____
ROOT
ATOM      1  N   UNL     1       1.369  -2.680   1.350  0.00  0.00    -0.310 N 
ATOM      2  C   UNL     1       2.535  -3.022   1.969  0.00  0.00    +0.202 A 
ATOM      3  N   UNL     1       2.293  -3.420   3.184  0.00  0.00    -0.231 NA
ATOM      4  C   UNL     1       0.960  -3.360   3.421  0.00  0.00    +0.147 A 
ATOM      5  C   UNL     1       0.352  -2.879   2.249  0.00  0.00    +0.166 A 
ATOM      6  N   UNL     1      -0.967  -2.721   2.224  0.00  0.00    -0.216 NA
ATOM      7  C   UNL     1      -1.697  -3.008   3.281  0.00  0.00    +0.225 A 
ATOM      8  N   UNL     1      -1.171  -3.458   4.405  0.00  0.00    -0.219 NA
ATOM      9  C   UNL     1       0.138  -3.656   4.522  0.00  0.00    +0.147 A 
ENDROOT
BRANCH   9  10
ATOM     10  N   UNL     1       0.680  -4.128   5.704  0.00  0.00    -0.341 N 
ATOM     11  H   UNL     1       1.639  -4.257   5.780  0.00  0.00    +0.144 HD
ATOM     12  H   UNL     1       0.102  -4.329   6.457  0.00  0.00    +0.144 HD
ENDBRANCH   9  10
BRANCH   1  13
ATOM     13  C   UNL     1       1.229  -2.186  -0.022  0.00  0.00    +0.161 C 
BRANCH  13  18
ATOM     14  C   UNL     1      -0.017   1.378   0.010  0.00  0.00    +0.000 A 
ATOM     15  C   UNL     1       1.171   2.086   0.002  0.00  0.00    +0.001 A 
ATOM     16  C   UNL     1       2.377   1.412  -0.013  0.00  0.00    +0.015 A 
ATOM     17  C   UNL     1       2.397   0.029  -0.021  0.00  0.00    +0.023 A 
ATOM     18  C   UNL     1       1.208  -0.679  -0.013  0.00  0.00    -0.014 A 
ATOM     19  C   UNL     1       0.002  -0.004   0.002  0.00  0.00    +0.006 A 
ATOM     20 BR   UNL     1       4.047  -0.894  -0.042  0.00  0.00    -0.050 Br
ENDBRANCH  13  18
ENDBRANCH   1  13
TORSDOF 3
