REMARK  Name = ZINC67214463
REMARK  8 active torsions:
REMARK  status: ('A' for Active; 'I' for Inactive)
REMARK    1  A    between atoms: C_1  and  C_2
REMARK    2  A    between atoms: C_7  and  C_11
REMARK    3  A    between atoms: C_11  and  N_12
REMARK    4  A    between atoms: C_13  and  C_15
REMARK    5  A    between atoms: C_15  and  C_16
REMARK    6  A    between atoms: C_16  and  C_17
REMARK    7  A    between atoms: C_17  and  C_18
REMARK    8  A    between atoms: C_18  and  C_19
REMARK                            x       y       z     vdW  Elec       q    Type
REMARK                         _______ _______ _______ _____ _____    ______ ____
ROOT
ATOM      1  N   UNL     1       1.469  -5.880   2.655  0.00  0.00    -0.310 N 
ATOM      2  C   UNL     1       1.732  -7.014   3.335  0.00  0.00    +0.213 C 
ATOM      3  O   UNL     1       0.825  -7.749   3.664  0.00  0.00    -0.276 OA
ATOM      4  H   UNL     1       2.195  -5.293   2.393  0.00  0.00    +0.149 HD
ENDROOT
BRANCH   1   5
ATOM      5  C   UNL     1       0.087  -5.536   2.312  0.00  0.00    +0.159 C 
BRANCH   5  12
ATOM      6  C   UNL     1      -0.018   1.503   0.010  0.00  0.00    +0.044 C 
ATOM      7  C   UNL     1       0.002  -0.004   0.002  0.00  0.00    -0.046 A 
ATOM      8  C   UNL     1       0.006  -0.703  -1.216  0.00  0.00    +0.021 A 
ATOM      9  C   UNL     1       0.025  -2.052  -1.227  0.00  0.00    +0.093 A 
ATOM     10  N   UNL     1       0.040  -2.757  -0.058  0.00  0.00    -0.308 N 
ATOM     11  C   UNL     1       0.059  -4.097   0.214  0.00  0.00    +0.115 A 
ATOM     12  C   UNL     1       0.067  -4.231   1.559  0.00  0.00    +0.051 A 
ATOM     13  N   UNL     1       0.053  -3.014   2.108  0.00  0.00    -0.342 N 
ATOM     14  C   UNL     1       0.036  -2.103   1.146  0.00  0.00    +0.116 A 
ATOM     15  C   UNL     1       0.023  -0.694   1.174  0.00  0.00    +0.048 A 
ATOM     16  H   UNL     1       0.055  -2.827   3.060  0.00  0.00    +0.167 HD
ENDBRANCH   5  12
ENDBRANCH   1   5
BRANCH   2  17
ATOM     17  C   UNL     1       3.154  -7.368   3.688  0.00  0.00    +0.096 C 
BRANCH  17  18
ATOM     18  C   UNL     1       3.174  -8.693   4.453  0.00  0.00    +0.009 C 
BRANCH  18  19
ATOM     19  C   UNL     1       4.618  -9.053   4.811  0.00  0.00    +0.002 C 
BRANCH  19  20
ATOM     20  C   UNL     1       4.638 -10.378   5.576  0.00  0.00    +0.016 C 
BRANCH  20  21
ATOM     21  C   UNL     1       6.082 -10.738   5.934  0.00  0.00    +0.069 C 
ATOM     22  C   UNL     1       6.144 -12.023   6.719  0.00  0.00    +0.108 C 
ATOM     23  C   UNL     1       6.083 -13.219   5.719  0.00  0.00    +0.105 C 
ATOM     24  C   UNL     1       7.281 -13.033   4.790  0.00  0.00    +0.093 C 
ATOM     25  S   UNL     1       7.048 -11.210   4.425  0.00  0.00    -0.154 S 
ATOM     26  N   UNL     1       6.024 -14.311   6.665  0.00  0.00    -0.294 N 
ATOM     27  C   UNL     1       5.335 -13.824   7.740  0.00  0.00    +0.300 C 
ATOM     28  O   UNL     1       4.878 -14.526   8.621  0.00  0.00    -0.253 OA
ATOM     29  N   UNL     1       5.205 -12.470   7.705  0.00  0.00    -0.294 N 
ATOM     30  H   UNL     1       6.395 -15.200   6.559  0.00  0.00    +0.151 HD
ATOM     31  H   UNL     1       4.607 -11.925   8.240  0.00  0.00    +0.151 HD
ENDBRANCH  20  21
ENDBRANCH  19  20
ENDBRANCH  18  19
ENDBRANCH  17  18
ENDBRANCH   2  17
TORSDOF 7
