REMARK  Name = ZINC35382675
REMARK  4 active torsions:
REMARK  status: ('A' for Active; 'I' for Inactive)
REMARK    1  A    between atoms: C_3  and  N_20
REMARK    2  A    between atoms: C_5  and  C_6
REMARK    3  A    between atoms: C_6  and  C_8
REMARK    4  A    between atoms: C_6  and  N_19
REMARK                            x       y       z     vdW  Elec       q    Type
REMARK                         _______ _______ _______ _____ _____    ______ ____
ROOT
ATOM      1  C   UNL     1      -1.208  -0.902   0.009  0.00  0.00    +0.025 C 
ENDROOT
BRANCH   1   2
ATOM      2  C   UNL     1      -1.451  -1.407   1.408  0.00  0.00    -0.036 A 
ATOM      3  C   UNL     1      -0.944  -2.633   1.801  0.00  0.00    +0.009 A 
ATOM      4  C   UNL     1      -1.168  -3.091   3.079  0.00  0.00    -0.017 A 
ATOM      5  C   UNL     1      -1.901  -2.337   3.988  0.00  0.00    +0.038 A 
ATOM      6  C   UNL     1      -2.409  -1.104   3.586  0.00  0.00    +0.043 A 
ATOM      7  C   UNL     1      -2.178  -0.643   2.304  0.00  0.00    +0.045 A 
ATOM      8 CL   UNL     1      -2.809   0.897   1.814  0.00  0.00    -0.083 Cl
ATOM      9  N   UNL     1      -1.991  -3.006   5.209  0.00  0.00    -0.285 N 
ATOM     10  C   UNL     1      -1.354  -4.189   5.188  0.00  0.00    +0.222 C 
ATOM     11  O   UNL     1      -1.270  -4.978   6.106  0.00  0.00    -0.275 OA
ATOM     12  C   UNL     1      -0.761  -4.353   3.805  0.00  0.00    +0.133 C 
ATOM     13  H   UNL     1      -2.459  -2.657   5.983  0.00  0.00    +0.155 HD
ENDBRANCH   1   2
BRANCH   1  18
ATOM     14  C   UNL     1      -0.016   1.341   0.009  0.00  0.00    +0.046 A 
ATOM     15  C   UNL     1       1.331   1.769  -0.001  0.00  0.00    +0.075 A 
ATOM     16  C   UNL     1       2.092   0.660  -0.014  0.00  0.00    +0.280 A 
ATOM     17  O   UNL     1       1.282  -0.411  -0.012  0.00  0.00    -0.440 OA
ATOM     18  C   UNL     1       0.002  -0.004   0.002  0.00  0.00    +0.098 A 
BRANCH  16  19
ATOM     19  N   UNL     1       3.572   0.625  -0.029  0.00  0.00    +0.093 N 
ATOM     20  O   UNL     1       4.201   1.658  -0.029  0.00  0.00    -0.123 OA
ATOM     21  O   UNL     1       4.152  -0.435  -0.040  0.00  0.00    -0.123 OA
ENDBRANCH  16  19
ENDBRANCH   1  18
BRANCH   1  22
ATOM     22  N   UNL     1      -0.978  -2.041  -0.890  0.00  0.00    +0.387 N 
ATOM     23  H   UNL     1      -0.815  -1.703  -1.827  0.00  0.00    -0.089 HD
ATOM     24  H   UNL     1      -0.172  -2.560  -0.575  0.00  0.00    -0.089 HD
ATOM     25  H   UNL     1      -1.788  -2.642  -0.885  0.00  0.00    -0.089 HD
ENDBRANCH   1  22
TORSDOF 4
