REMARK  Name = ZINC66363738
REMARK  4 active torsions:
REMARK  status: ('A' for Active; 'I' for Inactive)
REMARK    1  A    between atoms: C_1  and  O_2
REMARK    2  A    between atoms: O_2  and  C_3
REMARK    3  A    between atoms: C_8  and  N_11
REMARK    4  A    between atoms: N_14  and  C_15
REMARK                            x       y       z     vdW  Elec       q    Type
REMARK                         _______ _______ _______ _____ _____    ______ ____
ROOT
ATOM      1  N   UNL     1       2.690  -5.510   0.135  0.00  0.00    -0.296 N 
ATOM      2  C   UNL     1       2.961  -6.636   0.824  0.00  0.00    +0.300 C 
ATOM      3  O   UNL     1       2.388  -6.860   1.873  0.00  0.00    -0.253 OA
ATOM      4  N   UNL     1       3.868  -7.514   0.351  0.00  0.00    -0.298 N 
ATOM      5  H   UNL     1       3.147  -5.332  -0.702  0.00  0.00    +0.151 HD
ATOM      6  H   UNL     1       4.326  -7.335  -0.485  0.00  0.00    +0.150 HD
ENDROOT
BRANCH   4   7
ATOM      7  C   UNL     1       4.163  -8.737   1.101  0.00  0.00    +0.059 C 
ATOM      8  C   UNL     1       5.294  -8.484   2.131  0.00  0.00    +0.002 C 
ATOM      9  C   UNL     1       6.466  -9.390   1.668  0.00  0.00    -0.077 C 
ATOM     10  N   UNL     1       6.208  -9.578   0.232  0.00  0.00    +0.383 N 
ATOM     11  C   UNL     1       4.736  -9.811   0.171  0.00  0.00    -0.048 C 
ATOM     12  C   UNL     1       4.305  -9.675  -1.282  0.00  0.00    -0.014 C 
ATOM     13  C   UNL     1       4.999 -10.794  -2.076  0.00  0.00    -0.003 C 
ATOM     14  C   UNL     1       6.513 -10.736  -1.875  0.00  0.00    -0.019 C 
ATOM     15  C   UNL     1       6.870 -10.725  -0.375  0.00  0.00    -0.078 C 
ATOM     16  H   UNL     1       6.447  -8.737  -0.272  0.00  0.00    -0.081 HD
ENDBRANCH   4   7
BRANCH   1  22
ATOM     17  C   UNL     1       0.620  -0.613   1.032  0.00  0.00    +0.403 C 
ATOM     18  O   UNL     1       1.129   0.051   1.913  0.00  0.00    -0.226 OA
ATOM     19  N   UNL     1       0.674  -1.958   1.085  0.00  0.00    -0.267 N 
ATOM     20  C   UNL     1       0.069  -2.775   0.024  0.00  0.00    +0.113 C 
ATOM     21  C   UNL     1       1.124  -3.747  -0.513  0.00  0.00    +0.041 C 
ATOM     22  C   UNL     1       1.704  -4.556   0.649  0.00  0.00    +0.077 C 
ATOM     23  C   UNL     1       2.381  -3.611   1.644  0.00  0.00    +0.041 C 
ATOM     24  C   UNL     1       1.345  -2.637   2.203  0.00  0.00    +0.113 C 
BRANCH  17  26
ATOM     25  C   UNL     1      -0.017   1.425   0.010  0.00  0.00    +0.282 C 
ATOM     26  O   UNL     1       0.002  -0.004   0.002  0.00  0.00    -0.454 OA
ENDBRANCH  17  26
ENDBRANCH   1  22
TORSDOF 3
