REMARK  Name = ZINC62732879
REMARK  11 active torsions:
REMARK  status: ('A' for Active; 'I' for Inactive)
REMARK    1  A    between atoms: C_1  and  C_2
REMARK    2  A    between atoms: C_2  and  C_4
REMARK    3  A    between atoms: C_2  and  C_20
REMARK    4  A    between atoms: C_4  and  O_5
REMARK    5  A    between atoms: O_5  and  C_6
REMARK    6  A    between atoms: C_7  and  C_14
REMARK    7  A    between atoms: C_14  and  N_15
REMARK    8  A    between atoms: N_15  and  C_16
REMARK    9  A    between atoms: C_16  and  C_17
REMARK   10  A    between atoms: C_16  and  C_18
REMARK   11  A    between atoms: C_16  and  C_19
REMARK                            x       y       z     vdW  Elec       q    Type
REMARK                         _______ _______ _______ _____ _____    ______ ____
ROOT
ATOM      1  C   UNL     1      -2.805  -1.170   0.200  0.00  0.00    +0.140 A 
ATOM      2  C   UNL     1      -3.793  -0.197   0.193  0.00  0.00    -0.020 A 
ATOM      3  C   UNL     1      -5.097  -0.535   0.498  0.00  0.00    +0.025 A 
ATOM      4  C   UNL     1      -5.419  -1.844   0.810  0.00  0.00    +0.043 A 
ATOM      5  C   UNL     1      -4.436  -2.817   0.818  0.00  0.00    +0.043 A 
ATOM      6  C   UNL     1      -3.130  -2.484   0.508  0.00  0.00    +0.084 A 
ATOM      7 CL   UNL     1      -1.897  -3.706   0.510  0.00  0.00    -0.080 Cl
ATOM      8 CL   UNL     1      -7.059  -2.266   1.193  0.00  0.00    -0.083 Cl
ENDROOT
BRANCH   1   9
ATOM      9  O   UNL     1      -1.521  -0.839  -0.100  0.00  0.00    -0.490 OA
BRANCH   9  10
ATOM     10  C   UNL     1      -0.648  -0.567   0.999  0.00  0.00    +0.241 C 
BRANCH  10  12
ATOM     11  C   UNL     1       1.369  -1.274  -0.295  0.00  0.00    +0.020 C 
ATOM     12  C   UNL     1       0.715  -0.119   0.468  0.00  0.00    +0.109 C 
BRANCH  12  13
ATOM     13  C   UNL     1       1.597   0.282   1.622  0.00  0.00    +0.217 C 
ATOM     14  O   UNL     1       1.176   0.218   2.757  0.00  0.00    -0.276 OA
ATOM     15  N   UNL     1       2.853   0.714   1.392  0.00  0.00    -0.329 N 
ATOM     16  H   UNL     1       3.189   0.766   0.484  0.00  0.00    +0.145 HD
ATOM     17  H   UNL     1       3.420   0.973   2.135  0.00  0.00    +0.145 HD
ENDBRANCH  12  13
ENDBRANCH  10  12
ENDBRANCH   9  10
ENDBRANCH   1   9
BRANCH   2  18
ATOM     18  C   UNL     1      -3.444   1.230  -0.146  0.00  0.00    -0.042 C 
BRANCH  18  19
ATOM     19  N   UNL     1      -3.246   1.353  -1.597  0.00  0.00    +0.385 N 
ATOM     20  H   UNL     1      -2.525   0.713  -1.893  0.00  0.00    -0.085 HD
ATOM     21  H   UNL     1      -4.107   1.134  -2.074  0.00  0.00    -0.085 HD
BRANCH  19  22
ATOM     22  C   UNL     1      -2.843   2.728  -1.920  0.00  0.00    -0.077 C 
ATOM     23  C   UNL     1      -1.547   3.068  -1.181  0.00  0.00    -0.011 C 
ATOM     24  C   UNL     1      -2.617   2.852  -3.428  0.00  0.00    -0.011 C 
ATOM     25  C   UNL     1      -3.945   3.698  -1.488  0.00  0.00    -0.011 C 
ENDBRANCH  19  22
ENDBRANCH  18  19
ENDBRANCH   2  18
TORSDOF 7
