REMARK  Name = ZINC66836546
REMARK  11 active torsions:
REMARK  status: ('A' for Active; 'I' for Inactive)
REMARK    1  A    between atoms: C_1  and  C_2
REMARK    2  A    between atoms: C_2  and  C_3
REMARK    3  A    between atoms: C_3  and  C_4
REMARK    4  A    between atoms: C_4  and  N_5
REMARK    5  A    between atoms: C_9  and  C_11
REMARK    6  A    between atoms: C_11  and  C_13
REMARK    7  A    between atoms: C_11  and  N_14
REMARK    8  A    between atoms: N_14  and  C_15
REMARK    9  A    between atoms: N_14  and  C_16
REMARK   10  A    between atoms: C_16  and  C_17
REMARK   11  A    between atoms: N_19  and  C_20
REMARK                            x       y       z     vdW  Elec       q    Type
REMARK                         _______ _______ _______ _____ _____    ______ ____
ROOT
ATOM      1  N   UNL     1       3.174  -7.513  -5.199  0.00  0.00    +0.391 N 
ATOM      2  C   UNL     1       3.879  -7.932  -3.981  0.00  0.00    -0.094 C 
ATOM      3  H   UNL     1       2.242  -7.899  -5.199  0.00  0.00    -0.080 HD
ENDROOT
BRANCH   1   4
ATOM      4  C   UNL     1       3.097  -6.046  -5.240  0.00  0.00    +0.017 C 
ATOM      5  C   UNL     1       2.490  -5.604  -6.573  0.00  0.00    -0.004 C 
BRANCH   4  10
ATOM      6  N   UNL     1       1.453  -2.508  -2.431  0.00  0.00    -0.299 N 
ATOM      7  C   UNL     1       1.455  -3.814  -2.763  0.00  0.00    +0.306 C 
ATOM      8  O   UNL     1       0.758  -4.598  -2.148  0.00  0.00    -0.252 OA
ATOM      9  N   UNL     1       2.229  -4.251  -3.775  0.00  0.00    -0.242 N 
ATOM     10  C   UNL     1       2.231  -5.558  -4.107  0.00  0.00    +0.207 C 
ATOM     11  O   UNL     1       1.536  -6.340  -3.494  0.00  0.00    -0.277 OA
ATOM     12  H   UNL     1       2.009  -1.882  -2.921  0.00  0.00    +0.150 HD
ATOM     13  H   UNL     1       2.785  -3.626  -4.266  0.00  0.00    +0.159 HD
BRANCH   6  14
ATOM     14  C   UNL     1       0.611  -2.033  -1.330  0.00  0.00    +0.106 C 
BRANCH  14  15
ATOM     15  C   UNL     1       0.794  -0.523  -1.162  0.00  0.00    +0.018 C 
BRANCH  15  17
ATOM     16  C   UNL     1       0.099   1.482   0.155  0.00  0.00    +0.004 C 
ATOM     17  C   UNL     1      -0.085  -0.028  -0.012  0.00  0.00    -0.002 C 
ENDBRANCH  15  17
ENDBRANCH  14  15
ENDBRANCH   6  14
ENDBRANCH   4  10
ENDBRANCH   1   4
BRANCH   1  18
ATOM     18  C   UNL     1       3.905  -7.997  -6.378  0.00  0.00    +0.020 C 
BRANCH  18  19
ATOM     19  C   UNL     1       3.879  -9.503  -6.402  0.00  0.00    +0.201 C 
ATOM     20  O   UNL     1       3.308 -10.114  -5.522  0.00  0.00    -0.278 OA
ATOM     21  N   UNL     1       4.490 -10.173  -7.399  0.00  0.00    -0.287 N 
ATOM     22  H   UNL     1       4.883  -9.686  -8.140  0.00  0.00    +0.155 HD
BRANCH  21  23
ATOM     23  C   UNL     1       4.557 -11.570  -7.366  0.00  0.00    +0.039 A 
ATOM     24  C   UNL     1       5.682 -12.223  -7.851  0.00  0.00    +0.061 A 
ATOM     25  C   UNL     1       5.746 -13.605  -7.817  0.00  0.00    +0.128 A 
ATOM     26  C   UNL     1       4.690 -14.336  -7.300  0.00  0.00    +0.076 A 
ATOM     27  C   UNL     1       3.567 -13.686  -6.816  0.00  0.00    +0.128 A 
ATOM     28  C   UNL     1       3.501 -12.304  -6.842  0.00  0.00    +0.061 A 
ATOM     29  F   UNL     1       2.538 -14.401  -6.312  0.00  0.00    -0.205 F 
ATOM     30  F   UNL     1       6.840 -14.242  -8.290  0.00  0.00    -0.205 F 
ENDBRANCH  21  23
ENDBRANCH  18  19
ENDBRANCH   1  18
TORSDOF 8
