REMARK  Name = ZINC39459739
REMARK  4 active torsions:
REMARK  status: ('A' for Active; 'I' for Inactive)
REMARK    1  A    between atoms: C_4  and  O_24
REMARK    2  A    between atoms: C_5  and  C_7
REMARK    3  A    between atoms: C_12  and  C_17
REMARK    4  A    between atoms: C_22  and  O_23
REMARK                            x       y       z     vdW  Elec       q    Type
REMARK                         _______ _______ _______ _____ _____    ______ ____
ROOT
ATOM      1  C   UNL     1       0.966  -2.178  -0.086  0.00  0.00    -0.006 A 
ATOM      2  C   UNL     1       0.802  -2.896   1.105  0.00  0.00    +0.053 A 
ATOM      3  C   UNL     1       0.917  -4.273   1.092  0.00  0.00    +0.119 A 
ATOM      4  N   UNL     1       0.807  -5.206   2.090  0.00  0.00    -0.345 N 
ATOM      5  C   UNL     1       1.013  -6.449   1.537  0.00  0.00    +0.111 A 
ATOM      6  C   UNL     1       1.247  -6.294   0.222  0.00  0.00    +0.078 A 
ATOM      7  N   UNL     1       1.190  -4.934  -0.069  0.00  0.00    -0.261 N 
ATOM      8  C   UNL     1       1.352  -4.262  -1.225  0.00  0.00    +0.258 A 
ATOM      9  C   UNL     1       1.239  -2.877  -1.263  0.00  0.00    +0.079 A 
ATOM     10  O   UNL     1       1.595  -4.878  -2.253  0.00  0.00    -0.267 OA
ATOM     11  H   UNL     1       0.617  -5.022   3.023  0.00  0.00    +0.167 HD
ENDROOT
BRANCH   1  16
ATOM     12  C   UNL     1      -0.513   1.276  -0.018  0.00  0.00    +0.001 A 
ATOM     13  C   UNL     1       0.622   2.062  -0.121  0.00  0.00    +0.004 A 
ATOM     14  C   UNL     1       1.870   1.476  -0.212  0.00  0.00    +0.046 A 
ATOM     15  C   UNL     1       1.992   0.096  -0.202  0.00  0.00    +0.125 A 
ATOM     16  C   UNL     1       0.847  -0.701  -0.098  0.00  0.00    +0.024 A 
ATOM     17  C   UNL     1      -0.407  -0.099  -0.006  0.00  0.00    +0.012 A 
BRANCH  15  18
ATOM     18  O   UNL     1       3.218  -0.481  -0.293  0.00  0.00    -0.506 OA
ATOM     19  H   UNL     1       3.644  -0.635   0.562  0.00  0.00    +0.292 HD
ENDBRANCH  15  18
ENDBRANCH   1  16
BRANCH   6  20
ATOM     20  C   UNL     1       1.518  -7.378  -0.746  0.00  0.00    +0.042 A 
ATOM     21  C   UNL     1       2.762  -7.466  -1.370  0.00  0.00    +0.013 A 
ATOM     22  C   UNL     1       3.010  -8.480  -2.272  0.00  0.00    +0.001 A 
ATOM     23  C   UNL     1       2.027  -9.411  -2.562  0.00  0.00    +0.004 A 
ATOM     24  C   UNL     1       0.790  -9.333  -1.950  0.00  0.00    +0.046 A 
ATOM     25  C   UNL     1       0.529  -8.325  -1.037  0.00  0.00    +0.126 A 
BRANCH  25  26
ATOM     26  O   UNL     1      -0.685  -8.251  -0.431  0.00  0.00    -0.506 OA
ATOM     27  H   UNL     1      -1.333  -7.718  -0.912  0.00  0.00    +0.292 HD
ENDBRANCH  25  26
ENDBRANCH   6  20
TORSDOF 4
