REMARK  Name = ZINC63756185
REMARK  7 active torsions:
REMARK  status: ('A' for Active; 'I' for Inactive)
REMARK    1  A    between atoms: C_4  and  S_7
REMARK    2  A    between atoms: S_7  and  N_10
REMARK    3  A    between atoms: N_10  and  C_11
REMARK    4  A    between atoms: C_17  and  C_18
REMARK    5  A    between atoms: N_20  and  C_21
REMARK    6  A    between atoms: C_21  and  C_22
REMARK    7  A    between atoms: C_22  and  C_23
REMARK                            x       y       z     vdW  Elec       q    Type
REMARK                         _______ _______ _______ _____ _____    ______ ____
ROOT
ATOM      1  C   UNL     1       3.447  -2.201   2.486  0.00  0.00    +0.220 C 
ATOM      2  N   UNL     1       4.234  -2.702   3.635  0.00  0.00    -0.322 N 
ATOM      3  C   UNL     1       4.482  -1.827   4.631  0.00  0.00    +0.021 C 
ATOM      4  C   UNL     1       3.524  -0.654   4.770  0.00  0.00    +0.122 C 
ATOM      5  S   UNL     1       2.415  -0.920   3.320  0.00  0.00    -0.116 S 
ATOM      6  C   UNL     1       5.530  -1.985   5.466  0.00  0.00    +0.086 C 
ATOM      7  H   UNL     1       4.556  -3.616   3.670  0.00  0.00    +0.148 HD
ENDROOT
BRANCH   6   8
ATOM      8  C   UNL     1       6.481  -3.002   5.221  0.00  0.00    +0.238 C 
ATOM      9  O   UNL     1       6.415  -3.666   4.202  0.00  0.00    -0.271 OA
ATOM     10  N   UNL     1       7.461  -3.238   6.116  0.00  0.00    -0.311 N 
ATOM     11  H   UNL     1       7.514  -2.709   6.928  0.00  0.00    +0.149 HD
BRANCH  10  12
ATOM     12  C   UNL     1       8.446  -4.292   5.863  0.00  0.00    +0.109 C 
BRANCH  12  13
ATOM     13  C   UNL     1       9.440  -4.351   7.025  0.00  0.00    +0.052 C 
BRANCH  13  14
ATOM     14  C   UNL     1      10.454  -5.435   6.764  0.00  0.00    -0.040 C 
ATOM     15  C   UNL     1      11.677  -5.288   6.206  0.00  0.00    -0.001 A 
ATOM     16  C   UNL     1      12.402  -4.119   5.692  0.00  0.00    +0.010 A 
ATOM     17  C   UNL     1      13.641  -4.289   5.179  0.00  0.00    +0.001 A 
ATOM     18  C   UNL     1      14.250  -5.551   5.125  0.00  0.00    +0.002 A 
ATOM     19  C   UNL     1      13.647  -6.671   5.577  0.00  0.00    +0.026 A 
ATOM     20  C   UNL     1      12.342  -6.609   6.138  0.00  0.00    +0.043 A 
ATOM     21  N   UNL     1      11.560  -7.537   6.635  0.00  0.00    -0.380 N 
ATOM     22  C   UNL     1      10.312  -6.907   7.080  0.00  0.00    +0.144 C 
ATOM     23  H   UNL     1      11.773  -8.480   6.701  0.00  0.00    +0.160 HD
ENDBRANCH  13  14
ENDBRANCH  12  13
ENDBRANCH  10  12
ENDBRANCH   6   8
BRANCH   1  24
ATOM     24  N   UNL     1       4.316  -1.604   1.469  0.00  0.00    -0.161 NA
ATOM     25  H   UNL     1       5.174  -1.229   1.723  0.00  0.00    +0.151 HD
BRANCH  24  26
ATOM     26  S   UNL     1       3.833  -1.567  -0.115  0.00  0.00    +0.061 S 
ATOM     27  O   UNL     1       3.395  -2.880  -0.436  0.00  0.00    -0.153 OA
ATOM     28  O   UNL     1       4.864  -0.910  -0.839  0.00  0.00    -0.153 OA
BRANCH  26  32
ATOM     29  C   UNL     1       0.187   1.106  -0.343  0.00  0.00    +0.000 A 
ATOM     30  C   UNL     1       1.450   1.645  -0.501  0.00  0.00    +0.002 A 
ATOM     31  C   UNL     1       2.564   0.829  -0.431  0.00  0.00    +0.028 A 
ATOM     32  C   UNL     1       2.414  -0.526  -0.203  0.00  0.00    +0.105 A 
ATOM     33  C   UNL     1       1.151  -1.065  -0.044  0.00  0.00    +0.028 A 
ATOM     34  C   UNL     1       0.037  -0.249  -0.116  0.00  0.00    +0.002 A 
ENDBRANCH  26  32
ENDBRANCH  24  26
ENDBRANCH   1  24
TORSDOF 7
