REMARK  Name = ZINC08583595
REMARK  11 active torsions:
REMARK  status: ('A' for Active; 'I' for Inactive)
REMARK    1  A    between atoms: C_1  and  C_2
REMARK    2  A    between atoms: C_2  and  C_3
REMARK    3  A    between atoms: C_3  and  C_4
REMARK    4  A    between atoms: C_4  and  N_5
REMARK    5  A    between atoms: N_5  and  C_6
REMARK    6  A    between atoms: C_6  and  C_7
REMARK    7  A    between atoms: C_8  and  C_10
REMARK    8  A    between atoms: C_10  and  S_11
REMARK    9  A    between atoms: S_11  and  C_12
REMARK   10  A    between atoms: C_16  and  C_20
REMARK   11  A    between atoms: N_23  and  C_24
REMARK                            x       y       z     vdW  Elec       q    Type
REMARK                         _______ _______ _______ _____ _____    ______ ____
ROOT
ATOM      1  C   UNL     1       6.274  -3.412   4.703  0.00  0.00    +0.177 A 
ATOM      2  N   UNL     1       5.290  -3.409   5.577  0.00  0.00    -0.201 NA
ATOM      3  C   UNL     1       5.360  -4.250   6.648  0.00  0.00    +0.187 A 
ATOM      4  C   UNL     1       6.618  -4.991   6.913  0.00  0.00    +0.082 A 
ATOM      5  C   UNL     1       6.416  -5.735   8.025  0.00  0.00    +0.046 A 
ATOM      6  N   UNL     1       5.153  -5.509   8.443  0.00  0.00    -0.279 N 
ATOM      7  N   UNL     1       4.525  -4.596   7.581  0.00  0.00    -0.153 NA
ATOM      8  H   UNL     1       4.741  -5.915   9.221  0.00  0.00    +0.189 HD
ATOM      9  C   UNL     1       7.418  -6.652   8.678  0.00  0.00    +0.066 C 
ATOM     10  C   UNL     1       7.756  -4.797   5.989  0.00  0.00    +0.124 A 
ATOM     11  N   UNL     1       8.992  -5.101   6.285  0.00  0.00    -0.384 N 
ATOM     12  N   UNL     1       7.359  -4.252   4.757  0.00  0.00    -0.275 N 
ATOM     13  H   UNL     1       9.213  -5.419   7.174  0.00  0.00    +0.157 HD
ATOM     14  H   UNL     1       9.688  -5.011   5.615  0.00  0.00    +0.157 HD
ENDROOT
BRANCH  12  15
ATOM     15  C   UNL     1       8.068  -4.560   3.589  0.00  0.00    +0.052 A 
ATOM     16  C   UNL     1       7.669  -5.626   2.794  0.00  0.00    +0.026 A 
ATOM     17  C   UNL     1       8.369  -5.928   1.642  0.00  0.00    +0.003 A 
ATOM     18  C   UNL     1       9.467  -5.170   1.281  0.00  0.00    +0.020 A 
ATOM     19  C   UNL     1       9.869  -4.107   2.071  0.00  0.00    +0.043 A 
ATOM     20  C   UNL     1       9.168  -3.797   3.222  0.00  0.00    +0.046 A 
ATOM     21 CL   UNL     1      11.249  -3.158   1.614  0.00  0.00    -0.083 Cl
ENDBRANCH  12  15
BRANCH   1  22
ATOM     22  S   UNL     1       6.190  -2.266   3.368  0.00  0.00    -0.078 S 
BRANCH  22  23
ATOM     23  C   UNL     1       4.642  -1.366   3.658  0.00  0.00    +0.173 C 
BRANCH  23  25
ATOM     24  N   UNL     1       3.356   0.452   2.582  0.00  0.00    -0.301 N 
ATOM     25  C   UNL     1       4.446  -0.340   2.572  0.00  0.00    +0.226 C 
ATOM     26  O   UNL     1       5.270  -0.226   1.689  0.00  0.00    -0.275 OA
BRANCH  24  27
ATOM     27  C   UNL     1       2.360   0.315   3.648  0.00  0.00    +0.104 C 
ATOM     28  C   UNL     1       1.301  -0.706   3.229  0.00  0.00    +0.024 C 
ENDBRANCH  24  27
BRANCH  24  29
ATOM     29  C   UNL     1       3.165   1.450   1.526  0.00  0.00    +0.108 C 
BRANCH  29  30
ATOM     30  C   UNL     1       3.812   2.770   1.949  0.00  0.00    +0.019 C 
BRANCH  30  32
ATOM     31  C   UNL     1       4.260   5.132   1.270  0.00  0.00    +0.004 C 
ATOM     32  C   UNL     1       3.613   3.812   0.847  0.00  0.00    -0.002 C 
ENDBRANCH  30  32
ENDBRANCH  29  30
ENDBRANCH  24  29
ENDBRANCH  23  25
ENDBRANCH  22  23
ENDBRANCH   1  22
TORSDOF 8
