REMARK  Name = ZINC48658327
REMARK  7 active torsions:
REMARK  status: ('A' for Active; 'I' for Inactive)
REMARK    1  A    between atoms: C_1  and  C_2
REMARK    2  A    between atoms: C_7  and  N_8
REMARK    3  A    between atoms: N_8  and  C_9
REMARK    4  A    between atoms: C_9  and  C_10
REMARK    5  A    between atoms: N_15  and  C_16
REMARK    6  A    between atoms: C_16  and  C_17
REMARK    7  A    between atoms: C_16  and  C_18
REMARK                            x       y       z     vdW  Elec       q    Type
REMARK                         _______ _______ _______ _____ _____    ______ ____
ROOT
ATOM      1  C   UNL     1       0.047  -0.757   3.679  0.00  0.00    +0.198 C 
ENDROOT
BRANCH   1   2
ATOM      2  C   UNL     1       0.044   0.214   4.831  0.00  0.00    +0.237 C 
ATOM      3  O   UNL     1       0.025   1.407   4.618  0.00  0.00    -0.274 OA
ATOM      4  N   UNL     1       0.062  -0.244   6.098  0.00  0.00    -0.239 N 
ATOM      5  C   UNL     1       0.059   0.624   7.129  0.00  0.00    +0.306 C 
ATOM      6  O   UNL     1       0.041   1.821   6.915  0.00  0.00    -0.252 OA
ATOM      7  N   UNL     1       0.077   0.166   8.396  0.00  0.00    -0.297 N 
ATOM      8  H   UNL     1       0.077  -1.199   6.269  0.00  0.00    +0.159 HD
ATOM      9  H   UNL     1       0.092  -0.789   8.567  0.00  0.00    +0.151 HD
BRANCH   7  10
ATOM     10  C   UNL     1       0.075   1.110   9.517  0.00  0.00    +0.068 C 
ATOM     11  C   UNL     1      -0.514   0.431  10.755  0.00  0.00    +0.027 C 
ATOM     12  C   UNL     1       1.508   1.555   9.812  0.00  0.00    +0.027 C 
ENDBRANCH   7  10
ENDBRANCH   1   2
BRANCH   1  13
ATOM     13  N   UNL     1       0.025  -0.016   2.415  0.00  0.00    -0.335 N 
ATOM     14  H   UNL     1       0.011   0.954   2.422  0.00  0.00    +0.147 HD
BRANCH  13  21
ATOM     15  C   UNL     1      -0.018   1.503   0.010  0.00  0.00    +0.045 C 
ATOM     16  C   UNL     1       0.002  -0.004   0.002  0.00  0.00    -0.030 A 
ATOM     17  C   UNL     1       0.006  -0.689  -1.198  0.00  0.00    +0.006 A 
ATOM     18  C   UNL     1       0.025  -2.071  -1.207  0.00  0.00    +0.015 A 
ATOM     19  C   UNL     1       0.040  -2.774  -0.014  0.00  0.00    +0.020 A 
ATOM     20  C   UNL     1       0.036  -2.095   1.189  0.00  0.00    +0.038 A 
ATOM     21  C   UNL     1       0.023  -0.706   1.201  0.00  0.00    +0.031 A 
ATOM     22 BR   UNL     1       0.066  -4.664  -0.032  0.00  0.00    -0.050 Br
ENDBRANCH  13  21
ENDBRANCH   1  13
TORSDOF 4
