REMARK  Name = ZINC28901349
REMARK  8 active torsions:
REMARK  status: ('A' for Active; 'I' for Inactive)
REMARK    1  A    between atoms: C_1  and  C_2
REMARK    2  A    between atoms: C_2  and  C_3
REMARK    3  A    between atoms: C_2  and  C_4
REMARK    4  A    between atoms: C_4  and  N_5
REMARK    5  A    between atoms: C_6  and  N_27
REMARK    6  A    between atoms: C_7  and  C_14
REMARK    7  A    between atoms: C_14  and  C_16
REMARK    8  A    between atoms: C_16  and  N_17
REMARK                            x       y       z     vdW  Elec       q    Type
REMARK                         _______ _______ _______ _____ _____    ______ ____
ROOT
ATOM      1  N   UNL     1       0.032   1.207  -0.117  0.00  0.00    -0.281 N 
ATOM      2  C   UNL     1       1.128   1.976   0.155  0.00  0.00    +0.116 A 
ATOM      3  C   UNL     1       0.940   3.274   0.659  0.00  0.00    +0.118 A 
ATOM      4  C   UNL     1      -0.438   3.736   0.868  0.00  0.00    +0.266 A 
ATOM      5  O   UNL     1      -0.660   4.851   1.302  0.00  0.00    -0.267 OA
ATOM      6  N   UNL     1      -1.453   2.900   0.568  0.00  0.00    -0.274 N 
ATOM      7  H   UNL     1      -2.494   3.221   0.719  0.00  0.00    +0.173 HD
ATOM      8  C   UNL     1      -1.212   1.670   0.084  0.00  0.00    +0.331 A 
ATOM      9  O   UNL     1      -2.154   0.949  -0.178  0.00  0.00    -0.246 OA
ENDROOT
BRANCH   2  10
ATOM     10  N   UNL     1       2.382   1.492  -0.059  0.00  0.00    -0.344 N 
ATOM     11  H   UNL     1       3.258   2.118   0.163  0.00  0.00    +0.144 HD
ATOM     12  H   UNL     1       2.519   0.474  -0.453  0.00  0.00    +0.144 HD
ENDBRANCH   2  10
BRANCH   3  13
ATOM     13  C   UNL     1       2.040   4.106   0.956  0.00  0.00    +0.155 C 
ATOM     14  O   UNL     1       3.167   3.745   0.681  0.00  0.00    -0.294 OA
BRANCH  13  15
ATOM     15  C   UNL     1       1.818   5.444   1.614  0.00  0.00    +0.003 C 
BRANCH  15  16
ATOM     16  N   UNL     1       3.115   6.061   1.919  0.00  0.00    +0.387 N 
ATOM     17  C   UNL     1       3.837   5.293   2.946  0.00  0.00    -0.073 C 
ATOM     18  C   UNL     1       5.296   5.750   2.958  0.00  0.00    +0.017 C 
ATOM     19  C   UNL     1       5.364   7.253   3.040  0.00  0.00    -0.048 A 
ATOM     20  C   UNL     1       6.563   7.842   3.413  0.00  0.00    +0.004 A 
ATOM     21  C   UNL     1       6.669   9.216   3.497  0.00  0.00    +0.000 A 
ATOM     22  C   UNL     1       5.575  10.009   3.208  0.00  0.00    +0.000 A 
ATOM     23  C   UNL     1       4.380   9.424   2.838  0.00  0.00    +0.002 A 
ATOM     24  C   UNL     1       4.271   8.044   2.755  0.00  0.00    -0.061 A 
ATOM     25  C   UNL     1       2.946   7.452   2.352  0.00  0.00    -0.042 C 
ATOM     26  H   UNL     1       3.711   6.058   0.995  0.00  0.00    -0.081 HD
ENDBRANCH  15  16
ENDBRANCH  13  15
ENDBRANCH   3  13
BRANCH   1  27
ATOM     27  C   UNL     1       0.218  -0.147  -0.643  0.00  0.00    +0.131 C 
BRANCH  27  29
ATOM     28  C   UNL     1      -1.021  -1.173   1.269  0.00  0.00    +0.009 C 
ATOM     29  C   UNL     1       0.312  -1.138   0.519  0.00  0.00    +0.003 C 
ATOM     30  C   UNL     1       0.630  -2.532  -0.024  0.00  0.00    +0.009 C 
ENDBRANCH  27  29
ENDBRANCH   1  27
TORSDOF 6
