REMARK  Name = ZINC58754242
REMARK  6 active torsions:
REMARK  status: ('A' for Active; 'I' for Inactive)
REMARK    1  A    between atoms: C_1  and  C_2
REMARK    2  A    between atoms: C_8  and  N_12
REMARK    3  A    between atoms: C_9  and  C_10
REMARK    4  A    between atoms: C_13  and  C_15
REMARK    5  A    between atoms: C_15  and  N_16
REMARK    6  A    between atoms: C_20  and  O_22
REMARK                            x       y       z     vdW  Elec       q    Type
REMARK                         _______ _______ _______ _____ _____    ______ ____
ROOT
ATOM      1  N   UNL     1       1.931  -5.828   1.709  0.00  0.00    -0.281 N 
ATOM      2  C   UNL     1       2.233  -6.088   2.996  0.00  0.00    +0.201 C 
ATOM      3  O   UNL     1       2.208  -5.196   3.817  0.00  0.00    -0.278 OA
ATOM      4  H   UNL     1       1.951  -6.542   1.052  0.00  0.00    +0.155 HD
ENDROOT
BRANCH   1  12
ATOM      5  C   UNL     1      -0.019   1.526   0.010  0.00  0.00    +0.008 C 
ATOM      6  C   UNL     1       0.002  -0.004   0.002  0.00  0.00    -0.009 C 
ATOM      7  C   UNL     1       0.731  -0.500  -1.250  0.00  0.00    +0.008 C 
ATOM      8  C   UNL     1       0.545  -2.012  -1.396  0.00  0.00    +0.037 C 
ATOM      9  C   UNL     1       0.935  -2.681  -0.086  0.00  0.00    -0.018 A 
ATOM     10  C   UNL     1       1.013  -1.977   1.065  0.00  0.00    -0.004 A 
ATOM     11  S   UNL     1       1.493  -3.165   2.284  0.00  0.00    -0.077 S 
ATOM     12  C   UNL     1       1.590  -4.539   1.323  0.00  0.00    +0.090 A 
ATOM     13  C   UNL     1       1.253  -4.090   0.057  0.00  0.00    +0.084 A 
ATOM     14  C   UNL     1       0.745  -0.515   1.246  0.00  0.00    +0.046 C 
BRANCH  13  15
ATOM     15  C   UNL     1       1.219  -4.980  -1.065  0.00  0.00    +0.102 C 
ATOM     16  N   UNL     1       1.192  -5.685  -1.955  0.00  0.00    -0.191 NA
ENDBRANCH  13  15
ENDBRANCH   1  12
BRANCH   2  17
ATOM     17  C   UNL     1       2.602  -7.488   3.415  0.00  0.00    +0.019 C 
BRANCH  17  18
ATOM     18  N   UNL     1       2.885  -7.509   4.856  0.00  0.00    +0.387 N 
ATOM     19  C   UNL     1       4.069  -6.687   5.133  0.00  0.00    -0.078 C 
ATOM     20  C   UNL     1       4.320  -6.639   6.642  0.00  0.00    -0.016 C 
ATOM     21  C   UNL     1       4.553  -8.062   7.160  0.00  0.00    +0.027 C 
ATOM     22  C   UNL     1       3.343  -8.929   6.800  0.00  0.00    +0.098 C 
ATOM     23  C   UNL     1       3.128  -8.892   5.286  0.00  0.00    -0.047 C 
ATOM     24  H   UNL     1       2.094  -7.136   5.359  0.00  0.00    -0.081 HD
BRANCH  22  25
ATOM     25  O   UNL     1       3.581 -10.276   7.215  0.00  0.00    -0.394 OA
ATOM     26  H   UNL     1       3.730 -10.374   8.165  0.00  0.00    +0.210 HD
ENDBRANCH  22  25
ENDBRANCH  17  18
ENDBRANCH   2  17
TORSDOF 5
