REMARK  Name = ZINC33500756
REMARK  7 active torsions:
REMARK  status: ('A' for Active; 'I' for Inactive)
REMARK    1  A    between atoms: C_1  and  N_2
REMARK    2  A    between atoms: C_5  and  C_13
REMARK    3  A    between atoms: N_18  and  C_19
REMARK    4  A    between atoms: C_19  and  C_20
REMARK    5  A    between atoms: C_20  and  C_21
REMARK    6  A    between atoms: C_21  and  C_22
REMARK    7  A    between atoms: C_22  and  N_23
REMARK                            x       y       z     vdW  Elec       q    Type
REMARK                         _______ _______ _______ _____ _____    ______ ____
ROOT
ATOM      1  C   UNL     1       1.049   1.786   2.953  0.00  0.00    +0.059 A 
ATOM      2  C   UNL     1       1.516   1.412   4.164  0.00  0.00    +0.076 A 
ATOM      3  S   UNL     1       0.639  -0.118   4.436  0.00  0.00    -0.034 S 
ATOM      4  C   UNL     1      -0.271  -0.152   2.960  0.00  0.00    +0.291 A 
ATOM      5  O   UNL     1      -1.072  -0.987   2.578  0.00  0.00    -0.259 OA
ATOM      6  N   UNL     1       0.133   0.977   2.338  0.00  0.00    -0.302 N 
ENDROOT
BRANCH   1  11
ATOM      7  C   UNL     1      -1.253   6.147   1.419  0.00  0.00    +0.138 C 
ATOM      8  N   UNL     1       0.125   6.160   0.921  0.00  0.00    -0.269 N 
ATOM      9  C   UNL     1       1.035   5.171   1.321  0.00  0.00    +0.079 A 
ATOM     10  C   UNL     1       0.592   4.006   1.920  0.00  0.00    +0.037 A 
ATOM     11  C   UNL     1       1.515   3.035   2.311  0.00  0.00    +0.001 A 
ATOM     12  C   UNL     1       2.878   3.246   2.100  0.00  0.00    +0.013 A 
ATOM     13  C   UNL     1       3.314   4.409   1.496  0.00  0.00    +0.048 A 
ATOM     14  C   UNL     1       2.399   5.374   1.108  0.00  0.00    +0.143 A 
ATOM     15  O   UNL     1       2.819   6.525   0.517  0.00  0.00    -0.481 OA
ATOM     16  C   UNL     1       1.948   7.100  -0.461  0.00  0.00    +0.325 C 
ATOM     17  C   UNL     1       0.538   7.125   0.070  0.00  0.00    +0.257 C 
ATOM     18  O   UNL     1      -0.224   8.007  -0.266  0.00  0.00    -0.272 OA
ENDBRANCH   1  11
BRANCH   6  19
ATOM     19  C   UNL     1      -0.408   1.335   1.024  0.00  0.00    +0.126 C 
BRANCH  19  20
ATOM     20  C   UNL     1       0.546   0.850  -0.069  0.00  0.00    +0.020 C 
BRANCH  20  21
ATOM     21  C   UNL     1      -0.019   1.223  -1.441  0.00  0.00    -0.018 C 
BRANCH  21  22
ATOM     22  C   UNL     1       0.934   0.739  -2.535  0.00  0.00    -0.086 C 
BRANCH  22  23
ATOM     23  N   UNL     1       0.392   1.097  -3.852  0.00  0.00    +0.378 N 
ATOM     24  H   UNL     1       1.078   0.748  -4.638  0.00  0.00    -0.090 HD
ATOM     25  H   UNL     1       0.283   2.190  -3.918  0.00  0.00    -0.090 HD
ATOM     26  H   UNL     1      -0.591   0.622  -3.985  0.00  0.00    -0.090 HD
ENDBRANCH  22  23
ENDBRANCH  21  22
ENDBRANCH  20  21
ENDBRANCH  19  20
ENDBRANCH   6  19
TORSDOF 6
