REMARK  Name = ZINC40951519
REMARK  7 active torsions:
REMARK  status: ('A' for Active; 'I' for Inactive)
REMARK    1  A    between atoms: C_1  and  C_2
REMARK    2  A    between atoms: C_5  and  O_12
REMARK    3  A    between atoms: C_8  and  C_10
REMARK    4  A    between atoms: C_8  and  C_11
REMARK    5  A    between atoms: O_12  and  C_13
REMARK    6  A    between atoms: C_13  and  C_15
REMARK    7  A    between atoms: C_15  and  N_20
REMARK                            x       y       z     vdW  Elec       q    Type
REMARK                         _______ _______ _______ _____ _____    ______ ____
ROOT
ATOM      1  C   UNL     1      -1.045  -3.104  -2.428  0.00  0.00    +0.296 C 
ATOM      2  O   UNL     1      -0.399  -2.975  -3.441  0.00  0.00    -0.252 OA
ENDROOT
BRANCH   1   3
ATOM      3  C   UNL     1      -2.455  -3.633  -2.496  0.00  0.00    +0.028 C 
ATOM      4  C   UNL     1      -2.454  -5.165  -2.319  0.00  0.00    -0.002 C 
ATOM      5  C   UNL     1      -3.564  -5.659  -3.279  0.00  0.00    -0.001 C 
ATOM      6  C   UNL     1      -3.401  -4.721  -4.501  0.00  0.00    -0.001 C 
ATOM      7  C   UNL     1      -3.058  -3.351  -3.883  0.00  0.00    -0.002 C 
BRANCH   3   8
ATOM      8  N   UNL     1      -3.278  -3.006  -1.453  0.00  0.00    +0.389 N 
ATOM      9  H   UNL     1      -3.300  -2.007  -1.597  0.00  0.00    -0.088 HD
ATOM     10  H   UNL     1      -4.216  -3.374  -1.498  0.00  0.00    -0.088 HD
ATOM     11  H   UNL     1      -2.882  -3.206  -0.546  0.00  0.00    -0.088 HD
ENDBRANCH   3   8
ENDBRANCH   1   3
BRANCH   1  12
ATOM     12  O   UNL     1      -0.507  -2.777  -1.242  0.00  0.00    -0.462 OA
BRANCH  12  16
ATOM     13  C   UNL     1       0.032   1.380  -0.376  0.00  0.00    +0.007 C 
ATOM     14  C   UNL     1       0.051  -0.143  -0.228  0.00  0.00    -0.010 C 
ATOM     15  C   UNL     1       0.814  -0.760  -1.401  0.00  0.00    +0.048 C 
ATOM     16  C   UNL     1       0.833  -2.283  -1.253  0.00  0.00    +0.177 C 
ATOM     17  C   UNL     1       1.525  -2.658   0.059  0.00  0.00    +0.051 C 
ATOM     18  C   UNL     1       0.763  -2.041   1.233  0.00  0.00    -0.031 C 
ATOM     19  C   UNL     1       0.744  -0.518   1.084  0.00  0.00    +0.010 C 
ATOM     20  C   UNL     1      -0.673  -2.570   1.244  0.00  0.00    +0.011 C 
ATOM     21  C   UNL     1       1.455  -2.416   2.545  0.00  0.00    +0.011 C 
ENDBRANCH  12  16
ENDBRANCH   1  12
TORSDOF 4
