REMARK  Name = ZINC03369694
REMARK  2 active torsions:
REMARK  status: ('A' for Active; 'I' for Inactive)
REMARK    1  A    between atoms: C_1  and  N_2
REMARK    2  A    between atoms: N_10  and  C_13
REMARK                            x       y       z     vdW  Elec       q    Type
REMARK                         _______ _______ _______ _____ _____    ______ ____
ROOT
ATOM      1  C   UNL     1       3.777   3.158  -0.242  0.00  0.00    +0.129 C 
ATOM      2  N   UNL     1       4.287   1.790  -0.125  0.00  0.00    -0.335 N 
ATOM      3  C   UNL     1       5.712   1.438  -0.085  0.00  0.00    +0.105 C 
ATOM      4  C   UNL     1       5.771  -0.074  -0.397  0.00  0.00    +0.025 C 
ATOM      5  C   UNL     1       4.371  -0.546   0.064  0.00  0.00    +0.053 C 
ATOM      6  C   UNL     1       3.511   0.694  -0.041  0.00  0.00    +0.022 C 
ATOM      7  C   UNL     1       2.129   0.702  -0.044  0.00  0.00    +0.097 C 
ATOM      8  C   UNL     1       1.224  -0.462  -0.096  0.00  0.00    +0.149 C 
ATOM      9  N   UNL     1       0.003  -0.008  -0.079  0.00  0.00    -0.156 NA
ATOM     10  N   UNL     1      -0.018   1.385  -0.018  0.00  0.00    -0.155 N 
ATOM     11  C   UNL     1       1.240   1.869   0.006  0.00  0.00    +0.275 C 
ATOM     12  O   UNL     1       1.573   3.042   0.058  0.00  0.00    -0.268 OA
ATOM     13  N   UNL     1       1.605  -1.800  -0.154  0.00  0.00    -0.341 N 
ATOM     14  H   UNL     1       0.930  -2.496  -0.186  0.00  0.00    +0.144 HD
ATOM     15  H   UNL     1       2.546  -2.037  -0.162  0.00  0.00    +0.144 HD
ENDROOT
BRANCH  10  16
ATOM     16  C   UNL     1      -1.177   2.168   0.009  0.00  0.00    +0.060 A 
ATOM     17  C   UNL     1      -1.081   3.552   0.075  0.00  0.00    +0.025 A 
ATOM     18  C   UNL     1      -2.228   4.322   0.095  0.00  0.00    +0.002 A 
ATOM     19  C   UNL     1      -3.470   3.716   0.061  0.00  0.00    +0.000 A 
ATOM     20  C   UNL     1      -3.569   2.338   0.001  0.00  0.00    +0.002 A 
ATOM     21  C   UNL     1      -2.427   1.562  -0.026  0.00  0.00    +0.025 A 
ENDBRANCH  10  16
TORSDOF 1
