REMARK  Name = ZINC09317498
REMARK  8 active torsions:
REMARK  status: ('A' for Active; 'I' for Inactive)
REMARK    1  A    between atoms: C_1  and  C_2
REMARK    2  A    between atoms: C_5  and  C_33
REMARK    3  A    between atoms: C_6  and  N_8
REMARK    4  A    between atoms: C_11  and  C_17
REMARK    5  A    between atoms: C_12  and  O_16
REMARK    6  A    between atoms: C_14  and  O_15
REMARK    7  A    between atoms: C_23  and  O_29
REMARK    8  A    between atoms: O_29  and  C_30
REMARK                            x       y       z     vdW  Elec       q    Type
REMARK                         _______ _______ _______ _____ _____    ______ ____
ROOT
ATOM      1  N   UNL     1      -2.650  -0.728   3.219  0.00  0.00    -0.230 N 
ATOM      2  C   UNL     1      -2.499   0.318   2.379  0.00  0.00    +0.267 A 
ATOM      3  O   UNL     1      -2.178   1.416   2.804  0.00  0.00    -0.267 OA
ATOM      4  C   UNL     1      -2.724   0.121   1.011  0.00  0.00    +0.071 A 
ATOM      5  C   UNL     1      -3.081  -1.141   0.570  0.00  0.00    +0.224 A 
ATOM      6  N   UNL     1      -3.209  -2.140   1.450  0.00  0.00    -0.161 NA
ATOM      7  C   UNL     1      -3.002  -1.948   2.733  0.00  0.00    +0.306 A 
ENDROOT
BRANCH   4   8
ATOM      8  C   UNL     1      -2.574   1.261   0.036  0.00  0.00    +0.018 C 
ATOM      9  C   UNL     1      -1.138   1.734   0.016  0.00  0.00    +0.011 A 
ATOM     10  C   UNL     1      -0.796   3.038   0.025  0.00  0.00    -0.022 A 
ATOM     11  C   UNL     1       0.660   3.109   0.013  0.00  0.00    +0.006 A 
ATOM     12  C   UNL     1       1.587   4.154   0.010  0.00  0.00    +0.056 A 
ATOM     13  C   UNL     1       2.938   3.870  -0.005  0.00  0.00    +0.121 A 
ATOM     14  C   UNL     1       3.377   2.549  -0.017  0.00  0.00    +0.047 A 
ATOM     15  C   UNL     1       2.474   1.510  -0.014  0.00  0.00    +0.030 A 
ATOM     16  C   UNL     1       1.108   1.774   0.001  0.00  0.00    +0.047 A 
ATOM     17  N   UNL     1      -0.011   0.966   0.007  0.00  0.00    -0.359 N 
ATOM     18  H   UNL     1       0.002  -0.004   0.002  0.00  0.00    +0.166 HD
ATOM     19  C   UNL     1      -1.795   4.167   0.037  0.00  0.00    +0.018 C 
ATOM     20  C   UNL     1      -3.164   3.588  -0.348  0.00  0.00    -0.076 C 
ATOM     21  N   UNL     1      -3.438   2.384   0.463  0.00  0.00    +0.388 N 
ATOM     22  H   UNL     1      -3.256   2.594   1.451  0.00  0.00    -0.084 HD
ATOM     23  H   UNL     1      -4.422   2.115   0.346  0.00  0.00    -0.084 HD
BRANCH  13  24
ATOM     24  O   UNL     1       3.843   4.885  -0.007  0.00  0.00    -0.495 OA
ATOM     25  C   UNL     1       5.225   4.521  -0.022  0.00  0.00    +0.277 C 
ENDBRANCH  13  24
ENDBRANCH   4   8
BRANCH   1  31
ATOM     26  C   UNL     1       0.410  -0.792   7.069  0.00  0.00    +0.044 C 
ATOM     27  C   UNL     1      -0.963  -0.582   6.485  0.00  0.00    -0.048 A 
ATOM     28  C   UNL     1      -2.015  -0.221   7.307  0.00  0.00    +0.004 A 
ATOM     29  C   UNL     1      -3.277  -0.028   6.776  0.00  0.00    +0.005 A 
ATOM     30  C   UNL     1      -3.490  -0.195   5.421  0.00  0.00    -0.026 A 
ATOM     31  C   UNL     1      -2.436  -0.557   4.593  0.00  0.00    +0.057 A 
ATOM     32  C   UNL     1      -1.171  -0.755   5.131  0.00  0.00    +0.030 A 
ATOM     33  C   UNL     1      -4.866   0.016   4.843  0.00  0.00    +0.046 C 
ENDBRANCH   1  31
BRANCH   7  34
ATOM     34  O   UNL     1      -3.143  -2.984   3.586  0.00  0.00    -0.479 OA
ATOM     35  H   UNL     1      -3.394  -3.836   3.205  0.00  0.00    +0.295 HD
ENDBRANCH   7  34
BRANCH   5  36
ATOM     36  O   UNL     1      -3.300  -1.363  -0.747  0.00  0.00    -0.492 OA
ATOM     37  H   UNL     1      -3.544  -2.275  -0.957  0.00  0.00    +0.294 HD
ENDBRANCH   5  36
TORSDOF 5
