REMARK  Name = ZINC09485336
REMARK  7 active torsions:
REMARK  status: ('A' for Active; 'I' for Inactive)
REMARK    1  A    between atoms: C_1  and  C_2
REMARK    2  A    between atoms: C_2  and  C_4
REMARK    3  A    between atoms: C_4  and  N_55
REMARK    4  A    between atoms: N_12  and  C_13
REMARK    5  A    between atoms: C_14  and  C_24
REMARK    6  A    between atoms: C_20  and  C_22
REMARK    7  A    between atoms: C_20  and  C_23
REMARK                            x       y       z     vdW  Elec       q    Type
REMARK                         _______ _______ _______ _____ _____    ______ ____
ROOT
ATOM      1  C   UNL     1      -2.259  -4.300  -0.233  0.00  0.00    +0.086 A 
ATOM      2  C   UNL     1      -2.469  -2.958   0.059  0.00  0.00    +0.069 A 
ATOM      3  C   UNL     1      -1.388  -2.035  -0.227  0.00  0.00    -0.018 A 
ATOM      4  C   UNL     1      -0.276  -2.594  -0.756  0.00  0.00    +0.021 A 
ATOM      5  S   UNL     1      -0.649  -4.318  -0.875  0.00  0.00    -0.075 S 
ATOM      6  C   UNL     1       0.977  -1.871  -1.142  0.00  0.00    +0.203 C 
ATOM      7  O   UNL     1       0.683  -0.464  -1.161  0.00  0.00    -0.368 OA
ATOM      8  C   UNL     1       0.005  -0.006   0.012  0.00  0.00    +0.068 C 
ATOM      9  C   UNL     1      -1.434  -0.533   0.027  0.00  0.00    +0.071 C 
ATOM     10  C   UNL     1      -0.015   1.524   0.022  0.00  0.00    +0.041 C 
ATOM     11  C   UNL     1       0.742  -0.511   1.254  0.00  0.00    +0.041 C 
ENDROOT
BRANCH   1  19
ATOM     12  C   UNL     1      -5.031  -8.359   1.673  0.00  0.00    -0.059 C 
ATOM     13  C   UNL     1      -4.887  -7.461   0.440  0.00  0.00    +0.091 C 
ATOM     14  N   UNL     1      -3.546  -7.661  -0.130  0.00  0.00    -0.289 N 
ATOM     15  C   UNL     1      -3.106  -9.037  -0.405  0.00  0.00    +0.091 C 
ATOM     16  C   UNL     1      -3.317  -9.874   0.867  0.00  0.00    -0.059 C 
ATOM     17  C   UNL     1      -2.745  -6.611  -0.399  0.00  0.00    +0.307 C 
ATOM     18  O   UNL     1      -1.678  -6.788  -0.953  0.00  0.00    -0.252 OA
ATOM     19  N   UNL     1      -3.127  -5.366  -0.053  0.00  0.00    -0.263 N 
ATOM     20  H   UNL     1      -4.010  -5.216   0.321  0.00  0.00    +0.157 HD
ATOM     21  N   UNL     1      -4.732  -9.754   1.282  0.00  0.00    +0.384 N 
ATOM     22  H   UNL     1      -5.334 -10.014   0.492  0.00  0.00    -0.081 HD
BRANCH  21  23
ATOM     23  C   UNL     1      -5.005 -10.665   2.413  0.00  0.00    -0.048 C 
BRANCH  23  25
ATOM     24  C   UNL     1      -6.087 -12.742   1.262  0.00  0.00    +0.036 C 
ATOM     25  C   UNL     1      -4.904 -12.087   1.925  0.00  0.00    -0.096 C 
ATOM     26  C   UNL     1      -3.787 -12.754   2.079  0.00  0.00    +0.005 C 
ENDBRANCH  23  25
ENDBRANCH  21  23
ENDBRANCH   1  19
BRANCH   2  27
ATOM     27  C   UNL     1      -3.735  -2.493   0.634  0.00  0.00    +0.244 C 
ATOM     28  O   UNL     1      -4.646  -2.149  -0.096  0.00  0.00    -0.270 OA
ATOM     29  N   UNL     1      -3.890  -2.446   1.972  0.00  0.00    -0.325 N 
ATOM     30  H   UNL     1      -3.164  -2.720   2.555  0.00  0.00    +0.145 HD
ATOM     31  H   UNL     1      -4.728  -2.138   2.353  0.00  0.00    +0.145 HD
ENDBRANCH   2  27
TORSDOF 4
