REMARK  Name = ZINC37728947
REMARK  8 active torsions:
REMARK  status: ('A' for Active; 'I' for Inactive)
REMARK    1  A    between atoms: C_1  and  C_2
REMARK    2  A    between atoms: C_4  and  C_7
REMARK    3  A    between atoms: C_7  and  O_8
REMARK    4  A    between atoms: O_8  and  C_9
REMARK    5  A    between atoms: C_10  and  C_17
REMARK    6  A    between atoms: C_17  and  C_18
REMARK    7  A    between atoms: C_18  and  C_20
REMARK    8  A    between atoms: C_18  and  N_21
REMARK                            x       y       z     vdW  Elec       q    Type
REMARK                         _______ _______ _______ _____ _____    ______ ____
ROOT
ATOM      1  C   UNL     1       1.434  -4.883  -2.900  0.00  0.00    +0.143 A 
ATOM      2  C   UNL     1       1.660  -6.044  -2.175  0.00  0.00    -0.004 A 
ATOM      3  C   UNL     1       2.083  -7.189  -2.820  0.00  0.00    +0.027 A 
ATOM      4  C   UNL     1       2.280  -7.181  -4.190  0.00  0.00    +0.043 A 
ATOM      5  C   UNL     1       2.055  -6.024  -4.915  0.00  0.00    +0.043 A 
ATOM      6  C   UNL     1       1.627  -4.877  -4.274  0.00  0.00    +0.084 A 
ATOM      7 CL   UNL     1       1.338  -3.428  -5.186  0.00  0.00    -0.080 Cl
ATOM      8 CL   UNL     1       2.812  -8.622  -4.998  0.00  0.00    -0.083 Cl
ENDROOT
BRANCH   1   9
ATOM      9  O   UNL     1       1.018  -3.755  -2.266  0.00  0.00    -0.481 OA
BRANCH   9  10
ATOM     10  C   UNL     1      -0.390  -3.516  -2.223  0.00  0.00    +0.327 C 
BRANCH  10  14
ATOM     11  C   UNL     1      -1.139   1.347  -1.284  0.00  0.00    +0.091 C 
ATOM     12  C   UNL     1      -0.986  -0.135  -1.058  0.00  0.00    +0.169 A 
ATOM     13  N   UNL     1      -0.733  -1.044  -2.007  0.00  0.00    -0.193 NA
ATOM     14  C   UNL     1      -0.660  -2.234  -1.478  0.00  0.00    +0.265 A 
ATOM     15  O   UNL     1      -0.867  -2.121  -0.161  0.00  0.00    -0.334 OA
ATOM     16  N   UNL     1      -1.072  -0.739   0.092  0.00  0.00    -0.061 NA
ENDBRANCH  10  14
ENDBRANCH   9  10
ENDBRANCH   1   9
BRANCH   2  17
ATOM     17  C   UNL     1       1.445  -6.054  -0.683  0.00  0.00    +0.022 C 
BRANCH  17  18
ATOM     18  C   UNL     1       2.729  -5.608   0.020  0.00  0.00    -0.074 C 
ATOM     19  C   UNL     1       2.555  -5.745   1.534  0.00  0.00    -0.014 C 
BRANCH  18  20
ATOM     20  N   UNL     1       3.009  -4.206  -0.316  0.00  0.00    +0.380 N 
ATOM     21  H   UNL     1       3.124  -4.116  -1.314  0.00  0.00    -0.090 HD
ATOM     22  H   UNL     1       2.241  -3.627  -0.012  0.00  0.00    -0.090 HD
ATOM     23  H   UNL     1       3.856  -3.912   0.148  0.00  0.00    -0.090 HD
ENDBRANCH  18  20
ENDBRANCH  17  18
ENDBRANCH   2  17
TORSDOF 6
