REMARK  Name = ZINC37095921
REMARK  12 active torsions:
REMARK  status: ('A' for Active; 'I' for Inactive)
REMARK    1  A    between atoms: C_1  and  C_2
REMARK    2  A    between atoms: C_2  and  C_3
REMARK    3  A    between atoms: C_3  and  N_4
REMARK    4  A    between atoms: N_4  and  C_5
REMARK    5  A    between atoms: N_4  and  C_8
REMARK    6  A    between atoms: C_5  and  C_6
REMARK    7  A    between atoms: C_5  and  C_7
REMARK    8  A    between atoms: C_8  and  C_18
REMARK    9  A    between atoms: C_10  and  C_17
REMARK   10  A    between atoms: C_13  and  C_15
REMARK   11  A    between atoms: C_13  and  C_16
REMARK   12  A    between atoms: C_18  and  N_19
REMARK                            x       y       z     vdW  Elec       q    Type
REMARK                         _______ _______ _______ _____ _____    ______ ____
ROOT
ATOM      1  C   UNL     1       1.194  -1.985   2.134  0.00  0.00    -0.081 C 
ATOM      2  C   UNL     1       0.774  -3.454   2.048  0.00  0.00    -0.011 C 
ATOM      3  C   UNL     1       0.929  -4.110   3.422  0.00  0.00    -0.015 C 
ATOM      4  C   UNL     1       0.044  -3.384   4.437  0.00  0.00    +0.009 C 
ATOM      5  C   UNL     1       0.465  -1.916   4.522  0.00  0.00    -0.036 C 
ATOM      6  C   UNL     1       0.309  -1.260   3.149  0.00  0.00    -0.008 C 
ATOM      7  C   UNL     1       1.926  -1.829   4.966  0.00  0.00    +0.011 C 
ATOM      8  C   UNL     1      -0.421  -1.190   5.537  0.00  0.00    +0.011 C 
ATOM      9  C   UNL     1       0.509  -5.579   3.336  0.00  0.00    +0.007 C 
ENDROOT
BRANCH   1  10
ATOM     10  N   UNL     1       1.044  -1.356   0.815  0.00  0.00    +0.384 N 
ATOM     11  H   UNL     1       1.759  -1.703   0.193  0.00  0.00    -0.081 HD
BRANCH  10  12
ATOM     12  C   UNL     1       1.178   0.101   0.950  0.00  0.00    -0.074 C 
ATOM     13  C   UNL     1       2.656   0.466   1.098  0.00  0.00    -0.013 C 
ATOM     14  C   UNL     1       0.607   0.783  -0.295  0.00  0.00    -0.013 C 
ENDBRANCH  10  12
BRANCH  10  15
ATOM     15  C   UNL     1      -0.280  -1.677   0.266  0.00  0.00    -0.078 C 
BRANCH  15  17
ATOM     16  C   UNL     1      -1.583  -2.010  -1.839  0.00  0.00    +0.002 C 
ATOM     17  C   UNL     1      -0.246  -1.547  -1.258  0.00  0.00    -0.022 C 
ENDBRANCH  15  17
ENDBRANCH  10  15
ENDBRANCH   1  10
BRANCH   1  18
ATOM     18  C   UNL     1       2.656  -1.898   2.577  0.00  0.00    -0.099 C 
BRANCH  18  19
ATOM     19  N   UNL     1       3.533  -2.135   1.423  0.00  0.00    +0.377 N 
ATOM     20  H   UNL     1       4.495  -2.142   1.728  0.00  0.00    -0.090 HD
ATOM     21  H   UNL     1       3.306  -3.026   1.006  0.00  0.00    -0.090 HD
ATOM     22  H   UNL     1       3.400  -1.402   0.743  0.00  0.00    -0.090 HD
ENDBRANCH  18  19
ENDBRANCH   1  18
TORSDOF 6
