REMARK  Name = ZINC04521479
REMARK  5 active torsions:
REMARK  status: ('A' for Active; 'I' for Inactive)
REMARK    1  A    between atoms: C_9  and  N_12
REMARK    2  A    between atoms: C_10  and  O_11
REMARK    3  A    between atoms: N_13  and  C_14
REMARK    4  A    between atoms: C_21  and  S_25
REMARK    5  A    between atoms: C_23  and  O_24
REMARK                            x       y       z     vdW  Elec       q    Type
REMARK                         _______ _______ _______ _____ _____    ______ ____
ROOT
ATOM      1  C   UNL     1       1.074   3.379  -0.003  0.00  0.00    +0.135 A 
ATOM      2  C   UNL     1       2.290   4.140   0.283  0.00  0.00    +0.015 A 
ATOM      3  C   UNL     1       3.509   3.500   0.536  0.00  0.00    +0.011 A 
ATOM      4  C   UNL     1       4.621   4.246   0.794  0.00  0.00    +0.001 A 
ATOM      5  C   UNL     1       4.561   5.638   0.804  0.00  0.00    +0.001 A 
ATOM      6  C   UNL     1       3.393   6.291   0.557  0.00  0.00    +0.010 A 
ATOM      7  C   UNL     1       2.227   5.554   0.287  0.00  0.00    +0.012 A 
ATOM      8  C   UNL     1       1.002   6.195   0.028  0.00  0.00    +0.131 A 
ATOM      9  C   UNL     1      -0.120   5.473  -0.232  0.00  0.00    +0.077 A 
ATOM     10  C   UNL     1      -0.108   4.079  -0.253  0.00  0.00    +0.146 A 
ENDROOT
BRANCH   8  11
ATOM     11  S   UNL     1       0.921   7.955   0.040  0.00  0.00    +0.140 S 
ATOM     12  O   UNL     1       2.186   8.423  -0.409  0.00  0.00    -0.140 OA
ATOM     13  O   UNL     1      -0.295   8.310  -0.603  0.00  0.00    -0.140 OA
ATOM     14  O   UNL     1       0.788   8.389   1.493  0.00  0.00    -0.043 OA
ENDBRANCH   8  11
BRANCH   1  16
ATOM     15  N   UNL     1       0.012   1.362  -0.270  0.00  0.00    -0.145 NA
ATOM     16  N   UNL     1       1.093   2.019  -0.021  0.00  0.00    -0.145 NA
BRANCH  15  25
ATOM     17  C   UNL     1      -1.002  -4.886  -0.595  0.00  0.00    +0.001 A 
ATOM     18  C   UNL     1      -2.201  -4.225  -0.848  0.00  0.00    +0.001 A 
ATOM     19  C   UNL     1      -2.266  -2.865  -0.840  0.00  0.00    +0.012 A 
ATOM     20  C   UNL     1      -1.108  -2.115  -0.573  0.00  0.00    +0.026 A 
ATOM     21  C   UNL     1       0.113  -2.787  -0.315  0.00  0.00    -0.014 A 
ATOM     22  C   UNL     1       0.140  -4.191  -0.332  0.00  0.00    +0.008 A 
ATOM     23  C   UNL     1       1.277  -2.043  -0.046  0.00  0.00    +0.011 A 
ATOM     24  C   UNL     1       1.234  -0.687  -0.039  0.00  0.00    +0.034 A 
ATOM     25  C   UNL     1       0.031  -0.001  -0.287  0.00  0.00    +0.128 A 
ATOM     26  C   UNL     1      -1.141  -0.707  -0.557  0.00  0.00    +0.152 A 
BRANCH  26  27
ATOM     27  O   UNL     1      -2.299  -0.046  -0.801  0.00  0.00    -0.504 OA
ATOM     28  H   UNL     1      -2.445   0.161  -1.734  0.00  0.00    +0.292 HD
ENDBRANCH  26  27
ENDBRANCH  15  25
ENDBRANCH   1  16
BRANCH  10  29
ATOM     29  O   UNL     1      -1.252   3.399  -0.516  0.00  0.00    -0.505 OA
ATOM     30  H   UNL     1      -1.774   3.188   0.270  0.00  0.00    +0.292 HD
ENDBRANCH  10  29
TORSDOF 5
