REMARK  Name = ZINC32105055
REMARK  4 active torsions:
REMARK  status: ('A' for Active; 'I' for Inactive)
REMARK    1  A    between atoms: C_6  and  C_7
REMARK    2  A    between atoms: C_9  and  C_12
REMARK    3  A    between atoms: C_12  and  O_13
REMARK    4  A    between atoms: O_13  and  N_14
REMARK                            x       y       z     vdW  Elec       q    Type
REMARK                         _______ _______ _______ _____ _____    ______ ____
ROOT
ATOM      1  C   UNL     1      -1.306   2.115   0.020  0.00  0.00    +0.109 A 
ATOM      2  N   UNL     1      -2.541   1.633   0.018  0.00  0.00    -0.242 NA
ATOM      3  C   UNL     1      -3.583   2.431   0.033  0.00  0.00    +0.077 A 
ATOM      4  C   UNL     1      -3.405   3.778   0.038  0.00  0.00    +0.073 A 
ATOM      5  S   UNL     1      -1.619   3.875   0.030  0.00  0.00    -0.075 S 
ENDROOT
BRANCH   1  11
ATOM      6  C   UNL     1       0.002  -0.004   0.002  0.00  0.00    +0.014 A 
ATOM      7  C   UNL     1       1.206  -0.677  -0.013  0.00  0.00    +0.050 A 
ATOM      8  C   UNL     1       2.400   0.028  -0.020  0.00  0.00    +0.166 A 
ATOM      9  C   UNL     1       2.388   1.422  -0.013  0.00  0.00    +0.167 A 
ATOM     10  C   UNL     1       1.185   2.102   0.002  0.00  0.00    +0.060 A 
ATOM     11  C   UNL     1      -0.017   1.391   0.010  0.00  0.00    +0.011 A 
ATOM     12  O   UNL     1       3.678   1.869  -0.022  0.00  0.00    -0.453 OA
ATOM     13  C   UNL     1       4.478   0.742   0.378  0.00  0.00    +0.466 C 
ATOM     14  O   UNL     1       3.698  -0.396  -0.034  0.00  0.00    -0.453 OA
ENDBRANCH   1  11
BRANCH   3  15
ATOM     15  C   UNL     1      -4.976   1.854   0.036  0.00  0.00    +0.240 C 
BRANCH  15  16
ATOM     16  O   UNL     1      -5.931   2.916   0.046  0.00  0.00    -0.296 OA
BRANCH  16  17
ATOM     17  N   UNL     1      -7.323   2.465   0.050  0.00  0.00    -0.214 NA
ATOM     18  H   UNL     1      -7.992   3.338   0.057  0.00  0.00    +0.150 HD
ATOM     19  H   UNL     1      -7.516   1.863  -0.851  0.00  0.00    +0.150 HD
ENDBRANCH  16  17
ENDBRANCH  15  16
ENDBRANCH   3  15
TORSDOF 4
