REMARK  Name = ZINC65510684
REMARK  9 active torsions:
REMARK  status: ('A' for Active; 'I' for Inactive)
REMARK    1  A    between atoms: C_1  and  C_2
REMARK    2  A    between atoms: N_4  and  C_9
REMARK    3  A    between atoms: C_6  and  C_8
REMARK    4  A    between atoms: C_9  and  C_10
REMARK    5  A    between atoms: C_10  and  C_11
REMARK    6  A    between atoms: C_10  and  O_20
REMARK    7  A    between atoms: C_11  and  N_12
REMARK    8  A    between atoms: C_14  and  C_19
REMARK    9  A    between atoms: C_17  and  C_18
REMARK                            x       y       z     vdW  Elec       q    Type
REMARK                         _______ _______ _______ _____ _____    ______ ____
ROOT
ATOM      1  C   UNL     1       1.367  -4.007  -2.448  0.00  0.00    +0.142 C 
ENDROOT
BRANCH   1   2
ATOM      2  O   UNL     1       1.887  -4.534  -1.226  0.00  0.00    -0.389 OA
ATOM      3  H   UNL     1       2.814  -4.313  -1.065  0.00  0.00    +0.210 HD
ENDBRANCH   1   2
BRANCH   1   4
ATOM      4  C   UNL     1       1.471  -2.481  -2.430  0.00  0.00    +0.117 C 
BRANCH   4   8
ATOM      5  C   UNL     1      -3.002  -1.454  -0.652  0.00  0.00    +0.039 C 
ATOM      6  C   UNL     1      -1.504  -1.489  -0.343  0.00  0.00    +0.130 C 
ATOM      7  C   UNL     1      -0.741  -1.993  -1.571  0.00  0.00    +0.115 C 
ATOM      8  N   UNL     1       0.703  -1.951  -1.295  0.00  0.00    -0.295 NA
ATOM      9  C   UNL     1       1.130  -0.585  -0.962  0.00  0.00    +0.115 C 
ATOM     10  C   UNL     1       0.348  -0.095   0.260  0.00  0.00    +0.130 C 
ATOM     11  O   UNL     1      -1.053  -0.172  -0.015  0.00  0.00    -0.371 OA
ATOM     12  C   UNL     1       0.730   1.355   0.564  0.00  0.00    +0.039 C 
ENDBRANCH   4   8
ENDBRANCH   1   4
BRANCH   1  13
ATOM     13  C   UNL     1       2.174  -4.559  -3.625  0.00  0.00    +0.117 C 
BRANCH  13  14
ATOM     14  N   UNL     1       1.936  -6.004  -3.747  0.00  0.00    -0.293 NA
ATOM     15  C   UNL     1       2.619  -6.742  -2.674  0.00  0.00    +0.116 C 
ATOM     16  C   UNL     1       2.297  -8.233  -2.803  0.00  0.00    +0.129 C 
ATOM     17  O   UNL     1       2.682  -8.688  -4.104  0.00  0.00    -0.374 OA
ATOM     18  C   UNL     1       2.036  -7.991  -5.172  0.00  0.00    +0.178 C 
ATOM     19  C   UNL     1       2.355  -6.497  -5.067  0.00  0.00    +0.079 C 
ATOM     20  C   UNL     1       1.602  -5.736  -6.159  0.00  0.00    +0.026 C 
ATOM     21  C   UNL     1       3.068  -9.017  -1.739  0.00  0.00    +0.039 C 
ENDBRANCH  13  14
ENDBRANCH   1  13
TORSDOF 5
