REMARK  Name = ZINC57530753
REMARK  5 active torsions:
REMARK  status: ('A' for Active; 'I' for Inactive)
REMARK    1  A    between atoms: C_1  and  C_2
REMARK    2  A    between atoms: C_2  and  C_19
REMARK    3  A    between atoms: C_4  and  N_10
REMARK    4  A    between atoms: C_6  and  C_8
REMARK    5  A    between atoms: C_6  and  C_9
REMARK                            x       y       z     vdW  Elec       q    Type
REMARK                         _______ _______ _______ _____ _____    ______ ____
ROOT
ATOM      1  C   UNL     1      -0.019   1.528   0.010  0.00  0.00    -0.010 C 
ATOM      2  C   UNL     1       0.002  -0.004   0.002  0.00  0.00    -0.072 C 
ATOM      3  C   UNL     1       0.573  -0.505  -1.321  0.00  0.00    +0.009 C 
ATOM      4  C   UNL     1       2.088  -0.301  -1.357  0.00  0.00    +0.069 C 
ATOM      5  C   UNL     1       2.703  -1.086  -0.198  0.00  0.00    +0.009 C 
ATOM      6  C   UNL     1       2.147  -0.590   1.133  0.00  0.00    -0.072 C 
ATOM      7  N   UNL     1       0.697  -0.529   1.164  0.00  0.00    +0.386 N 
ATOM      8  C   UNL     1       2.600  -1.589   2.223  0.00  0.00    -0.010 C 
ATOM      9  C   UNL     1       2.769   0.766   1.481  0.00  0.00    -0.010 C 
ATOM     10  C   UNL     1      -1.468  -0.478   0.079  0.00  0.00    -0.010 C 
ATOM     11  H   UNL     1       0.416   0.021   1.982  0.00  0.00    -0.084 HD
ATOM     12  H   UNL     1       0.341  -1.472   1.351  0.00  0.00    -0.084 HD
ENDROOT
BRANCH   4  13
ATOM     13  N   UNL     1       2.616  -0.819  -2.626  0.00  0.00    -0.326 N 
ATOM     14  C   UNL     1       3.803  -0.320  -3.137  0.00  0.00    +0.125 A 
ATOM     15  C   UNL     1       4.509   0.670  -2.452  0.00  0.00    +0.083 A 
ATOM     16  C   UNL     1       5.689   1.137  -3.000  0.00  0.00    +0.136 A 
ATOM     17  N   UNL     1       6.113   0.635  -4.152  0.00  0.00    -0.203 NA
ATOM     18  C   UNL     1       5.421  -0.305  -4.780  0.00  0.00    +0.216 A 
ATOM     19  N   UNL     1       4.289  -0.782  -4.285  0.00  0.00    -0.200 NA
ATOM     20  N   UNL     1       5.897  -0.803  -5.980  0.00  0.00    -0.327 N 
ATOM     21 CL   UNL     1       6.606   2.368  -2.189  0.00  0.00    -0.062 Cl
ATOM     22  H   UNL     1       2.133  -1.510  -3.106  0.00  0.00    +0.148 HD
ATOM     23  H   UNL     1       6.726  -0.465  -6.351  0.00  0.00    +0.145 HD
ATOM     24  H   UNL     1       5.400  -1.491  -6.450  0.00  0.00    +0.145 HD
ENDBRANCH   4  13
TORSDOF 1
