REMARK  Name = ZINC44868332
REMARK  5 active torsions:
REMARK  status: ('A' for Active; 'I' for Inactive)
REMARK    1  A    between atoms: C_1  and  C_2
REMARK    2  A    between atoms: C_4  and  S_8
REMARK    3  A    between atoms: C_5  and  C_7
REMARK    4  A    between atoms: S_8  and  N_11
REMARK    5  A    between atoms: N_11  and  C_12
REMARK                            x       y       z     vdW  Elec       q    Type
REMARK                         _______ _______ _______ _____ _____    ______ ____
ROOT
ATOM      1  S   UNL     1      -2.066  -3.322  -0.023  0.00  0.00    +0.059 S 
ATOM      2  O   UNL     1      -1.756  -4.299   0.961  0.00  0.00    -0.153 OA
ATOM      3  O   UNL     1      -3.213  -2.488   0.067  0.00  0.00    -0.153 OA
ENDROOT
BRANCH   1   7
ATOM      4  C   UNL     1       2.789  -1.624   1.339  0.00  0.00    +0.051 C 
ATOM      5  C   UNL     1       1.488  -1.612   0.579  0.00  0.00    -0.011 A 
ATOM      6  C   UNL     1       0.431  -2.455   0.683  0.00  0.00    +0.039 A 
ATOM      7  C   UNL     1      -0.671  -2.250  -0.125  0.00  0.00    +0.115 A 
ATOM      8  C   UNL     1      -0.663  -1.213  -0.998  0.00  0.00    +0.013 A 
ATOM      9  S   UNL     1       0.935  -0.481  -0.686  0.00  0.00    -0.097 S 
ATOM     10  C   UNL     1      -1.729  -0.785  -1.973  0.00  0.00    +0.053 C 
ENDBRANCH   1   7
BRANCH   1  11
ATOM     11  N   UNL     1      -2.175  -4.123  -1.468  0.00  0.00    -0.185 NA
ATOM     12  H   UNL     1      -2.937  -3.972  -2.050  0.00  0.00    +0.148 HD
BRANCH  11  13
ATOM     13  C   UNL     1      -1.121  -5.059  -1.868  0.00  0.00    +0.099 C 
ATOM     14  C   UNL     1      -0.133  -4.355  -2.813  0.00  0.00    +0.044 C 
ATOM     15  C   UNL     1       0.787  -5.401  -3.488  0.00  0.00    +0.167 C 
ATOM     16  S   UNL     1      -0.267  -6.908  -3.515  0.00  0.00    -0.029 S 
ATOM     17  O   UNL     1       0.344  -7.914  -2.719  0.00  0.00    -0.174 OA
ATOM     18  O   UNL     1      -0.622  -7.200  -4.860  0.00  0.00    -0.174 OA
ATOM     19  C   UNL     1      -1.748  -6.260  -2.631  0.00  0.00    +0.186 C 
ENDBRANCH  11  13
ENDBRANCH   1  11
TORSDOF 3
