REMARK  Name = ZINC62033007
REMARK  4 active torsions:
REMARK  status: ('A' for Active; 'I' for Inactive)
REMARK    1  A    between atoms: N_4  and  C_6
REMARK    2  A    between atoms: C_6  and  C_7
REMARK    3  A    between atoms: N_10  and  C_13
REMARK    4  A    between atoms: C_13  and  C_19
REMARK                            x       y       z     vdW  Elec       q    Type
REMARK                         _______ _______ _______ _____ _____    ______ ____
ROOT
ATOM      1  C   UNL     1       0.842  -2.902   0.249  0.00  0.00    -0.031 C 
ATOM      2  C   UNL     1       1.330  -3.038  -1.196  0.00  0.00    -0.017 C 
ATOM      3  C   UNL     1       0.700  -4.281  -1.827  0.00  0.00    -0.077 C 
ATOM      4  N   UNL     1       1.091  -5.473  -1.064  0.00  0.00    +0.391 N 
ATOM      5  C   UNL     1       0.565  -5.383   0.303  0.00  0.00    -0.077 C 
ATOM      6  C   UNL     1       1.190  -4.181   1.016  0.00  0.00    -0.017 C 
ATOM      7  H   UNL     1       2.098  -5.535  -1.033  0.00  0.00    -0.080 HD
ENDROOT
BRANCH   4   8
ATOM      8  C   UNL     1       0.549  -6.671  -1.718  0.00  0.00    +0.042 C 
ATOM      9  C   UNL     1       0.821  -7.899  -0.844  0.00  0.00    +0.027 C 
ATOM     10  C   UNL     1       0.185  -9.130  -1.495  0.00  0.00    +0.159 C 
ATOM     11  O   UNL     1      -1.216  -8.906  -1.666  0.00  0.00    -0.380 OA
ATOM     12  C   UNL     1      -1.531  -7.799  -2.512  0.00  0.00    +0.159 C 
ATOM     13  C   UNL     1      -0.963  -6.514  -1.903  0.00  0.00    +0.027 C 
BRANCH   8  14
ATOM     14  C   UNL     1       1.205  -6.852  -3.063  0.00  0.00    +0.346 C 
ATOM     15  O   UNL     1       2.120  -6.119  -3.398  0.00  0.00    -0.248 OA
ATOM     16  O   UNL     1       0.820  -7.731  -3.816  0.00  0.00    -0.248 OA
ENDBRANCH   8  14
ENDBRANCH   4   8
BRANCH   1  17
ATOM     17  C   UNL     1       1.528  -1.706   0.911  0.00  0.00    -0.076 C 
BRANCH  17  21
ATOM     18  C   UNL     1      -0.485   1.325   0.658  0.00  0.00    -0.020 C 
ATOM     19  C   UNL     1       0.936   1.897   0.453  0.00  0.00    -0.020 C 
ATOM     20  C   UNL     1       1.847   0.693   0.798  0.00  0.00    -0.079 C 
ATOM     21  N   UNL     1       1.100  -0.467   0.248  0.00  0.00    +0.380 N 
ATOM     22  C   UNL     1      -0.326  -0.202   0.537  0.00  0.00    -0.079 C 
ATOM     23  H   UNL     1       1.246  -0.535  -0.748  0.00  0.00    -0.082 HD
ENDBRANCH  17  21
ENDBRANCH   1  17
TORSDOF 4
