REMARK  Name = ZINC51216173
REMARK  10 active torsions:
REMARK  status: ('A' for Active; 'I' for Inactive)
REMARK    1  A    between atoms: C_1  and  C_2
REMARK    2  A    between atoms: C_2  and  C_3
REMARK    3  A    between atoms: C_2  and  C_4
REMARK    4  A    between atoms: C_2  and  N_5
REMARK    5  A    between atoms: N_5  and  C_6
REMARK    6  A    between atoms: C_6  and  C_7
REMARK    7  A    between atoms: C_7  and  C_13
REMARK    8  A    between atoms: C_13  and  N_14
REMARK    9  A    between atoms: N_14  and  C_15
REMARK   10  A    between atoms: N_14  and  C_16
REMARK                            x       y       z     vdW  Elec       q    Type
REMARK                         _______ _______ _______ _____ _____    ______ ____
ROOT
ATOM      1  C   UNL     1       2.866  -0.483  -2.820  0.00  0.00    -0.059 C 
ATOM      2  C   UNL     1       3.003  -2.004  -2.717  0.00  0.00    +0.003 C 
ATOM      3  C   UNL     1       4.029  -2.494  -3.740  0.00  0.00    +0.000 C 
ATOM      4  C   UNL     1       3.564  -2.118  -5.149  0.00  0.00    +0.000 C 
ATOM      5  C   UNL     1       3.428  -0.598  -5.252  0.00  0.00    +0.000 C 
ATOM      6  C   UNL     1       2.402  -0.107  -4.228  0.00  0.00    +0.003 C 
ENDROOT
BRANCH   1   7
ATOM      7  C   UNL     1       1.840   0.007  -1.797  0.00  0.00    -0.077 C 
BRANCH   7   8
ATOM      8  N   UNL     1       0.584  -0.735  -1.969  0.00  0.00    +0.383 N 
ATOM      9  H   UNL     1       0.753  -1.720  -1.830  0.00  0.00    -0.085 HD
ATOM     10  H   UNL     1       0.229  -0.583  -2.901  0.00  0.00    -0.085 HD
BRANCH   8  12
ATOM     11  C   UNL     1      -0.658   1.230  -1.197  0.00  0.00    -0.011 C 
ATOM     12  C   UNL     1      -0.402  -0.264  -0.986  0.00  0.00    -0.077 C 
ATOM     13  C   UNL     1       0.137  -0.494   0.427  0.00  0.00    -0.011 C 
ATOM     14  C   UNL     1      -1.710  -1.036  -1.165  0.00  0.00    -0.011 C 
ENDBRANCH   8  12
ENDBRANCH   7   8
ENDBRANCH   1   7
BRANCH   1  15
ATOM     15  C   UNL     1       4.221   0.170  -2.538  0.00  0.00    -0.074 C 
BRANCH  15  16
ATOM     16  N   UNL     1       4.057   1.629  -2.479  0.00  0.00    +0.381 N 
ATOM     17  C   UNL     1       3.641   2.021  -1.126  0.00  0.00    -0.096 C 
ATOM     18  H   UNL     1       3.354   1.916  -3.144  0.00  0.00    -0.082 HD
BRANCH  16  19
ATOM     19  C   UNL     1       5.334   2.278  -2.806  0.00  0.00    -0.058 C 
ATOM     20  C   UNL     1       5.161   3.791  -2.677  0.00  0.00    -0.004 C 
ATOM     21  C   UNL     1       6.142   4.529  -3.631  0.00  0.00    +0.067 C 
ATOM     22  S   UNL     1       6.033   3.419  -5.103  0.00  0.00    -0.162 S 
ATOM     23  C   UNL     1       5.769   1.831  -4.216  0.00  0.00    +0.054 C 
ENDBRANCH  16  19
ENDBRANCH  15  16
ENDBRANCH   1  15
TORSDOF 6
