REMARK  Name = ZINC56853105
REMARK  7 active torsions:
REMARK  status: ('A' for Active; 'I' for Inactive)
REMARK    1  A    between atoms: C_1  and  C_2
REMARK    2  A    between atoms: C_7  and  C_8
REMARK    3  A    between atoms: N_10  and  N_11
REMARK    4  A    between atoms: N_14  and  C_15
REMARK    5  A    between atoms: C_15  and  C_17
REMARK    6  A    between atoms: C_15  and  C_18
REMARK    7  A    between atoms: C_23  and  C_24
REMARK                            x       y       z     vdW  Elec       q    Type
REMARK                         _______ _______ _______ _____ _____    ______ ____
ROOT
ATOM      1  N   UNL     1       0.137   0.174   5.627  0.00  0.00    -0.218 N 
ATOM      2  C   UNL     1       0.504  -0.577   6.684  0.00  0.00    +0.316 C 
ATOM      3  O   UNL     1       0.531  -0.089   7.797  0.00  0.00    -0.251 OA
ATOM      4  N   UNL     1       0.840  -1.870   6.507  0.00  0.00    -0.292 N 
ATOM      5  H   UNL     1      -0.105   1.105   5.754  0.00  0.00    +0.174 HD
ATOM      6  H   UNL     1       0.818  -2.260   5.619  0.00  0.00    +0.151 HD
ENDROOT
BRANCH   1   9
ATOM      7  C   UNL     1      -0.262   0.363   3.288  0.00  0.00    +0.260 C 
ATOM      8  O   UNL     1      -0.565   1.529   3.447  0.00  0.00    -0.269 OA
ATOM      9  N   UNL     1       0.105  -0.389   4.345  0.00  0.00    -0.229 N 
ATOM     10  H   UNL     1       0.347  -1.319   4.217  0.00  0.00    +0.173 HD
BRANCH   7  17
ATOM     11  C   UNL     1      -1.310   1.903   1.074  0.00  0.00    +0.044 C 
ATOM     12  C   UNL     1      -0.798   0.502   0.859  0.00  0.00    -0.038 A 
ATOM     13  C   UNL     1      -0.822  -0.056  -0.403  0.00  0.00    +0.004 A 
ATOM     14  C   UNL     1      -0.352  -1.342  -0.602  0.00  0.00    +0.000 A 
ATOM     15  C   UNL     1       0.144  -2.077   0.461  0.00  0.00    +0.001 A 
ATOM     16  C   UNL     1       0.172  -1.530   1.727  0.00  0.00    +0.013 A 
ATOM     17  C   UNL     1      -0.295  -0.232   1.934  0.00  0.00    +0.041 A 
ENDBRANCH   7  17
ENDBRANCH   1   9
BRANCH   4  18
ATOM     18  C   UNL     1       1.239  -2.687   7.656  0.00  0.00    +0.102 C 
ATOM     19  C   UNL     1      -0.009  -3.146   8.414  0.00  0.00    +0.033 C 
BRANCH  18  20
ATOM     20  C   UNL     1       2.005  -3.892   7.174  0.00  0.00    -0.016 A 
ATOM     21  C   UNL     1       1.389  -5.130   7.128  0.00  0.00    +0.006 A 
ATOM     22  C   UNL     1       2.092  -6.235   6.686  0.00  0.00    +0.000 A 
ATOM     23  C   UNL     1       3.410  -6.103   6.290  0.00  0.00    +0.001 A 
ATOM     24  C   UNL     1       4.024  -4.866   6.335  0.00  0.00    +0.013 A 
ATOM     25  C   UNL     1       3.320  -3.760   6.773  0.00  0.00    +0.060 A 
BRANCH  25  26
ATOM     26  C   UNL     1       3.989  -2.410   6.817  0.00  0.00    +0.418 C 
ATOM     27  F   UNL     1       5.340  -2.547   6.481  0.00  0.00    -0.166 F 
ATOM     28  F   UNL     1       3.367  -1.551   5.904  0.00  0.00    -0.166 F 
ATOM     29  F   UNL     1       3.881  -1.877   8.106  0.00  0.00    -0.166 F 
ENDBRANCH  25  26
ENDBRANCH  18  20
ENDBRANCH   4  18
TORSDOF 5
