REMARK  Name = ZINC43116331
REMARK  6 active torsions:
REMARK  status: ('A' for Active; 'I' for Inactive)
REMARK    1  A    between atoms: C_1  and  C_2
REMARK    2  A    between atoms: C_2  and  C_3
REMARK    3  A    between atoms: C_3  and  C_5
REMARK    4  A    between atoms: C_3  and  N_23
REMARK    5  A    between atoms: C_5  and  C_7
REMARK    6  A    between atoms: C_5  and  N_12
REMARK                            x       y       z     vdW  Elec       q    Type
REMARK                         _______ _______ _______ _____ _____    ______ ____
ROOT
ATOM      1  C   UNL     1      -1.423  -2.042  -0.246  0.00  0.00    +0.090 C 
ENDROOT
BRANCH   1   2
ATOM      2  N   UNL     1      -1.039  -2.570  -1.557  0.00  0.00    -0.314 N 
ATOM      3  C   UNL     1      -0.807  -1.672  -2.699  0.00  0.00    +0.201 C 
ATOM      4  C   UNL     1      -1.426  -2.276  -3.933  0.00  0.00    +0.235 C 
ATOM      5  O   UNL     1      -1.826  -1.550  -4.819  0.00  0.00    -0.274 OA
ATOM      6  N   UNL     1      -1.541  -3.611  -4.064  0.00  0.00    -0.283 N 
ATOM      7  C   UNL     1      -1.133  -4.468  -3.035  0.00  0.00    +0.055 A 
ATOM      8  C   UNL     1      -0.876  -3.947  -1.763  0.00  0.00    +0.052 A 
ATOM      9  C   UNL     1      -0.473  -4.780  -0.735  0.00  0.00    +0.025 A 
ATOM     10  C   UNL     1      -0.317  -6.135  -0.970  0.00  0.00    +0.002 A 
ATOM     11  C   UNL     1      -0.562  -6.654  -2.228  0.00  0.00    +0.002 A 
ATOM     12  C   UNL     1      -0.977  -5.825  -3.264  0.00  0.00    +0.025 A 
ATOM     13  H   UNL     1      -1.910  -3.983  -4.881  0.00  0.00    +0.155 HD
ENDBRANCH   1   2
BRANCH   1  14
ATOM     14  C   UNL     1      -2.840  -2.449   0.065  0.00  0.00    -0.022 A 
ATOM     15  C   UNL     1      -3.192  -2.841   1.343  0.00  0.00    +0.013 A 
ATOM     16  C   UNL     1      -4.476  -3.202   1.589  0.00  0.00    +0.045 A 
ATOM     17  S   UNL     1      -5.232  -2.991  -0.014  0.00  0.00    -0.105 S 
ATOM     18  C   UNL     1      -3.789  -2.431  -0.903  0.00  0.00    +0.050 A 
ENDBRANCH   1  14
BRANCH   1  19
ATOM     19  C   UNL     1      -1.323  -0.515  -0.262  0.00  0.00    -0.050 C 
BRANCH  19  20
ATOM     20  N   UNL     1      -1.879   0.025   0.986  0.00  0.00    +0.381 N 
ATOM     21  H   UNL     1      -2.847  -0.247   1.068  0.00  0.00    -0.090 HD
ATOM     22  H   UNL     1      -1.359  -0.337   1.771  0.00  0.00    -0.090 HD
ATOM     23  H   UNL     1      -1.813   1.032   0.975  0.00  0.00    -0.090 HD
ENDBRANCH  19  20
BRANCH  19  25
ATOM     24  C   UNL     1       0.234   1.417  -0.553  0.00  0.00    +0.002 C 
ATOM     25  C   UNL     1       0.145  -0.101  -0.387  0.00  0.00    -0.018 C 
ENDBRANCH  19  25
ENDBRANCH   1  19
TORSDOF 5
