REMARK  Name = ZINC00573801
REMARK  3 active torsions:
REMARK  status: ('A' for Active; 'I' for Inactive)
REMARK    1  A    between atoms: C_1  and  C_2
REMARK    2  A    between atoms: C_7  and  C_8
REMARK    3  A    between atoms: C_11  and  C_13
REMARK                            x       y       z     vdW  Elec       q    Type
REMARK                         _______ _______ _______ _____ _____    ______ ____
ROOT
ATOM      1  C   UNL     1       4.812   3.291   0.205  0.00  0.00    +0.136 A 
ATOM      2  C   UNL     1       4.951   4.649   0.274  0.00  0.00    +0.050 A 
ATOM      3  C   UNL     1       3.668   5.198   0.204  0.00  0.00    +0.050 A 
ATOM      4  C   UNL     1       2.785   4.137   0.103  0.00  0.00    +0.131 A 
ATOM      5  O   UNL     1       3.504   2.995   0.102  0.00  0.00    -0.455 OA
ENDROOT
BRANCH   4   6
ATOM      6  C   UNL     1       1.380   4.233   0.010  0.00  0.00    +0.074 C 
ATOM      7  C   UNL     1       0.617   3.103   0.026  0.00  0.00    +0.101 C 
ATOM      8  C   UNL     1       1.060   1.773   0.264  0.00  0.00    +0.266 C 
ATOM      9  O   UNL     1       2.203   1.421   0.495  0.00  0.00    -0.268 OA
ATOM     10  N   UNL     1      -0.023   0.976   0.186  0.00  0.00    -0.235 N 
ATOM     11  C   UNL     1      -1.109   1.717  -0.090  0.00  0.00    +0.311 C 
ATOM     12  O   UNL     1      -2.236   1.281  -0.226  0.00  0.00    -0.252 OA
ATOM     13  N   UNL     1      -0.765   3.015  -0.190  0.00  0.00    -0.265 N 
ATOM     14  H   UNL     1      -0.019   0.013   0.306  0.00  0.00    +0.159 HD
ATOM     15  H   UNL     1      -1.363   3.754  -0.380  0.00  0.00    +0.157 HD
ENDBRANCH   4   6
BRANCH   1  22
ATOM     16  C   UNL     1       4.680   1.052   2.033  0.00  0.00    +0.044 C 
ATOM     17  C   UNL     1       5.864   1.226   1.117  0.00  0.00    -0.040 A 
ATOM     18  C   UNL     1       6.898   0.314   1.144  0.00  0.00    +0.005 A 
ATOM     19  C   UNL     1       7.986   0.471   0.303  0.00  0.00    +0.020 A 
ATOM     20  C   UNL     1       8.045   1.545  -0.570  0.00  0.00    +0.042 A 
ATOM     21  C   UNL     1       7.014   2.462  -0.611  0.00  0.00    +0.031 A 
ATOM     22  C   UNL     1       5.916   2.311   0.239  0.00  0.00    +0.022 A 
ATOM     23 CL   UNL     1       9.414   1.733  -1.620  0.00  0.00    -0.084 Cl
ENDBRANCH   1  22
TORSDOF 2
