REMARK  Name = ZINC53880932
REMARK  12 active torsions:
REMARK  status: ('A' for Active; 'I' for Inactive)
REMARK    1  A    between atoms: C_1  and  C_2
REMARK    2  A    between atoms: C_2  and  C_3
REMARK    3  A    between atoms: C_3  and  C_4
REMARK    4  A    between atoms: C_4  and  N_5
REMARK    5  A    between atoms: N_5  and  C_6
REMARK    6  A    between atoms: N_5  and  C_18
REMARK    7  A    between atoms: C_6  and  C_7
REMARK    8  A    between atoms: C_10  and  C_17
REMARK    9  A    between atoms: C_14  and  N_16
REMARK   10  A    between atoms: C_18  and  C_20
REMARK   11  A    between atoms: C_18  and  C_21
REMARK   12  A    between atoms: C_21  and  C_22
REMARK                            x       y       z     vdW  Elec       q    Type
REMARK                         _______ _______ _______ _____ _____    ______ ____
ROOT
ATOM      1  C   UNL     1      -2.774  -4.071   0.609  0.00  0.00    -0.077 C 
ENDROOT
BRANCH   1   2
ATOM      2  C   UNL     1      -2.430  -4.232   2.091  0.00  0.00    -0.042 C 
ATOM      3  C   UNL     1      -3.640  -3.839   2.942  0.00  0.00    +0.003 C 
ATOM      4  C   UNL     1      -3.296  -4.000   4.424  0.00  0.00    -0.014 C 
ATOM      5  C   UNL     1      -2.927  -5.457   4.706  0.00  0.00    +0.002 C 
ATOM      6  C   UNL     1      -1.717  -5.851   3.856  0.00  0.00    -0.016 C 
ATOM      7  C   UNL     1      -2.061  -5.690   2.374  0.00  0.00    -0.074 C 
ATOM      8  C   UNL     1      -2.111  -3.097   4.773  0.00  0.00    +0.007 C 
BRANCH   7   9
ATOM      9  N   UNL     1      -0.899  -6.068   1.558  0.00  0.00    +0.380 N 
ATOM     10  H   UNL     1      -0.118  -5.472   1.788  0.00  0.00    -0.090 HD
ATOM     11  H   UNL     1      -0.656  -7.029   1.744  0.00  0.00    -0.090 HD
ATOM     12  H   UNL     1      -1.126  -5.962   0.580  0.00  0.00    -0.090 HD
ENDBRANCH   7   9
ENDBRANCH   1   2
BRANCH   1  13
ATOM     13  N   UNL     1      -3.040  -2.656   0.319  0.00  0.00    +0.382 N 
ATOM     14  H   UNL     1      -3.746  -2.310   0.953  0.00  0.00    -0.081 HD
BRANCH  13  15
ATOM     15  C   UNL     1      -3.515  -2.520  -1.064  0.00  0.00    -0.072 C 
ATOM     16  C   UNL     1      -2.516  -3.184  -2.014  0.00  0.00    -0.013 C 
BRANCH  15  17
ATOM     17  C   UNL     1      -4.880  -3.199  -1.204  0.00  0.00    -0.019 C 
ATOM     18  C   UNL     1      -5.902  -2.473  -0.326  0.00  0.00    +0.002 C 
ENDBRANCH  15  17
ENDBRANCH  13  15
BRANCH  13  19
ATOM     19  C   UNL     1      -1.805  -1.880   0.491  0.00  0.00    -0.078 C 
BRANCH  19  20
ATOM     20  C   UNL     1      -2.106  -0.392   0.301  0.00  0.00    -0.019 C 
BRANCH  20  22
ATOM     21  C   UNL     1      -1.153   1.914   0.422  0.00  0.00    +0.004 C 
ATOM     22  C   UNL     1      -0.852   0.426   0.612  0.00  0.00    -0.005 C 
ENDBRANCH  20  22
ENDBRANCH  19  20
ENDBRANCH  13  19
ENDBRANCH   1  13
TORSDOF 8
