REMARK  Name = ZINC62848330
REMARK  7 active torsions:
REMARK  status: ('A' for Active; 'I' for Inactive)
REMARK    1  A    between atoms: C_1  and  C_2
REMARK    2  A    between atoms: C_2  and  C_3
REMARK    3  A    between atoms: C_3  and  C_4
REMARK    4  A    between atoms: C_4  and  C_10
REMARK    5  A    between atoms: C_16  and  C_18
REMARK    6  A    between atoms: N_20  and  C_21
REMARK    7  A    between atoms: N_20  and  C_22
REMARK                            x       y       z     vdW  Elec       q    Type
REMARK                         _______ _______ _______ _____ _____    ______ ____
ROOT
ATOM      1  C   UNL     1      -0.639  -2.446  -1.353  0.00  0.00    +0.222 C 
ATOM      2  O   UNL     1       0.288  -3.223  -1.265  0.00  0.00    -0.275 OA
ATOM      3  N   UNL     1      -0.980  -1.937  -2.553  0.00  0.00    -0.289 N 
ATOM      4  C   UNL     1      -2.144  -1.073  -2.821  0.00  0.00    +0.108 C 
ATOM      5  C   UNL     1      -1.766  -0.284  -4.099  0.00  0.00    +0.021 C 
ATOM      6  C   UNL     1      -0.992  -1.357  -4.910  0.00  0.00    +0.033 C 
ATOM      7  C   UNL     1      -0.250  -2.148  -3.812  0.00  0.00    +0.162 C 
ENDROOT
BRANCH   1   8
ATOM      8  C   UNL     1      -1.409  -2.050  -0.120  0.00  0.00    +0.044 C 
ATOM      9  C   UNL     1      -0.930  -2.880   1.075  0.00  0.00    -0.003 C 
ATOM     10  C   UNL     1      -1.228  -4.358   0.815  0.00  0.00    -0.082 C 
ATOM     11  N   UNL     1      -2.672  -4.545   0.636  0.00  0.00    +0.379 N 
ATOM     12  C   UNL     1      -3.127  -3.810  -0.550  0.00  0.00    -0.082 C 
ATOM     13  C   UNL     1      -2.902  -2.311  -0.343  0.00  0.00    -0.003 C 
ATOM     14  H   UNL     1      -2.871  -5.527   0.518  0.00  0.00    -0.086 HD
ATOM     15  H   UNL     1      -3.159  -4.201   1.450  0.00  0.00    -0.086 HD
BRANCH   8  16
ATOM     16  C   UNL     1      -1.187  -0.564   0.167  0.00  0.00    +0.016 C 
BRANCH  16  18
ATOM     17  C   UNL     1       0.533   1.173   0.685  0.00  0.00    +0.004 C 
ATOM     18  C   UNL     1       0.282  -0.328   0.526  0.00  0.00    -0.002 C 
ENDBRANCH  16  18
ENDBRANCH   8  16
ENDBRANCH   1   8
BRANCH   7  19
ATOM     19  C   UNL     1       1.162  -1.639  -3.676  0.00  0.00    +0.236 C 
ATOM     20  O   UNL     1       1.532  -1.146  -2.631  0.00  0.00    -0.274 OA
ATOM     21  N   UNL     1       2.015  -1.731  -4.716  0.00  0.00    -0.306 N 
ATOM     22  C   UNL     1       3.387  -1.236  -4.584  0.00  0.00    +0.131 C 
ATOM     23  C   UNL     1       1.568  -2.326  -5.978  0.00  0.00    +0.131 C 
ENDBRANCH   7  19
TORSDOF 4
