REMARK  Name = ZINC48623834
REMARK  4 active torsions:
REMARK  status: ('A' for Active; 'I' for Inactive)
REMARK    1  A    between atoms: C_1  and  N_2
REMARK    2  A    between atoms: N_2  and  C_3
REMARK    3  A    between atoms: C_3  and  C_5
REMARK    4  A    between atoms: C_3  and  C_19
REMARK                            x       y       z     vdW  Elec       q    Type
REMARK                         _______ _______ _______ _____ _____    ______ ____
ROOT
ATOM      1  C   UNL     1      -1.354  -2.101   0.226  0.00  0.00    -0.060 A 
ATOM      2  C   UNL     1      -0.409  -2.920  -0.373  0.00  0.00    +0.004 A 
ATOM      3  C   UNL     1      -0.415  -4.279  -0.147  0.00  0.00    +0.026 A 
ATOM      4  C   UNL     1      -1.375  -4.842   0.688  0.00  0.00    +0.047 A 
ATOM      5  C   UNL     1      -2.331  -4.013   1.293  0.00  0.00    +0.008 A 
ATOM      6  C   UNL     1      -2.310  -2.640   1.060  0.00  0.00    +0.012 A 
ATOM      7  C   UNL     1      -3.194  -4.891   2.104  0.00  0.00    +0.007 A 
ATOM      8  C   UNL     1      -4.298  -4.662   2.921  0.00  0.00    +0.010 A 
ATOM      9  C   UNL     1      -4.906  -5.718   3.563  0.00  0.00    +0.001 A 
ATOM     10  C   UNL     1      -4.423  -7.007   3.399  0.00  0.00    +0.002 A 
ATOM     11  C   UNL     1      -3.331  -7.249   2.594  0.00  0.00    +0.026 A 
ATOM     12  C   UNL     1      -2.704  -6.195   1.936  0.00  0.00    +0.047 A 
ATOM     13  N   UNL     1      -1.614  -6.146   1.085  0.00  0.00    -0.354 N 
ATOM     14  H   UNL     1      -1.093  -6.915   0.806  0.00  0.00    +0.166 HD
ENDROOT
BRANCH   1  15
ATOM     15  C   UNL     1      -1.333  -0.616  -0.032  0.00  0.00    -0.036 C 
BRANCH  15  16
ATOM     16  C   UNL     1      -1.995  -0.323  -1.379  0.00  0.00    +0.007 C 
ATOM     17  C   UNL     1      -2.065   1.204  -1.627  0.00  0.00    +0.032 C 
ATOM     18  C   UNL     1      -3.472   1.366  -2.256  0.00  0.00    +0.160 C 
ATOM     19  O   UNL     1      -4.276   0.406  -1.536  0.00  0.00    -0.380 OA
ATOM     20  C   UNL     1      -3.468  -0.774  -1.366  0.00  0.00    +0.162 C 
ENDBRANCH  15  16
BRANCH  15  22
ATOM     21  C   UNL     1       0.652  -0.300   1.279  0.00  0.00    -0.100 C 
ATOM     22  N   UNL     1       0.058  -0.144  -0.056  0.00  0.00    +0.382 N 
ATOM     23  H   UNL     1       0.077   0.830  -0.321  0.00  0.00    -0.085 HD
ATOM     24  H   UNL     1       0.585  -0.685  -0.724  0.00  0.00    -0.085 HD
ENDBRANCH  15  22
ENDBRANCH   1  15
TORSDOF 3
