REMARK  Name = ZINC55340698
REMARK  9 active torsions:
REMARK  status: ('A' for Active; 'I' for Inactive)
REMARK    1  A    between atoms: C_1  and  C_2
REMARK    2  A    between atoms: C_2  and  C_3
REMARK    3  A    between atoms: N_10  and  C_11
REMARK    4  A    between atoms: C_11  and  C_12
REMARK    5  A    between atoms: N_19  and  C_23
REMARK    6  A    between atoms: C_23  and  C_24
REMARK    7  A    between atoms: C_27  and  C_30
REMARK    8  A    between atoms: C_30  and  O_32
REMARK    9  A    between atoms: O_32  and  C_33
REMARK                            x       y       z     vdW  Elec       q    Type
REMARK                         _______ _______ _______ _____ _____    ______ ____
ROOT
ATOM      1  C   UNL     1      -3.003   1.632   2.422  0.00  0.00    -0.063 A 
ATOM      2  C   UNL     1      -4.368   1.597   2.641  0.00  0.00    +0.005 A 
ATOM      3  C   UNL     1      -4.888   2.001   3.856  0.00  0.00    +0.046 A 
ATOM      4  C   UNL     1      -4.034   2.439   4.858  0.00  0.00    +0.125 A 
ATOM      5  C   UNL     1      -2.669   2.457   4.640  0.00  0.00    +0.008 A 
ATOM      6  C   UNL     1      -2.150   2.060   3.425  0.00  0.00    +0.010 A 
ATOM      7  C   UNL     1      -1.742   2.884   5.761  0.00  0.00    +0.123 C 
ATOM      8  N   UNL     1      -1.934   4.317   6.014  0.00  0.00    -0.291 NA
ATOM      9  C   UNL     1      -3.056   4.582   6.911  0.00  0.00    +0.126 C 
ATOM     10  C   UNL     1      -4.406   4.269   6.302  0.00  0.00    +0.244 C 
ATOM     11  O   UNL     1      -4.536   2.865   6.049  0.00  0.00    -0.490 OA
ENDROOT
BRANCH   1  12
ATOM     12  C   UNL     1      -2.443   1.199   1.092  0.00  0.00    -0.042 C 
BRANCH  12  19
ATOM     13  C   UNL     1      -1.478  -0.638  -0.113  0.00  0.00    +0.019 C 
ATOM     14  C   UNL     1      -1.367  -2.135  -0.182  0.00  0.00    +0.199 C 
ATOM     15  O   UNL     1      -0.560  -2.623  -0.945  0.00  0.00    -0.278 OA
ATOM     16  N   UNL     1      -2.120  -2.950   0.564  0.00  0.00    -0.318 N 
ATOM     17  C   UNL     1      -3.097  -2.455   1.530  0.00  0.00    +0.085 C 
ATOM     18  C   UNL     1      -3.420  -0.988   1.239  0.00  0.00    -0.058 C 
ATOM     19  N   UNL     1      -2.158  -0.242   1.127  0.00  0.00    +0.391 N 
ATOM     20  H   UNL     1      -2.013  -3.909   0.459  0.00  0.00    +0.149 HD
ATOM     21  H   UNL     1      -1.567  -0.452   1.918  0.00  0.00    -0.080 HD
BRANCH  13  23
ATOM     22  C   UNL     1       0.731  -0.537   1.051  0.00  0.00    +0.002 C 
ATOM     23  C   UNL     1      -0.077  -0.023  -0.142  0.00  0.00    -0.010 C 
ENDBRANCH  13  23
ENDBRANCH  12  19
ENDBRANCH   1  12
BRANCH   8  24
ATOM     24  C   UNL     1      -0.700   4.933   6.518  0.00  0.00    +0.120 C 
BRANCH  24  25
ATOM     25  C   UNL     1      -0.856   6.432   6.533  0.00  0.00    -0.033 A 
ATOM     26  C   UNL     1      -0.503   7.172   5.418  0.00  0.00    +0.006 A 
ATOM     27  C   UNL     1      -0.644   8.544   5.425  0.00  0.00    +0.015 A 
ATOM     28  C   UNL     1      -1.143   9.186   6.560  0.00  0.00    +0.059 A 
ATOM     29  C   UNL     1      -1.498   8.433   7.681  0.00  0.00    +0.015 A 
ATOM     30  C   UNL     1      -1.357   7.061   7.659  0.00  0.00    +0.006 A 
BRANCH  28  31
ATOM     31  C   UNL     1      -1.296  10.655   6.575  0.00  0.00    +0.339 C 
ATOM     32  O   UNL     1      -0.987  11.308   5.598  0.00  0.00    -0.245 OA
BRANCH  31  33
ATOM     33  O   UNL     1      -1.778  11.271   7.671  0.00  0.00    -0.464 OA
ATOM     34  C   UNL     1      -1.900  12.694   7.615  0.00  0.00    +0.280 C 
ENDBRANCH  31  33
ENDBRANCH  28  31
ENDBRANCH  24  25
ENDBRANCH   8  24
TORSDOF 7
