REMARK  Name = ZINC40808979
REMARK  8 active torsions:
REMARK  status: ('A' for Active; 'I' for Inactive)
REMARK    1  A    between atoms: C_1  and  N_2
REMARK    2  A    between atoms: N_5  and  C_8
REMARK    3  A    between atoms: C_8  and  C_9
REMARK    4  A    between atoms: C_9  and  C_10
REMARK    5  A    between atoms: C_10  and  N_11
REMARK    6  A    between atoms: C_12  and  C_14
REMARK    7  A    between atoms: C_17  and  O_21
REMARK    8  A    between atoms: O_21  and  C_22
REMARK                            x       y       z     vdW  Elec       q    Type
REMARK                         _______ _______ _______ _____ _____    ______ ____
ROOT
ATOM      1  N   UNL     1       0.430  -6.471   3.876  0.00  0.00    -0.317 N 
ATOM      2  C   UNL     1       0.517  -7.790   4.140  0.00  0.00    +0.199 C 
ATOM      3  O   UNL     1       0.162  -8.599   3.309  0.00  0.00    -0.278 OA
ATOM      4  H   UNL     1       0.713  -5.824   4.540  0.00  0.00    +0.149 HD
ENDROOT
BRANCH   2   5
ATOM      5  C   UNL     1       1.055  -8.259   5.467  0.00  0.00    +0.018 C 
ATOM      6  C   UNL     1      -0.050  -8.205   6.545  0.00  0.00    +0.023 C 
ATOM      7  C   UNL     1       0.191  -9.448   7.426  0.00  0.00    +0.100 C 
ATOM      8  C   UNL     1       1.420 -10.148   6.808  0.00  0.00    -0.050 C 
ATOM      9  N   UNL     1       1.440  -9.691   5.393  0.00  0.00    +0.388 N 
ATOM     10  H   UNL     1       0.768 -10.210   4.846  0.00  0.00    -0.085 HD
ATOM     11  H   UNL     1       2.365  -9.788   5.002  0.00  0.00    -0.085 HD
BRANCH   7  12
ATOM     12  O   UNL     1       0.466  -9.055   8.773  0.00  0.00    -0.382 OA
ATOM     13  C   UNL     1       0.048 -10.007   9.753  0.00  0.00    +0.194 C 
ENDBRANCH   7  12
ENDBRANCH   2   5
BRANCH   1  14
ATOM     14  C   UNL     1      -0.093  -6.015   2.586  0.00  0.00    +0.105 C 
BRANCH  14  15
ATOM     15  C   UNL     1      -0.086  -4.485   2.544  0.00  0.00    +0.034 C 
BRANCH  15  16
ATOM     16  C   UNL     1      -0.632  -4.009   1.196  0.00  0.00    +0.086 C 
BRANCH  16  21
ATOM     17  C   UNL     1      -0.018   1.465   0.010  0.00  0.00    -0.096 C 
ATOM     18  N   UNL     1       0.002  -0.004   0.002  0.00  0.00    +0.379 N 
ATOM     19  C   UNL     1      -1.376  -0.512   0.011  0.00  0.00    -0.064 C 
ATOM     20  C   UNL     1      -1.356  -2.042  -0.017  0.00  0.00    +0.066 C 
ATOM     21  N   UNL     1      -0.624  -2.541   1.156  0.00  0.00    -0.306 NA
ATOM     22  C   UNL     1       0.750  -2.020   1.175  0.00  0.00    +0.066 C 
ATOM     23  C   UNL     1       0.713  -0.490   1.192  0.00  0.00    -0.064 C 
ATOM     24  H   UNL     1       0.475  -0.329  -0.828  0.00  0.00    -0.082 HD
ENDBRANCH  16  21
ENDBRANCH  15  16
ENDBRANCH  14  15
ENDBRANCH   1  14
TORSDOF 6
