REMARK  Name = ZINC28559791
REMARK  9 active torsions:
REMARK  status: ('A' for Active; 'I' for Inactive)
REMARK    1  A    between atoms: C_1  and  C_2
REMARK    2  A    between atoms: C_2  and  O_3
REMARK    3  A    between atoms: O_3  and  C_4
REMARK    4  A    between atoms: N_17  and  C_18
REMARK    5  A    between atoms: C_18  and  C_19
REMARK    6  A    between atoms: C_19  and  N_20
REMARK    7  A    between atoms: N_23  and  C_26
REMARK    8  A    between atoms: C_26  and  N_28
REMARK    9  A    between atoms: N_28  and  C_29
REMARK                            x       y       z     vdW  Elec       q    Type
REMARK                         _______ _______ _______ _____ _____    ______ ____
ROOT
ATOM      1  C   UNL     1      -0.372  -0.113   2.997  0.00  0.00    +0.302 A 
ATOM      2  N   UNL     1       0.245  -0.582   4.059  0.00  0.00    -0.189 NA
ATOM      3  C   UNL     1       1.226   0.104   4.635  0.00  0.00    +0.119 A 
ATOM      4  C   UNL     1       1.653   1.350   4.146  0.00  0.00    +0.076 A 
ATOM      5  C   UNL     1       2.743   1.988   4.886  0.00  0.00    -0.023 A 
ATOM      6  C   UNL     1       3.226   1.325   5.956  0.00  0.00    -0.004 A 
ATOM      7  S   UNL     1       2.274  -0.168   6.042  0.00  0.00    -0.073 S 
ATOM      8  C   UNL     1       4.330   1.761   6.871  0.00  0.00    +0.043 C 
ATOM      9  C   UNL     1       5.092   2.912   6.198  0.00  0.00    +0.005 C 
ATOM     10  C   UNL     1       4.077   3.931   5.672  0.00  0.00    +0.005 C 
ATOM     11  C   UNL     1       3.319   3.342   4.482  0.00  0.00    +0.037 C 
ATOM     12  C   UNL     1       0.966   1.832   2.987  0.00  0.00    +0.265 A 
ATOM     13  O   UNL     1       1.267   2.904   2.490  0.00  0.00    -0.267 OA
ATOM     14  N   UNL     1      -0.018   1.085   2.453  0.00  0.00    -0.264 N 
ENDROOT
BRANCH   1  15
ATOM     15  O   UNL     1      -1.368  -0.830   2.435  0.00  0.00    -0.464 OA
BRANCH  15  17
ATOM     16  C   UNL     1      -2.838  -2.742   2.279  0.00  0.00    +0.048 C 
ATOM     17  C   UNL     1      -1.695  -2.078   3.050  0.00  0.00    +0.229 C 
ENDBRANCH  15  17
ENDBRANCH   1  15
BRANCH  14  18
ATOM     18  C   UNL     1      -0.727   1.572   1.267  0.00  0.00    +0.111 C 
BRANCH  18  19
ATOM     19  C   UNL     1      -0.011   1.079   0.007  0.00  0.00    -0.057 C 
BRANCH  19  20
ATOM     20  N   UNL     1      -0.722   1.567  -1.182  0.00  0.00    +0.383 N 
ATOM     21  C   UNL     1      -2.061   0.972  -1.277  0.00  0.00    -0.059 C 
ATOM     22  C   UNL     1      -2.833   1.638  -2.420  0.00  0.00    +0.088 C 
ATOM     23  N   UNL     1      -2.025   1.548  -3.645  0.00  0.00    -0.316 N 
ATOM     24  C   UNL     1      -0.626   2.000  -3.591  0.00  0.00    +0.088 C 
ATOM     25  C   UNL     1       0.059   1.319  -2.401  0.00  0.00    -0.059 C 
ATOM     26  H   UNL     1      -0.846   2.656  -1.081  0.00  0.00    -0.082 HD
BRANCH  23  27
ATOM     27  C   UNL     1      -2.551   1.064  -4.788  0.00  0.00    +0.133 C 
ATOM     28  S   UNL     1      -1.632   1.089  -6.232  0.00  0.00    -0.019 S 
BRANCH  27  29
ATOM     29  N   UNL     1      -3.801   0.561  -4.793  0.00  0.00    -0.329 N 
ATOM     30  C   UNL     1      -4.333  -0.066  -6.006  0.00  0.00    +0.127 C 
ATOM     31  H   UNL     1      -4.423   0.621  -3.888  0.00  0.00    +0.147 HD
ENDBRANCH  27  29
ENDBRANCH  23  27
ENDBRANCH  19  20
ENDBRANCH  18  19
ENDBRANCH  14  18
TORSDOF 7
