REMARK  Name = ZINC05408754
REMARK  9 active torsions:
REMARK  status: ('A' for Active; 'I' for Inactive)
REMARK    1  A    between atoms: C_1  and  O_2
REMARK    2  A    between atoms: O_2  and  C_3
REMARK    3  A    between atoms: C_8  and  O_9
REMARK    4  A    between atoms: O_9  and  C_10
REMARK    5  A    between atoms: C_13  and  O_27
REMARK    6  A    between atoms: C_14  and  C_17
REMARK    7  A    between atoms: N_19  and  C_20
REMARK    8  A    between atoms: C_20  and  C_21
REMARK    9  A    between atoms: C_21  and  N_52
REMARK                            x       y       z     vdW  Elec       q    Type
REMARK                         _______ _______ _______ _____ _____    ______ ____
ROOT
ATOM      1  C   UNL     1       3.508   3.575  -0.013  0.00  0.00    +0.162 A 
ATOM      2  C   UNL     1       3.575   2.197  -0.021  0.00  0.00    +0.063 A 
ATOM      3  C   UNL     1       2.396   1.448  -0.013  0.00  0.00    +0.050 A 
ATOM      4  C   UNL     1       1.148   2.094   0.002  0.00  0.00    +0.056 A 
ATOM      5  C   UNL     1       1.096   3.483   0.011  0.00  0.00    +0.075 A 
ATOM      6  C   UNL     1       2.268   4.218   0.003  0.00  0.00    +0.163 A 
ATOM      7  N   UNL     1      -0.016   1.348   0.009  0.00  0.00    -0.325 N 
ATOM      8  H   UNL     1      -0.871   1.808   0.016  0.00  0.00    +0.169 HD
ATOM      9  C   UNL     1       0.002  -0.004   0.002  0.00  0.00    +0.207 A 
ATOM     10  C   UNL     1       1.194  -0.723  -0.014  0.00  0.00    +0.143 A 
ATOM     11  C   UNL     1       2.434  -0.024  -0.022  0.00  0.00    +0.205 A 
ATOM     12  O   UNL     1       3.494  -0.626  -0.035  0.00  0.00    -0.286 OA
ENDROOT
BRANCH  10  13
ATOM     13  C   UNL     1       1.172  -2.189  -0.021  0.00  0.00    +0.253 C 
ATOM     14  O   UNL     1       1.153  -2.792  -1.078  0.00  0.00    -0.270 OA
ATOM     15  N   UNL     1       1.174  -2.869   1.142  0.00  0.00    -0.313 N 
ATOM     16  H   UNL     1       1.189  -2.389   1.985  0.00  0.00    +0.149 HD
BRANCH  15  17
ATOM     17  C   UNL     1       1.152  -4.334   1.135  0.00  0.00    +0.086 C 
BRANCH  17  18
ATOM     18  C   UNL     1       1.159  -4.852   2.574  0.00  0.00    -0.060 C 
BRANCH  18  24
ATOM     19  C   UNL     1      -0.127  -6.825   2.014  0.00  0.00    -0.079 C 
ATOM     20  C   UNL     1      -0.057  -8.349   1.887  0.00  0.00    -0.019 C 
ATOM     21  C   UNL     1       0.199  -8.960   3.267  0.00  0.00    -0.004 C 
ATOM     22  C   UNL     1       1.495  -8.382   3.841  0.00  0.00    -0.019 C 
ATOM     23  C   UNL     1       1.380  -6.858   3.912  0.00  0.00    -0.079 C 
ATOM     24  N   UNL     1       1.159  -6.329   2.549  0.00  0.00    +0.381 N 
ATOM     25  H   UNL     1       1.920  -6.652   1.939  0.00  0.00    -0.082 HD
ENDBRANCH  18  24
ENDBRANCH  17  18
ENDBRANCH  15  17
ENDBRANCH  10  13
BRANCH   1  27
ATOM     26  C   UNL     1       5.887   3.588  -0.035  0.00  0.00    +0.277 C 
ATOM     27  O   UNL     1       4.653   4.310  -0.019  0.00  0.00    -0.491 OA
ENDBRANCH   1  27
BRANCH   6  28
ATOM     28  O   UNL     1       2.212   5.575   0.011  0.00  0.00    -0.491 OA
ATOM     29  C   UNL     1       0.913   6.171   0.027  0.00  0.00    +0.277 C 
ENDBRANCH   6  28
BRANCH   9  30
ATOM     30  O   UNL     1      -1.167  -0.675   0.009  0.00  0.00    -0.493 OA
ATOM     31  H   UNL     1      -1.556  -0.888  -0.850  0.00  0.00    +0.294 HD
ENDBRANCH   9  30
TORSDOF 7
