REMARK  Name = ZINC36191337
REMARK  5 active torsions:
REMARK  status: ('A' for Active; 'I' for Inactive)
REMARK    1  A    between atoms: C_1  and  N_2
REMARK    2  A    between atoms: N_2  and  C_3
REMARK    3  A    between atoms: N_2  and  C_4
REMARK    4  A    between atoms: C_10  and  C_12
REMARK    5  A    between atoms: C_18  and  C_20
REMARK                            x       y       z     vdW  Elec       q    Type
REMARK                         _______ _______ _______ _____ _____    ______ ____
ROOT
ATOM      1  C   UNL     1      -0.874  -0.538  -1.055  0.00  0.00    -0.066 C 
ATOM      2  C   UNL     1      -0.879  -2.068  -1.026  0.00  0.00    +0.004 C 
ATOM      3  C   UNL     1      -2.235  -2.561  -0.511  0.00  0.00    +0.106 C 
ATOM      4  N   UNL     1      -3.297  -1.969  -1.336  0.00  0.00    -0.301 N 
ATOM      5  C   UNL     1      -3.330  -0.510  -1.505  0.00  0.00    +0.106 C 
ATOM      6  C   UNL     1      -1.962  -0.040  -2.009  0.00  0.00    +0.004 C 
ATOM      7  C   UNL     1      -4.223  -2.750  -1.927  0.00  0.00    +0.219 C 
ATOM      8  O   UNL     1      -5.147  -2.245  -2.530  0.00  0.00    -0.275 OA
ENDROOT
BRANCH   7   9
ATOM      9  C   UNL     1      -4.110  -4.250  -1.839  0.00  0.00    +0.089 C 
ATOM     10  C   UNL     1      -4.717  -4.731  -0.520  0.00  0.00    +0.013 C 
ATOM     11  C   UNL     1      -6.191  -4.326  -0.459  0.00  0.00    +0.001 C 
ATOM     12  C   UNL     1      -6.944  -4.963  -1.629  0.00  0.00    +0.001 C 
ATOM     13  C   UNL     1      -6.337  -4.482  -2.948  0.00  0.00    +0.015 C 
ATOM     14  C   UNL     1      -4.863  -4.888  -3.009  0.00  0.00    +0.114 C 
BRANCH  14  15
ATOM     15  C   UNL     1      -4.265  -4.414  -4.309  0.00  0.00    +0.360 C 
ATOM     16  O   UNL     1      -4.127  -5.194  -5.236  0.00  0.00    -0.246 OA
ATOM     17  O   UNL     1      -3.919  -3.252  -4.433  0.00  0.00    -0.246 OA
ENDBRANCH  14  15
ENDBRANCH   7   9
BRANCH   1  19
ATOM     18  C   UNL     1       0.443   1.407  -1.543  0.00  0.00    -0.096 C 
ATOM     19  N   UNL     1       0.437  -0.061  -1.517  0.00  0.00    +0.378 N 
ATOM     20  C   UNL     1       1.482  -0.539  -0.602  0.00  0.00    -0.096 C 
ATOM     21  H   UNL     1       0.616  -0.415  -2.445  0.00  0.00    -0.082 HD
ENDBRANCH   1  19
TORSDOF 3
