REMARK  Name = ZINC39465525
REMARK  6 active torsions:
REMARK  status: ('A' for Active; 'I' for Inactive)
REMARK    1  A    between atoms: C_1  and  C_2
REMARK    2  A    between atoms: C_2  and  C_3
REMARK    3  A    between atoms: C_2  and  S_4
REMARK    4  A    between atoms: S_4  and  C_7
REMARK    5  A    between atoms: C_12  and  C_13
REMARK    6  A    between atoms: C_18  and  O_19
REMARK                            x       y       z     vdW  Elec       q    Type
REMARK                         _______ _______ _______ _____ _____    ______ ____
ROOT
ATOM      1  C   UNL     1      -2.592  -0.005  -1.308  0.00  0.00    +0.097 A 
ATOM      2  C   UNL     1      -3.099  -0.837  -2.283  0.00  0.00    +0.031 A 
ATOM      3  C   UNL     1      -3.229  -0.392  -3.590  0.00  0.00    -0.039 A 
ATOM      4  C   UNL     1      -2.851   0.891  -3.926  0.00  0.00    -0.023 A 
ATOM      5  C   UNL     1      -2.341   1.735  -2.952  0.00  0.00    +0.016 A 
ATOM      6  C   UNL     1      -2.214   1.294  -1.639  0.00  0.00    +0.011 A 
ATOM      7  C   UNL     1      -2.972   1.419  -5.332  0.00  0.00    +0.130 C 
ATOM      8  C   UNL     1      -3.514   2.850  -5.283  0.00  0.00    +0.196 C 
ATOM      9  O   UNL     1      -3.515   3.389  -6.620  0.00  0.00    -0.292 OA
ATOM     10  P   UNL     1      -4.190   2.506  -7.807  0.00  0.00    +0.448 P 
ATOM     11  O   UNL     1      -3.612   2.922  -9.177  0.00  0.00    -0.236 OA
ATOM     12  N   UNL     1      -3.794   0.935  -7.473  0.00  0.00    -0.154 NA
ATOM     13  N   UNL     1      -3.845   0.571  -6.142  0.00  0.00    -0.224 NA
ATOM     14  C   UNL     1      -3.467  -0.845  -6.016  0.00  0.00    +0.108 C 
ATOM     15  C   UNL     1      -3.792  -1.340  -4.619  0.00  0.00    +0.052 C 
ATOM     16  O   UNL     1      -5.725   2.685  -7.799  0.00  0.00    -0.126 OA
ATOM     17  H   UNL     1      -3.550   0.311  -8.174  0.00  0.00    +0.153 HD
ENDROOT
BRANCH   6  18
ATOM     18  C   UNL     1      -1.673   2.202  -0.597  0.00  0.00    +0.025 A 
ATOM     19  C   UNL     1      -2.481   3.192  -0.044  0.00  0.00    +0.012 A 
ATOM     20  C   UNL     1      -1.974   4.034   0.925  0.00  0.00    +0.001 A 
ATOM     21  C   UNL     1      -0.663   3.898   1.349  0.00  0.00    +0.004 A 
ATOM     22  C   UNL     1       0.147   2.919   0.807  0.00  0.00    +0.046 A 
ATOM     23  C   UNL     1      -0.352   2.063  -0.162  0.00  0.00    +0.125 A 
BRANCH  23  24
ATOM     24  O   UNL     1       0.442   1.096  -0.691  0.00  0.00    -0.506 OA
ATOM     25  H   UNL     1       0.996   1.399  -1.424  0.00  0.00    +0.292 HD
ENDBRANCH  23  24
ENDBRANCH   6  18
BRANCH   1  26
ATOM     26  S   UNL     1      -2.429  -0.580   0.350  0.00  0.00    -0.000 S 
ATOM     27  O   UNL     1      -1.093  -0.264   0.714  0.00  0.00    -0.169 OA
ATOM     28  O   UNL     1      -2.869  -1.931   0.310  0.00  0.00    -0.169 OA
BRANCH  26  30
ATOM     29  C   UNL     1      -4.989   0.320   0.693  0.00  0.00    +0.032 C 
ATOM     30  C   UNL     1      -3.593   0.428   1.309  0.00  0.00    +0.130 C 
ATOM     31  C   UNL     1      -3.634  -0.075   2.754  0.00  0.00    +0.032 C 
ENDBRANCH  26  30
ENDBRANCH   1  26
TORSDOF 4
