REMARK  Name = ZINC66586673
REMARK  7 active torsions:
REMARK  status: ('A' for Active; 'I' for Inactive)
REMARK    1  A    between atoms: C_1  and  C_2
REMARK    2  A    between atoms: C_2  and  C_3
REMARK    3  A    between atoms: C_6  and  C_8
REMARK    4  A    between atoms: C_8  and  N_9
REMARK    5  A    between atoms: N_9  and  C_10
REMARK    6  A    between atoms: C_10  and  C_12
REMARK    7  A    between atoms: C_10  and  C_13
REMARK                            x       y       z     vdW  Elec       q    Type
REMARK                         _______ _______ _______ _____ _____    ______ ____
ROOT
ATOM      1  C   UNL     1      -6.464  -3.875   1.707  0.00  0.00    -0.044 C 
ATOM      2  C   UNL     1      -7.553  -3.624   0.662  0.00  0.00    -0.009 C 
ENDROOT
BRANCH   1   3
ATOM      3  C   UNL     1      -6.374  -5.352   1.994  0.00  0.00    -0.060 A 
ATOM      4  C   UNL     1      -5.682  -6.181   1.130  0.00  0.00    +0.006 A 
ATOM      5  C   UNL     1      -5.593  -7.537   1.386  0.00  0.00    +0.048 A 
ATOM      6  C   UNL     1      -6.200  -8.067   2.512  0.00  0.00    +0.142 A 
ATOM      7  C   UNL     1      -6.899  -7.231   3.382  0.00  0.00    +0.076 A 
ATOM      8  C   UNL     1      -6.978  -5.873   3.123  0.00  0.00    +0.029 A 
ATOM      9  N   UNL     1      -7.511  -7.781   4.517  0.00  0.00    -0.280 N 
ATOM     10  C   UNL     1      -7.158  -9.023   4.914  0.00  0.00    +0.255 C 
ATOM     11  O   UNL     1      -7.697  -9.531   5.875  0.00  0.00    -0.272 OA
ATOM     12  C   UNL     1      -6.091  -9.775   4.159  0.00  0.00    +0.325 C 
ATOM     13  O   UNL     1      -6.123  -9.398   2.780  0.00  0.00    -0.481 OA
ATOM     14  H   UNL     1      -8.178  -7.277   5.010  0.00  0.00    +0.155 HD
ENDBRANCH   1   3
BRANCH   1  15
ATOM     15  N   UNL     1      -5.173  -3.396   1.194  0.00  0.00    +0.386 N 
ATOM     16  H   UNL     1      -4.984  -3.830   0.303  0.00  0.00    -0.085 HD
ATOM     17  H   UNL     1      -4.442  -3.636   1.847  0.00  0.00    -0.085 HD
BRANCH  15  18
ATOM     18  C   UNL     1      -5.223  -1.938   1.027  0.00  0.00    -0.039 C 
BRANCH  18  22
ATOM     19  C   UNL     1      -1.412  -0.526   0.013  0.00  0.00    -0.010 A 
ATOM     20  C   UNL     1      -2.221  -0.821  -1.034  0.00  0.00    +0.011 A 
ATOM     21  C   UNL     1      -3.495  -1.293  -0.784  0.00  0.00    +0.009 A 
ATOM     22  C   UNL     1      -3.899  -1.446   0.501  0.00  0.00    -0.027 A 
ATOM     23  S   UNL     1      -2.453  -0.923   1.407  0.00  0.00    -0.100 S 
BRANCH  19  25
ATOM     24  C   UNL     1      -0.019   1.526   0.010  0.00  0.00    +0.009 C 
ATOM     25  C   UNL     1       0.002  -0.004   0.002  0.00  0.00    +0.039 C 
ENDBRANCH  19  25
ENDBRANCH  18  22
ENDBRANCH  15  18
ENDBRANCH   1  15
TORSDOF 5
