REMARK  Name = ZINC48798268
REMARK  12 active torsions:
REMARK  status: ('A' for Active; 'I' for Inactive)
REMARK    1  A    between atoms: C_1  and  C_2
REMARK    2  A    between atoms: C_2  and  C_3
REMARK    3  A    between atoms: C_3  and  N_4
REMARK    4  A    between atoms: C_5  and  C_7
REMARK    5  A    between atoms: C_7  and  C_9
REMARK    6  A    between atoms: C_7  and  O_10
REMARK    7  A    between atoms: O_10  and  C_11
REMARK    8  A    between atoms: C_12  and  C_18
REMARK    9  A    between atoms: C_18  and  C_19
REMARK   10  A    between atoms: C_19  and  C_21
REMARK   11  A    between atoms: C_19  and  N_23
REMARK   12  A    between atoms: C_21  and  C_22
REMARK                            x       y       z     vdW  Elec       q    Type
REMARK                         _______ _______ _______ _____ _____    ______ ____
ROOT
ATOM      1  C   UNL     1       3.208  -5.546   4.371  0.00  0.00    +0.139 A 
ATOM      2  C   UNL     1       2.623  -6.667   3.799  0.00  0.00    -0.006 A 
ATOM      3  C   UNL     1       3.376  -7.506   3.001  0.00  0.00    +0.007 A 
ATOM      4  C   UNL     1       4.712  -7.231   2.772  0.00  0.00    +0.002 A 
ATOM      5  C   UNL     1       5.297  -6.114   3.340  0.00  0.00    +0.019 A 
ATOM      6  C   UNL     1       4.547  -5.268   4.135  0.00  0.00    +0.060 A 
ATOM      7 BR   UNL     1       5.346  -3.737   4.905  0.00  0.00    -0.047 Br
ENDROOT
BRANCH   1   8
ATOM      8  O   UNL     1       2.469  -4.719   5.156  0.00  0.00    -0.479 OA
BRANCH   8   9
ATOM      9  C   UNL     1       1.963  -3.528   4.549  0.00  0.00    +0.256 C 
ATOM     10  C   UNL     1       0.546  -3.782   4.030  0.00  0.00    +0.062 C 
BRANCH   9  12
ATOM     11  N   UNL     1       1.586  -1.170   5.195  0.00  0.00    -0.312 N 
ATOM     12  C   UNL     1       1.933  -2.418   5.568  0.00  0.00    +0.254 C 
ATOM     13  O   UNL     1       2.221  -2.648   6.723  0.00  0.00    -0.272 OA
ATOM     14  H   UNL     1       1.356  -0.987   4.271  0.00  0.00    +0.149 HD
BRANCH  11  15
ATOM     15  C   UNL     1       1.557  -0.091   6.186  0.00  0.00    +0.104 C 
BRANCH  15  17
ATOM     16  C   UNL     1       1.105   2.340   6.541  0.00  0.00    +0.005 C 
ATOM     17  C   UNL     1       1.135   1.213   5.507  0.00  0.00    +0.015 C 
ENDBRANCH  15  17
ENDBRANCH  11  15
ENDBRANCH   9  12
ENDBRANCH   8   9
ENDBRANCH   1   8
BRANCH   2  18
ATOM     18  C   UNL     1       1.168  -6.968   4.048  0.00  0.00    +0.022 C 
BRANCH  18  19
ATOM     19  C   UNL     1       1.029  -7.775   5.341  0.00  0.00    -0.071 C 
BRANCH  19  20
ATOM     20  N   UNL     1       1.655  -9.093   5.166  0.00  0.00    +0.380 N 
ATOM     21  H   UNL     1       1.201  -9.583   4.410  0.00  0.00    -0.090 HD
ATOM     22  H   UNL     1       2.633  -8.974   4.950  0.00  0.00    -0.090 HD
ATOM     23  H   UNL     1       1.560  -9.626   6.017  0.00  0.00    -0.090 HD
ENDBRANCH  19  20
BRANCH  19  24
ATOM     24  C   UNL     1      -0.454  -7.955   5.672  0.00  0.00    -0.019 C 
ATOM     25  C   UNL     1      -0.593  -8.653   7.027  0.00  0.00    +0.002 C 
ENDBRANCH  19  24
ENDBRANCH  18  19
ENDBRANCH   2  18
TORSDOF 9
