REMARK  Name = ZINC61639316
REMARK  3 active torsions:
REMARK  status: ('A' for Active; 'I' for Inactive)
REMARK    1  A    between atoms: C_3  and  N_19
REMARK    2  A    between atoms: C_5  and  C_8
REMARK    3  A    between atoms: C_8  and  N_9
REMARK                            x       y       z     vdW  Elec       q    Type
REMARK                         _______ _______ _______ _____ _____    ______ ____
ROOT
ATOM      1  C   UNL     1       1.244  -2.171  -0.021  0.00  0.00    +0.183 C 
ENDROOT
BRANCH   1   2
ATOM      2  N   UNL     1       1.266  -2.666   1.357  0.00  0.00    -0.293 N 
ATOM      3  C   UNL     1       2.459  -2.864   1.974  0.00  0.00    +0.203 A 
ATOM      4  N   UNL     1       2.521  -3.305   3.201  0.00  0.00    -0.230 NA
ATOM      5  C   UNL     1       1.415  -3.574   3.889  0.00  0.00    +0.115 A 
ATOM      6  C   UNL     1       0.134  -3.400   3.335  0.00  0.00    +0.072 A 
ATOM      7  C   UNL     1       0.103  -2.911   1.988  0.00  0.00    +0.262 A 
ATOM      8  O   UNL     1      -0.960  -2.723   1.422  0.00  0.00    -0.267 OA
ATOM      9  C   UNL     1      -0.967  -3.739   4.217  0.00  0.00    +0.023 A 
ATOM     10  C   UNL     1      -0.702  -4.180   5.457  0.00  0.00    +0.048 A 
ATOM     11  S   UNL     1       1.080  -4.170   5.526  0.00  0.00    -0.077 S 
ENDBRANCH   1   2
BRANCH   1  16
ATOM     12  C   UNL     1      -0.017   1.385   0.010  0.00  0.00    +0.025 A 
ATOM     13  C   UNL     1       1.190   2.062   0.002  0.00  0.00    +0.045 A 
ATOM     14  C   UNL     1       2.374   1.333  -0.013  0.00  0.00    +0.117 A 
ATOM     15  N   UNL     1       2.351   0.009  -0.020  0.00  0.00    -0.234 NA
ATOM     16  C   UNL     1       1.216  -0.664  -0.013  0.00  0.00    +0.081 A 
ATOM     17  C   UNL     1       0.002  -0.004   0.002  0.00  0.00    +0.064 A 
ATOM     18 CL   UNL     1      -1.484  -0.901   0.012  0.00  0.00    -0.082 Cl
BRANCH  14  19
ATOM     19  N   UNL     1       3.594   2.000  -0.022  0.00  0.00    -0.343 N 
ATOM     20  H   UNL     1       3.616   2.970  -0.017  0.00  0.00    +0.144 HD
ATOM     21  H   UNL     1       4.423   1.496  -0.033  0.00  0.00    +0.144 HD
ENDBRANCH  14  19
ENDBRANCH   1  16
TORSDOF 3
