REMARK  Name = ZINC61841942
REMARK  6 active torsions:
REMARK  status: ('A' for Active; 'I' for Inactive)
REMARK    1  A    between atoms: C_1  and  C_2
REMARK    2  A    between atoms: C_2  and  C_4
REMARK    3  A    between atoms: C_2  and  N_20
REMARK    4  A    between atoms: C_4  and  C_6
REMARK    5  A    between atoms: C_4  and  N_13
REMARK    6  A    between atoms: C_16  and  C_18
REMARK                            x       y       z     vdW  Elec       q    Type
REMARK                         _______ _______ _______ _____ _____    ______ ____
ROOT
ATOM      1  C   UNL     1       0.742  -0.511   1.242  0.00  0.00    +0.125 C 
ENDROOT
BRANCH   1   2
ATOM      2  C   UNL     1      -0.064  -0.108   2.450  0.00  0.00    -0.011 A 
ATOM      3  C   UNL     1      -1.410  -0.413   2.516  0.00  0.00    +0.007 A 
ATOM      4  C   UNL     1      -2.149  -0.044   3.624  0.00  0.00    +0.000 A 
ATOM      5  C   UNL     1      -1.542   0.631   4.667  0.00  0.00    +0.001 A 
ATOM      6  C   UNL     1      -0.196   0.936   4.602  0.00  0.00    +0.015 A 
ATOM      7  C   UNL     1       0.545   0.563   3.495  0.00  0.00    +0.023 A 
ATOM      8 BR   UNL     1       2.389   0.974   3.408  0.00  0.00    -0.050 Br
ENDBRANCH   1   2
BRANCH   1   9
ATOM      9  N   UNL     1       0.833  -1.972   1.181  0.00  0.00    -0.245 N 
ATOM     10  C   UNL     1      -0.125  -2.854   1.525  0.00  0.00    +0.221 A 
ATOM     11  N   UNL     1       0.337  -4.059   1.329  0.00  0.00    -0.206 NA
ATOM     12  C   UNL     1       1.591  -3.994   0.858  0.00  0.00    +0.252 A 
ATOM     13  N   UNL     1       1.934  -2.727   0.746  0.00  0.00    -0.138 NA
BRANCH  12  14
ATOM     14  C   UNL     1       2.418  -5.116   0.527  0.00  0.00    +0.142 C 
ATOM     15  N   UNL     1       3.074  -6.005   0.265  0.00  0.00    -0.188 NA
ENDBRANCH  12  14
ENDBRANCH   1   9
BRANCH   1  17
ATOM     16  C   UNL     1      -0.036   1.536   0.040  0.00  0.00    -0.012 C 
ATOM     17  C   UNL     1       0.059   0.011  -0.024  0.00  0.00    -0.049 C 
BRANCH  17  18
ATOM     18  N   UNL     1       0.844  -0.382  -1.202  0.00  0.00    +0.381 N 
ATOM     19  H   UNL     1       1.771   0.010  -1.134  0.00  0.00    -0.090 HD
ATOM     20  H   UNL     1       0.907  -1.388  -1.244  0.00  0.00    -0.090 HD
ATOM     21  H   UNL     1       0.394  -0.038  -2.037  0.00  0.00    -0.090 HD
ENDBRANCH  17  18
ENDBRANCH   1  17
TORSDOF 5
