REMARK  Name = ZINC67411396
REMARK  10 active torsions:
REMARK  status: ('A' for Active; 'I' for Inactive)
REMARK    1  A    between atoms: C_1  and  C_2
REMARK    2  A    between atoms: C_5  and  C_8
REMARK    3  A    between atoms: C_8  and  C_10
REMARK    4  A    between atoms: C_8  and  N_24
REMARK    5  A    between atoms: C_10  and  N_11
REMARK    6  A    between atoms: N_14  and  N_15
REMARK    7  A    between atoms: C_16  and  C_18
REMARK    8  A    between atoms: C_19  and  C_23
REMARK    9  A    between atoms: N_24  and  C_25
REMARK   10  A    between atoms: N_24  and  C_26
REMARK                            x       y       z     vdW  Elec       q    Type
REMARK                         _______ _______ _______ _____ _____    ______ ____
ROOT
ATOM      1  N   UNL     1      -2.128  -4.352  -1.064  0.00  0.00    -0.299 N 
ATOM      2  C   UNL     1      -3.437  -4.662  -1.141  0.00  0.00    +0.316 C 
ATOM      3  O   UNL     1      -3.945  -5.372  -0.294  0.00  0.00    -0.251 OA
ATOM      4  N   UNL     1      -4.184  -4.186  -2.157  0.00  0.00    -0.218 N 
ATOM      5  H   UNL     1      -1.723  -3.786  -1.739  0.00  0.00    +0.150 HD
ATOM      6  H   UNL     1      -5.126  -4.410  -2.213  0.00  0.00    +0.174 HD
ENDROOT
BRANCH   4   7
ATOM      7  N   UNL     1      -3.599  -3.369  -3.133  0.00  0.00    -0.229 N 
ATOM      8  C   UNL     1      -4.345  -2.893  -4.149  0.00  0.00    +0.267 C 
ATOM      9  O   UNL     1      -5.527  -3.173  -4.219  0.00  0.00    -0.268 OA
ATOM     10  H   UNL     1      -2.656  -3.146  -3.077  0.00  0.00    +0.173 HD
BRANCH   8  11
ATOM     11  C   UNL     1      -3.733  -2.038  -5.170  0.00  0.00    +0.078 A 
ATOM     12  C   UNL     1      -4.317  -1.447  -6.280  0.00  0.00    -0.031 A 
ATOM     13  C   UNL     1      -3.479  -0.690  -7.064  0.00  0.00    +0.011 A 
ATOM     14  C   UNL     1      -2.175  -0.573  -6.713  0.00  0.00    +0.046 A 
ATOM     15  S   UNL     1      -2.045  -1.480  -5.304  0.00  0.00    -0.092 S 
ATOM     16  C   UNL     1      -5.778  -1.624  -6.607  0.00  0.00    +0.045 C 
ENDBRANCH   8  11
ENDBRANCH   4   7
BRANCH   1  17
ATOM     17  C   UNL     1      -1.317  -4.870   0.041  0.00  0.00    +0.095 C 
BRANCH  17  18
ATOM     18  C   UNL     1       0.088  -4.267  -0.032  0.00  0.00    -0.021 C 
BRANCH  18  23
ATOM     19  C   UNL     1      -0.218   1.437   0.841  0.00  0.00    +0.044 C 
ATOM     20  C   UNL     1      -0.138  -0.051   0.613  0.00  0.00    -0.050 A 
ATOM     21  C   UNL     1      -0.028  -0.548  -0.672  0.00  0.00    +0.003 A 
ATOM     22  C   UNL     1       0.046  -1.913  -0.881  0.00  0.00    +0.002 A 
ATOM     23  C   UNL     1       0.009  -2.780   0.196  0.00  0.00    -0.059 A 
ATOM     24  C   UNL     1      -0.101  -2.282   1.480  0.00  0.00    +0.002 A 
ATOM     25  C   UNL     1      -0.170  -0.917   1.690  0.00  0.00    +0.003 A 
ENDBRANCH  18  23
BRANCH  18  26
ATOM     26  N   UNL     1       0.936  -4.876   1.001  0.00  0.00    +0.382 N 
ATOM     27  C   UNL     1       1.028  -6.324   0.769  0.00  0.00    -0.096 C 
ATOM     28  C   UNL     1       2.280  -4.285   0.942  0.00  0.00    -0.096 C 
ATOM     29  H   UNL     1       0.533  -4.706   1.910  0.00  0.00    -0.082 HD
ENDBRANCH  18  26
ENDBRANCH  17  18
ENDBRANCH   1  17
TORSDOF 6
