REMARK  Name = ZINC09128934
REMARK  5 active torsions:
REMARK  status: ('A' for Active; 'I' for Inactive)
REMARK    1  A    between atoms: C_1  and  C_2
REMARK    2  A    between atoms: C_4  and  C_32
REMARK    3  A    between atoms: C_15  and  C_21
REMARK    4  A    between atoms: C_21  and  S_22
REMARK    5  A    between atoms: S_22  and  C_23
REMARK                            x       y       z     vdW  Elec       q    Type
REMARK                         _______ _______ _______ _____ _____    ______ ____
ROOT
ATOM      1  C   UNL     1      -0.018   1.503   0.010  0.00  0.00    +0.066 C 
ATOM      2  C   UNL     1       0.002  -0.004   0.002  0.00  0.00    +0.044 A 
ATOM      3  C   UNL     1       0.006  -0.699  -1.197  0.00  0.00    +0.046 A 
ATOM      4  C   UNL     1       0.025  -2.084  -1.160  0.00  0.00    +0.044 A 
ATOM      5  N   UNL     1       0.039  -2.698   0.012  0.00  0.00    -0.216 NA
ATOM      6  C   UNL     1       0.035  -2.004   1.140  0.00  0.00    +0.253 A 
ATOM      7  N   UNL     1       0.022  -0.680   1.139  0.00  0.00    -0.216 NA
ATOM      8  N   UNL     1       0.049  -2.680   2.352  0.00  0.00    -0.182 N 
ATOM      9  C   UNL     1       0.074  -4.022   2.500  0.00  0.00    +0.287 A 
ATOM     10  O   UNL     1       0.088  -4.851   1.609  0.00  0.00    -0.265 OA
ATOM     11  C   UNL     1       0.082  -4.287   3.939  0.00  0.00    +0.129 A 
ATOM     12  C   UNL     1       0.106  -5.503   4.749  0.00  0.00    +0.196 A 
ATOM     13  O   UNL     1       0.125  -6.608   4.229  0.00  0.00    -0.287 OA
ATOM     14  C   UNL     1       0.106  -5.355   6.162  0.00  0.00    +0.073 A 
ATOM     15  C   UNL     1       0.084  -4.122   6.700  0.00  0.00    +0.031 A 
ATOM     16  N   UNL     1       0.062  -2.997   5.939  0.00  0.00    -0.342 N 
ATOM     17  H   UNL     1       0.048  -2.132   6.378  0.00  0.00    +0.167 HD
ATOM     18  C   UNL     1       0.060  -3.047   4.582  0.00  0.00    +0.140 A 
ATOM     19  N   UNL     1       0.047  -2.082   3.616  0.00  0.00    -0.272 N 
ATOM     20  H   UNL     1       0.035  -1.127   3.781  0.00  0.00    +0.189 HD
ATOM     21  C   UNL     1       0.029  -2.882  -2.438  0.00  0.00    +0.066 C 
ENDROOT
BRANCH  15  22
ATOM     22  C   UNL     1       0.084  -3.984   8.201  0.00  0.00    +0.129 C 
BRANCH  22  23
ATOM     23  S   UNL     1       1.728  -3.459   8.760  0.00  0.00    -0.093 S 
BRANCH  23  24
ATOM     24  C   UNL     1       1.567  -3.345  10.511  0.00  0.00    +0.136 A 
ATOM     25  N   UNL     1       0.513  -3.586  11.259  0.00  0.00    -0.233 NA
ATOM     26  C   UNL     1       0.534  -3.456  12.604  0.00  0.00    +0.079 A 
ATOM     27  C   UNL     1      -0.520  -3.682  13.519  0.00  0.00    +0.029 A 
ATOM     28  C   UNL     1      -0.330  -3.502  14.864  0.00  0.00    +0.002 A 
ATOM     29  C   UNL     1       0.893  -3.094  15.375  0.00  0.00    +0.001 A 
ATOM     30  C   UNL     1       1.946  -2.864  14.509  0.00  0.00    +0.017 A 
ATOM     31  C   UNL     1       1.766  -3.042  13.160  0.00  0.00    +0.040 A 
ATOM     32  S   UNL     1       2.796  -2.878  11.722  0.00  0.00    -0.061 S 
ENDBRANCH  23  24
ENDBRANCH  22  23
ENDBRANCH  15  22
TORSDOF 3
