REMARK  Name = ZINC54864473
REMARK  6 active torsions:
REMARK  status: ('A' for Active; 'I' for Inactive)
REMARK    1  A    between atoms: C_1  and  O_2
REMARK    2  A    between atoms: O_2  and  C_3
REMARK    3  A    between atoms: C_8  and  O_9
REMARK    4  A    between atoms: O_9  and  C_10
REMARK    5  A    between atoms: C_18  and  C_20
REMARK    6  A    between atoms: C_20  and  N_21
REMARK                            x       y       z     vdW  Elec       q    Type
REMARK                         _______ _______ _______ _____ _____    ______ ____
ROOT
ATOM      1  C   UNL     1       0.606  -0.608  -1.056  0.00  0.00    +0.162 A 
ATOM      2  C   UNL     1       1.172   0.155  -2.061  0.00  0.00    +0.053 A 
ATOM      3  C   UNL     1       1.795  -0.451  -3.145  0.00  0.00    -0.038 A 
ATOM      4  C   UNL     1       1.853  -1.826  -3.216  0.00  0.00    -0.023 A 
ATOM      5  C   UNL     1       1.280  -2.597  -2.213  0.00  0.00    +0.054 A 
ATOM      6  C   UNL     1       0.663  -1.996  -1.131  0.00  0.00    +0.162 A 
ATOM      7  C   UNL     1       2.539  -2.547  -4.349  0.00  0.00    +0.142 C 
ATOM      8  N   UNL     1       2.843  -1.599  -5.426  0.00  0.00    -0.305 N 
ATOM      9  C   UNL     1       3.416  -0.299  -5.040  0.00  0.00    +0.112 C 
ATOM     10  C   UNL     1       2.374   0.446  -4.207  0.00  0.00    +0.054 C 
ATOM     11  C   UNL     1       2.600  -1.913  -6.754  0.00  0.00    +0.161 A 
ATOM     12  N   UNL     1       2.822  -1.178  -7.823  0.00  0.00    -0.233 NA
ATOM     13  C   UNL     1       2.533  -1.627  -9.031  0.00  0.00    +0.122 A 
ATOM     14  C   UNL     1       2.002  -2.871  -9.116  0.00  0.00    -0.006 A 
ATOM     15  S   UNL     1       1.956  -3.332  -7.392  0.00  0.00    -0.059 S 
ENDROOT
BRANCH   1  17
ATOM     16  C   UNL     1      -0.017   1.425   0.010  0.00  0.00    +0.277 C 
ATOM     17  O   UNL     1       0.002  -0.004   0.002  0.00  0.00    -0.491 OA
ENDBRANCH   1  17
BRANCH   6  18
ATOM     18  O   UNL     1       0.110  -2.757  -0.149  0.00  0.00    -0.491 OA
ATOM     19  C   UNL     1       0.208  -4.175  -0.295  0.00  0.00    +0.277 C 
ENDBRANCH   6  18
BRANCH  14  20
ATOM     20  C   UNL     1       1.572  -3.651 -10.331  0.00  0.00    -0.042 C 
BRANCH  20  21
ATOM     21  N   UNL     1       2.705  -4.442 -10.831  0.00  0.00    +0.381 N 
ATOM     22  H   UNL     1       3.012  -5.081 -10.112  0.00  0.00    -0.090 HD
ATOM     23  H   UNL     1       2.417  -4.965 -11.644  0.00  0.00    -0.090 HD
ATOM     24  H   UNL     1       3.463  -3.825 -11.079  0.00  0.00    -0.090 HD
ENDBRANCH  20  21
ENDBRANCH  14  20
TORSDOF 4
