REMARK  Name = ZINC67431859
REMARK  7 active torsions:
REMARK  status: ('A' for Active; 'I' for Inactive)
REMARK    1  A    between atoms: N_5  and  C_26
REMARK    2  A    between atoms: C_10  and  C_15
REMARK    3  A    between atoms: C_20  and  C_23
REMARK    4  A    between atoms: C_20  and  O_25
REMARK    5  A    between atoms: C_23  and  O_24
REMARK    6  A    between atoms: C_26  and  C_27
REMARK    7  A    between atoms: C_27  and  N_28
REMARK                            x       y       z     vdW  Elec       q    Type
REMARK                         _______ _______ _______ _____ _____    ______ ____
ROOT
ATOM      1  C   UNL     1      -0.030   1.551   0.021  0.00  0.00    +0.035 C 
ATOM      2  C   UNL     1       1.482   1.945  -0.006  0.00  0.00    +0.040 C 
ATOM      3  C   UNL     1       2.120   0.573  -0.116  0.00  0.00    +0.097 C 
ATOM      4  C   UNL     1       3.592   0.342   0.039  0.00  0.00    +0.143 C 
ATOM      5  N   UNL     1       3.858  -0.864  -0.779  0.00  0.00    -0.300 N 
ATOM      6  C   UNL     1       2.842  -1.094  -1.647  0.00  0.00    +0.222 C 
ATOM      7  O   UNL     1       2.751  -2.057  -2.379  0.00  0.00    -0.275 OA
ATOM      8  C   UNL     1       1.845   0.029  -1.562  0.00  0.00    +0.123 C 
ATOM      9  C   UNL     1       0.383  -0.435  -1.445  0.00  0.00    +0.118 C 
ATOM     10  C   UNL     1       0.003  -0.009   0.009  0.00  0.00    +0.132 C 
ATOM     11  O   UNL     1       1.275  -0.279   0.698  0.00  0.00    -0.367 OA
ENDROOT
BRANCH   9  12
ATOM     12  C   UNL     1       0.281  -1.929  -1.612  0.00  0.00    +0.222 C 
ATOM     13  O   UNL     1       0.446  -2.659  -0.658  0.00  0.00    -0.275 OA
ATOM     14  N   UNL     1       0.008  -2.455  -2.823  0.00  0.00    -0.301 N 
ATOM     15  C   UNL     1      -0.071  -1.595  -4.012  0.00  0.00    +0.110 C 
ATOM     16  C   UNL     1      -1.414  -1.837  -4.707  0.00  0.00    +0.056 C 
ATOM     17  C   UNL     1      -1.570  -3.331  -5.001  0.00  0.00    +0.092 C 
ATOM     18  C   UNL     1      -1.559  -4.115  -3.686  0.00  0.00    +0.056 C 
ATOM     19  C   UNL     1      -0.212  -3.899  -2.980  0.00  0.00    +0.110 C 
BRANCH  17  20
ATOM     20  O   UNL     1      -0.489  -3.770  -5.826  0.00  0.00    -0.386 OA
ATOM     21  H   UNL     1      -0.523  -4.709  -6.052  0.00  0.00    +0.210 HD
ENDBRANCH  17  20
BRANCH  17  22
ATOM     22  C   UNL     1      -2.895  -3.573  -5.727  0.00  0.00    +0.190 C 
BRANCH  22  23
ATOM     23  O   UNL     1      -3.096  -4.977  -5.897  0.00  0.00    -0.392 OA
ATOM     24  H   UNL     1      -3.918  -5.205  -6.351  0.00  0.00    +0.210 HD
ENDBRANCH  22  23
ENDBRANCH  17  22
ENDBRANCH   9  12
BRANCH   5  25
ATOM     25  C   UNL     1       5.059  -1.696  -0.667  0.00  0.00    +0.088 C 
BRANCH  25  26
ATOM     26  C   UNL     1       4.818  -2.803   0.362  0.00  0.00    -0.067 C 
BRANCH  26  27
ATOM     27  N   UNL     1       6.022  -3.637   0.475  0.00  0.00    +0.379 N 
ATOM     28  H   UNL     1       6.800  -3.067   0.771  0.00  0.00    -0.090 HD
ATOM     29  H   UNL     1       5.863  -4.367   1.153  0.00  0.00    -0.090 HD
ATOM     30  H   UNL     1       6.230  -4.051  -0.422  0.00  0.00    -0.090 HD
ENDBRANCH  26  27
ENDBRANCH  25  26
ENDBRANCH   5  25
TORSDOF 7
