REMARK  Name = ZINC43393525
REMARK  11 active torsions:
REMARK  status: ('A' for Active; 'I' for Inactive)
REMARK    1  A    between atoms: C_1  and  C_2
REMARK    2  A    between atoms: C_4  and  C_22
REMARK    3  A    between atoms: C_6  and  C_8
REMARK    4  A    between atoms: C_8  and  N_9
REMARK    5  A    between atoms: N_9  and  C_10
REMARK    6  A    between atoms: C_10  and  C_12
REMARK    7  A    between atoms: C_10  and  C_18
REMARK    8  A    between atoms: C_12  and  N_13
REMARK    9  A    between atoms: C_18  and  C_19
REMARK   10  A    between atoms: C_18  and  C_20
REMARK   11  A    between atoms: C_18  and  C_21
REMARK                            x       y       z     vdW  Elec       q    Type
REMARK                         _______ _______ _______ _____ _____    ______ ____
ROOT
ATOM      1  N   UNL     1       0.918  -3.292   4.280  0.00  0.00    +0.385 N 
ATOM      2  H   UNL     1       0.019  -3.677   4.529  0.00  0.00    -0.085 HD
ATOM      3  H   UNL     1       0.995  -3.240   3.275  0.00  0.00    -0.085 HD
ENDROOT
BRANCH   1   4
ATOM      4  C   UNL     1       1.049  -1.945   4.851  0.00  0.00    -0.046 C 
BRANCH   4  10
ATOM      5  C   UNL     1      -1.150   1.207   1.645  0.00  0.00    +0.044 C 
ATOM      6  C   UNL     1      -1.192   0.398   2.916  0.00  0.00    -0.050 A 
ATOM      7  C   UNL     1      -2.322   0.420   3.712  0.00  0.00    +0.006 A 
ATOM      8  C   UNL     1      -2.361  -0.323   4.877  0.00  0.00    -0.050 A 
ATOM      9  C   UNL     1      -1.270  -1.088   5.246  0.00  0.00    +0.005 A 
ATOM     10  C   UNL     1      -0.141  -1.111   4.449  0.00  0.00    -0.064 A 
ATOM     11  C   UNL     1      -0.103  -0.371   3.282  0.00  0.00    +0.005 A 
ATOM     12  C   UNL     1      -3.592  -0.298   5.746  0.00  0.00    +0.044 C 
ENDBRANCH   4  10
ENDBRANCH   1   4
BRANCH   1  13
ATOM     13  C   UNL     1       1.984  -4.153   4.809  0.00  0.00    -0.046 C 
BRANCH  13  14
ATOM     14  C   UNL     1       1.754  -5.593   4.343  0.00  0.00    -0.049 C 
ATOM     15  C   UNL     1       1.888  -5.664   2.821  0.00  0.00    +0.009 C 
ATOM     16  C   UNL     1       2.794  -6.510   4.990  0.00  0.00    +0.009 C 
ATOM     17  C   UNL     1       0.351  -6.043   4.754  0.00  0.00    +0.009 C 
ENDBRANCH  13  14
BRANCH  13  18
ATOM     18  C   UNL     1       3.339  -3.662   4.295  0.00  0.00    +0.107 C 
BRANCH  18  19
ATOM     19  N   UNL     1       3.647  -2.362   4.897  0.00  0.00    -0.340 N 
ATOM     20  C   UNL     1       3.860  -1.187   4.228  0.00  0.00    +0.104 A 
ATOM     21  C   UNL     1       4.108  -0.247   5.160  0.00  0.00    +0.101 A 
ATOM     22  N   UNL     1       4.048  -0.832   6.365  0.00  0.00    -0.352 N 
ATOM     23  C   UNL     1       3.767  -2.098   6.216  0.00  0.00    +0.173 A 
ATOM     24  H   UNL     1       4.187  -0.384   7.214  0.00  0.00    +0.166 HD
ENDBRANCH  18  19
ENDBRANCH  13  18
ENDBRANCH   1  13
TORSDOF 6
