REMARK  Name = ZINC00903817
REMARK  11 active torsions:
REMARK  status: ('A' for Active; 'I' for Inactive)
REMARK    1  A    between atoms: C_1  and  C_2
REMARK    2  A    between atoms: C_5  and  C_7
REMARK    3  A    between atoms: N_10  and  C_12
REMARK    4  A    between atoms: C_12  and  C_13
REMARK    5  A    between atoms: N_15  and  C_16
REMARK    6  A    between atoms: N_15  and  C_22
REMARK    7  A    between atoms: C_22  and  C_24
REMARK    8  A    between atoms: C_22  and  C_31
REMARK    9  A    between atoms: C_27  and  O_30
REMARK   10  A    between atoms: N_33  and  C_34
REMARK   11  A    between atoms: C_34  and  C_35
REMARK                            x       y       z     vdW  Elec       q    Type
REMARK                         _______ _______ _______ _____ _____    ______ ____
ROOT
ATOM      1  C   UNL     1       5.355  -5.674  -1.565  0.00  0.00    +0.244 C 
ATOM      2  O   UNL     1       4.990  -6.648  -2.189  0.00  0.00    -0.273 OA
ATOM      3  N   UNL     1       6.424  -4.968  -1.982  0.00  0.00    -0.254 N 
ENDROOT
BRANCH   3   4
ATOM      4  C   UNL     1       6.908  -3.908  -1.208  0.00  0.00    +0.037 A 
ATOM      5  C   UNL     1       6.764  -2.600  -1.651  0.00  0.00    +0.023 A 
ATOM      6  C   UNL     1       7.243  -1.556  -0.884  0.00  0.00    +0.002 A 
ATOM      7  C   UNL     1       7.865  -1.812   0.323  0.00  0.00    +0.000 A 
ATOM      8  C   UNL     1       8.011  -3.113   0.767  0.00  0.00    +0.002 A 
ATOM      9  C   UNL     1       7.529  -4.161   0.008  0.00  0.00    +0.023 A 
ENDBRANCH   3   4
BRANCH   1  10
ATOM     10  C   UNL     1       4.612  -5.254  -0.323  0.00  0.00    +0.264 C 
BRANCH  10  14
ATOM     11  C   UNL     1       1.453  -6.827  -0.276  0.00  0.00    +0.239 A 
ATOM     12  N   UNL     1       2.192  -7.683   0.448  0.00  0.00    -0.105 NA
ATOM     13  N   UNL     1       3.389  -7.205   0.500  0.00  0.00    -0.045 NA
ATOM     14  N   UNL     1       3.426  -6.097  -0.154  0.00  0.00    -0.154 N 
ATOM     15  N   UNL     1       2.260  -5.848  -0.641  0.00  0.00    -0.127 NA
BRANCH  11  20
ATOM     16  C   UNL     1      -3.094  -5.845  -2.163  0.00  0.00    +0.086 C 
ATOM     17  C   UNL     1      -1.974  -6.534  -1.427  0.00  0.00    +0.103 A 
ATOM     18  C   UNL     1      -2.074  -7.695  -0.751  0.00  0.00    +0.045 A 
ATOM     19  C   UNL     1      -0.799  -7.974  -0.219  0.00  0.00    +0.053 A 
ATOM     20  C   UNL     1       0.017  -6.959  -0.604  0.00  0.00    +0.175 A 
ATOM     21  O   UNL     1      -0.707  -6.095  -1.341  0.00  0.00    -0.457 OA
ENDBRANCH  11  20
ENDBRANCH  10  14
ENDBRANCH   1  10
BRANCH   3  22
ATOM     22  C   UNL     1       7.080  -5.311  -3.247  0.00  0.00    +0.197 C 
BRANCH  22  23
ATOM     23  C   UNL     1       8.145  -4.289  -3.554  0.00  0.00    -0.018 A 
ATOM     24  C   UNL     1       9.173  -4.073  -2.655  0.00  0.00    +0.009 A 
ATOM     25  C   UNL     1      10.149  -3.136  -2.934  0.00  0.00    +0.046 A 
ATOM     26  C   UNL     1      10.098  -2.413  -4.116  0.00  0.00    +0.117 A 
ATOM     27  C   UNL     1       9.066  -2.632  -5.017  0.00  0.00    +0.046 A 
ATOM     28  C   UNL     1       8.094  -3.574  -4.736  0.00  0.00    +0.009 A 
BRANCH  26  29
ATOM     29  O   UNL     1      11.058  -1.491  -4.393  0.00  0.00    -0.507 OA
ATOM     30  H   UNL     1      11.818  -1.846  -4.874  0.00  0.00    +0.292 HD
ENDBRANCH  26  29
ENDBRANCH  22  23
BRANCH  22  31
ATOM     31  C   UNL     1       7.711  -6.675  -3.132  0.00  0.00    +0.239 C 
ATOM     32  O   UNL     1       7.622  -7.299  -2.096  0.00  0.00    -0.273 OA
ATOM     33  N   UNL     1       8.375  -7.200  -4.181  0.00  0.00    -0.311 N 
ATOM     34  H   UNL     1       8.446  -6.701  -5.009  0.00  0.00    +0.149 HD
BRANCH  33  35
ATOM     35  C   UNL     1       8.988  -8.526  -4.069  0.00  0.00    +0.135 C 
BRANCH  35  36
ATOM     36  C   UNL     1       9.673  -8.884  -5.390  0.00  0.00    +0.135 C 
ATOM     37  C   UNL     1      10.299 -10.299  -5.305  0.00  0.00    +0.035 C 
ATOM     38  C   UNL     1      10.330 -10.698  -6.805  0.00  0.00    +0.031 C 
ATOM     39  C   UNL     1       9.054 -10.021  -7.351  0.00  0.00    +0.160 C 
ATOM     40  O   UNL     1       8.705  -8.963  -6.448  0.00  0.00    -0.375 OA
ENDBRANCH  35  36
ENDBRANCH  33  35
ENDBRANCH  22  31
ENDBRANCH   3  22
TORSDOF 10
