REMARK  Name = ZINC17043330
REMARK  9 active torsions:
REMARK  status: ('A' for Active; 'I' for Inactive)
REMARK    1  A    between atoms: C_1  and  C_2
REMARK    2  A    between atoms: N_9  and  CA_10
REMARK    3  A    between atoms: CA_10  and  CB_12
REMARK    4  A    between atoms: CA_10  and  C_19
REMARK    5  A    between atoms: CB_12  and  CG_13
REMARK    6  A    between atoms: C_23  and  C_25
REMARK    7  A    between atoms: C_28  and  O_33
REMARK    8  A    between atoms: C_29  and  O_31
REMARK    9  A    between atoms: O_31  and  C_32
REMARK                            x       y       z     vdW  Elec       q    Type
REMARK                         _______ _______ _______ _____ _____    ______ ____
ROOT
ATOM      1  C   UNK A   0      -0.340   1.851   0.439  0.00  0.00    +0.044 C 
ATOM      2  C   UNK A   0      -0.408   0.353   0.285  0.00  0.00    -0.050 A 
ATOM      3  C   UNK A   0      -0.626  -0.204  -0.966  0.00  0.00    +0.007 A 
ATOM      4  C   UNK A   0      -0.691  -1.573  -1.124  0.00  0.00    +0.047 A 
ATOM      5  C   UNK A   0      -0.538  -2.406  -0.024  0.00  0.00    +0.138 A 
ATOM      6  C   UNK A   0      -0.318  -1.841   1.240  0.00  0.00    +0.041 A 
ATOM      7  C   UNK A   0      -0.249  -0.459   1.389  0.00  0.00    +0.017 A 
ATOM      8  C   UNK A   0      -0.157  -2.749   2.400  0.00  0.00    +0.050 A 
ATOM      9  N   HIS A   1       0.051  -2.282   3.611  0.00  0.00    -0.371 N 
ATOM     10  C   UNK A   0      -0.238  -4.148   2.148  0.00  0.00    +0.072 A 
ATOM     11  C   UNK A   0      -0.455  -4.586   0.884  0.00  0.00    +0.138 A 
ATOM     12  O   UNK A   0      -0.599  -3.748  -0.158  0.00  0.00    -0.455 OA
ATOM     13  H   HIS A   1      -0.266  -2.777   4.383  0.00  0.00    +0.160 HD
ENDROOT
BRANCH  11  14
ATOM     14  C   UNK A   0      -0.536  -6.039   0.641  0.00  0.00    +0.021 A 
ATOM     15  C   UNK A   0      -0.396  -6.935   1.704  0.00  0.00    +0.015 A 
ATOM     16  C   UNK A   0      -0.472  -8.293   1.475  0.00  0.00    +0.050 A 
ATOM     17  C   UNK A   0      -0.687  -8.772   0.191  0.00  0.00    +0.158 A 
ATOM     18  C   UNK A   0      -0.827  -7.884  -0.874  0.00  0.00    +0.162 A 
ATOM     19  C   UNK A   0      -0.758  -6.522  -0.651  0.00  0.00    +0.061 A 
BRANCH  18  20
ATOM     20  O   UNK A   0      -1.037  -8.358  -2.131  0.00  0.00    -0.491 OA
ATOM     21  C   UNK A   0      -1.171  -7.391  -3.175  0.00  0.00    +0.277 C 
ENDBRANCH  18  20
BRANCH  17  22
ATOM     22  O   UNK A   0      -0.761 -10.111  -0.029  0.00  0.00    -0.503 OA
ATOM     23  H   UNK A   0      -1.655 -10.473   0.044  0.00  0.00    +0.292 HD
ENDBRANCH  17  22
ENDBRANCH  11  14
BRANCH   9  24
ATOM     24  CA  HIS A   1       0.762  -1.014   3.795  0.00  0.00    +0.199 C 
BRANCH  24  25
ATOM     25  C   HIS A   1      -0.187   0.019   4.345  0.00  0.00    +0.378 C 
ATOM     26  O   HIS A   1      -1.117  -0.324   5.055  0.00  0.00    -0.244 OA
ATOM     27  OXT HIS A   1      -0.025   1.198   4.080  0.00  0.00    -0.244 OA
ENDBRANCH  24  25
BRANCH  24  28
ATOM     28  CB  HIS A   1       1.919  -1.217   4.776  0.00  0.00    +0.090 C 
BRANCH  28  29
ATOM     29  CG  HIS A   1       2.931  -2.157   4.172  0.00  0.00    +0.036 A 
ATOM     30  CD2 HIS A   1       2.884  -3.502   4.213  0.00  0.00    +0.105 A 
ATOM     31  NE2 HIS A   1       3.989  -3.958   3.547  0.00  0.00    -0.352 N 
ATOM     32  HE2 HIS A   1       4.235  -4.886   3.407  0.00  0.00    +0.166 HD
ATOM     33  CE1 HIS A   1       4.674  -2.874   3.122  0.00  0.00    +0.171 A 
ATOM     34  ND1 HIS A   1       4.032  -1.801   3.495  0.00  0.00    -0.350 N 
ATOM     35  HD1 HIS A   1       4.309  -0.889   3.312  0.00  0.00    +0.166 HD
ENDBRANCH  28  29
ENDBRANCH  24  28
ENDBRANCH   9  24
TORSDOF 7
