REMARK  Name = ZINC12761659
REMARK  6 active torsions:
REMARK  status: ('A' for Active; 'I' for Inactive)
REMARK    1  A    between atoms: C_1  and  C_2
REMARK    2  A    between atoms: C_3  and  C_24
REMARK    3  A    between atoms: C_11  and  C_12
REMARK    4  A    between atoms: C_12  and  N_40
REMARK    5  A    between atoms: C_13  and  C_14
REMARK    6  A    between atoms: C_13  and  N_40
REMARK                            x       y       z     vdW  Elec       q    Type
REMARK                         _______ _______ _______ _____ _____    ______ ____
ROOT
ATOM      1  C   UNL     1       7.450   1.954  -1.481  0.00  0.00    -0.044 C 
ENDROOT
BRANCH   1  12
ATOM      2  C   UNL     1       8.369   5.110  -6.819  0.00  0.00    +0.046 C 
ATOM      3  C   UNL     1       8.063   4.577  -5.444  0.00  0.00    -0.022 A 
ATOM      4  C   UNL     1       7.560   5.272  -4.412  0.00  0.00    +0.017 A 
ATOM      5  N   UNL     1       7.416   4.455  -3.324  0.00  0.00    -0.358 N 
ATOM      6  H   UNL     1       7.072   4.731  -2.460  0.00  0.00    +0.166 HD
ATOM      7  C   UNL     1       7.834   3.180  -3.638  0.00  0.00    +0.048 A 
ATOM      8  C   UNL     1       8.257   3.201  -4.979  0.00  0.00    +0.006 A 
ATOM      9  C   UNL     1       8.739   2.035  -5.578  0.00  0.00    +0.048 A 
ATOM     10  C   UNL     1       8.796   0.868  -4.847  0.00  0.00    +0.124 A 
ATOM     11  C   UNL     1       8.382   0.850  -3.520  0.00  0.00    +0.042 A 
ATOM     12  C   UNL     1       7.900   1.992  -2.919  0.00  0.00    -0.038 A 
ATOM     13  F   UNL     1       9.262  -0.263  -5.421  0.00  0.00    -0.205 F 
ATOM     14  C   UNL     1       7.205   6.737  -4.446  0.00  0.00    +0.063 C 
ENDBRANCH   1  12
BRANCH   1  15
ATOM     15  N   UNL     1       5.979   1.861  -1.438  0.00  0.00    +0.384 N 
ATOM     16  H   UNL     1       5.679   1.005  -1.919  0.00  0.00    -0.085 HD
ATOM     17  H   UNL     1       5.573   2.679  -1.909  0.00  0.00    -0.085 HD
BRANCH  15  18
ATOM     18  C   UNL     1       5.509   1.823  -0.040  0.00  0.00    -0.046 C 
BRANCH  18  19
ATOM     19  C   UNL     1       4.005   1.728  -0.026  0.00  0.00    -0.062 A 
ATOM     20  C   UNL     1       3.250   2.908  -0.013  0.00  0.00    +0.004 A 
ATOM     21  C   UNL     1       1.894   2.891  -0.001  0.00  0.00    +0.033 A 
ATOM     22  C   UNL     1       1.218   1.656  -0.001  0.00  0.00    +0.134 A 
ATOM     23  C   UNL     1       2.018   0.406  -0.015  0.00  0.00    +0.134 A 
ATOM     24  C   UNL     1       3.423   0.503  -0.028  0.00  0.00    +0.035 A 
ATOM     25  N   UNL     1       1.098  -0.527  -0.011  0.00  0.00    -0.049 NA
ATOM     26  O   UNL     1       0.002  -0.004   0.002  0.00  0.00    -0.242 OA
ATOM     27  N   UNL     1      -0.014   1.210   0.009  0.00  0.00    -0.049 NA
ENDBRANCH  18  19
ENDBRANCH  15  18
ENDBRANCH   1  15
TORSDOF 4
