REMARK  Name = ZINC49331493
REMARK  7 active torsions:
REMARK  status: ('A' for Active; 'I' for Inactive)
REMARK    1  A    between atoms: C_1  and  C_2
REMARK    2  A    between atoms: N_6  and  C_7
REMARK    3  A    between atoms: C_7  and  C_8
REMARK    4  A    between atoms: C_8  and  O_9
REMARK    5  A    between atoms: O_9  and  C_10
REMARK    6  A    between atoms: C_10  and  C_12
REMARK    7  A    between atoms: C_14  and  N_20
REMARK                            x       y       z     vdW  Elec       q    Type
REMARK                         _______ _______ _______ _____ _____    ______ ____
ROOT
ATOM      1  C   UNL     1      -2.593   0.604   4.877  0.00  0.00    +0.339 C 
ATOM      2  O   UNL     1      -3.613   0.474   4.229  0.00  0.00    -0.245 OA
ENDROOT
BRANCH   1   3
ATOM      3  C   UNL     1      -2.663   1.056   6.281  0.00  0.00    +0.062 A 
ATOM      4  C   UNL     1      -3.900   1.330   6.867  0.00  0.00    +0.039 A 
ATOM      5  C   UNL     1      -3.959   1.754   8.185  0.00  0.00    +0.045 A 
ATOM      6  C   UNL     1      -2.787   1.906   8.920  0.00  0.00    +0.080 A 
ATOM      7  C   UNL     1      -1.560   1.635   8.338  0.00  0.00    +0.062 A 
ATOM      8  C   UNL     1      -1.493   1.206   7.027  0.00  0.00    +0.036 A 
ATOM      9 CL   UNL     1      -0.103   1.828   9.262  0.00  0.00    -0.082 Cl
ATOM     10 CL   UNL     1      -2.863   2.437  10.571  0.00  0.00    -0.080 Cl
BRANCH   5  11
ATOM     11  N   UNL     1      -5.195   2.029   8.776  0.00  0.00    -0.357 N 
ATOM     12  H   UNL     1      -6.012   1.923   8.264  0.00  0.00    +0.142 HD
ATOM     13  H   UNL     1      -5.236   2.326   9.699  0.00  0.00    +0.142 HD
ENDBRANCH   5  11
ENDBRANCH   1   3
BRANCH   1  14
ATOM     14  O   UNL     1      -1.399   0.335   4.314  0.00  0.00    -0.459 OA
BRANCH  14  15
ATOM     15  C   UNL     1      -1.406  -0.098   2.953  0.00  0.00    +0.254 C 
BRANCH  15  16
ATOM     16  C   UNL     1       0.030  -0.353   2.491  0.00  0.00    +0.164 C 
BRANCH  16  22
ATOM     17  C   UNL     1      -0.018   1.503   0.010  0.00  0.00    +0.084 C 
ATOM     18  C   UNL     1       0.002  -0.004   0.002  0.00  0.00    +0.084 A 
ATOM     19  N   UNL     1       0.008  -0.759  -1.063  0.00  0.00    -0.350 N 
ATOM     20  C   UNL     1       0.028  -2.047  -0.691  0.00  0.00    +0.101 A 
ATOM     21  C   UNL     1       0.034  -2.093   0.655  0.00  0.00    +0.105 A 
ATOM     22  N   UNL     1       0.023  -0.797   1.095  0.00  0.00    -0.333 N 
ATOM     23  H   UNL     1      -0.000  -0.438  -1.978  0.00  0.00    +0.166 HD
ENDBRANCH  16  22
ENDBRANCH  15  16
ENDBRANCH  14  15
ENDBRANCH   1  14
TORSDOF 6
