REMARK  Name = ZINC37271842
REMARK  8 active torsions:
REMARK  status: ('A' for Active; 'I' for Inactive)
REMARK    1  A    between atoms: C_1  and  C_2
REMARK    2  A    between atoms: C_3  and  C_10
REMARK    3  A    between atoms: C_10  and  N_11
REMARK    4  A    between atoms: N_11  and  C_12
REMARK    5  A    between atoms: C_18  and  C_20
REMARK    6  A    between atoms: C_20  and  C_21
REMARK    7  A    between atoms: C_20  and  C_22
REMARK    8  A    between atoms: C_20  and  C_23
REMARK                            x       y       z     vdW  Elec       q    Type
REMARK                         _______ _______ _______ _____ _____    ______ ____
ROOT
ATOM      1  N   UNL     1      -1.409  -0.178  -2.958  0.00  0.00    +0.385 N 
ATOM      2  H   UNL     1      -1.865  -1.079  -2.950  0.00  0.00    -0.085 HD
ATOM      3  H   UNL     1      -1.920   0.462  -2.368  0.00  0.00    -0.085 HD
ENDROOT
BRANCH   1   4
ATOM      4  C   UNL     1      -1.375   0.341  -4.331  0.00  0.00    -0.068 C 
ATOM      5  C   UNL     1      -0.592  -0.624  -5.223  0.00  0.00    -0.015 C 
ATOM      6  C   UNL     1      -1.273  -1.994  -5.213  0.00  0.00    -0.002 C 
ATOM      7  C   UNL     1      -2.702  -1.857  -5.742  0.00  0.00    +0.000 C 
ATOM      8  C   UNL     1      -3.486  -0.891  -4.850  0.00  0.00    +0.002 C 
ATOM      9  C   UNL     1      -2.804   0.479  -4.860  0.00  0.00    -0.020 C 
BRANCH   9  10
ATOM     10  C   UNL     1      -3.588   1.444  -3.968  0.00  0.00    -0.036 C 
ATOM     11  C   UNL     1      -2.652   2.543  -3.461  0.00  0.00    +0.011 C 
ATOM     12  C   UNL     1      -4.725   2.075  -4.775  0.00  0.00    +0.011 C 
ATOM     13  C   UNL     1      -4.170   0.680  -2.777  0.00  0.00    +0.011 C 
ENDBRANCH   9  10
ENDBRANCH   1   4
BRANCH   1  14
ATOM     14  C   UNL     1      -0.037  -0.320  -2.454  0.00  0.00    -0.026 C 
BRANCH  14  17
ATOM     15  C   UNL     1      -0.163   1.385   0.148  0.00  0.00    +0.067 C 
ATOM     16  C   UNL     1      -0.126  -0.120   0.079  0.00  0.00    +0.059 A 
ATOM     17  C   UNL     1      -0.071  -0.853  -1.045  0.00  0.00    +0.030 A 
ATOM     18  N   UNL     1      -0.053  -2.195  -0.674  0.00  0.00    -0.299 N 
ATOM     19  C   UNL     1      -0.004  -3.430  -1.283  0.00  0.00    +0.100 A 
ATOM     20  C   UNL     1      -0.004  -4.549  -0.560  0.00  0.00    +0.067 A 
ATOM     21  S   UNL     1      -0.075  -3.910   1.107  0.00  0.00    -0.058 S 
ATOM     22  C   UNL     1      -0.100  -2.181   0.695  0.00  0.00    +0.178 A 
ATOM     23  N   UNL     1      -0.137  -0.954   1.130  0.00  0.00    -0.226 NA
ENDBRANCH  14  17
ENDBRANCH   1  14
TORSDOF 4
