REMARK  Name = ZINC66375799
REMARK  9 active torsions:
REMARK  status: ('A' for Active; 'I' for Inactive)
REMARK    1  A    between atoms: C_1  and  C_2
REMARK    2  A    between atoms: C_4  and  C_26
REMARK    3  A    between atoms: C_5  and  N_9
REMARK    4  A    between atoms: C_6  and  C_8
REMARK    5  A    between atoms: C_10  and  C_12
REMARK    6  A    between atoms: C_12  and  N_13
REMARK    7  A    between atoms: N_13  and  C_14
REMARK    8  A    between atoms: C_16  and  N_22
REMARK    9  A    between atoms: C_23  and  C_25
REMARK                            x       y       z     vdW  Elec       q    Type
REMARK                         _______ _______ _______ _____ _____    ______ ____
ROOT
ATOM      1  N   UNL     1       0.980  -6.769   2.042  0.00  0.00    -0.333 N 
ATOM      2  H   UNL     1       1.194  -6.191   2.791  0.00  0.00    +0.147 HD
ENDROOT
BRANCH   1   3
ATOM      3  C   UNL     1       0.987  -8.159   2.206  0.00  0.00    +0.065 A 
ATOM      4  C   UNL     1       0.687  -8.987   1.133  0.00  0.00    +0.052 A 
ATOM      5  C   UNL     1       0.695 -10.364   1.299  0.00  0.00    +0.071 A 
ATOM      6  C   UNL     1       1.004 -10.912   2.539  0.00  0.00    +0.147 A 
ATOM      7  C   UNL     1       1.303 -10.086   3.607  0.00  0.00    +0.080 A 
ATOM      8  C   UNL     1       1.300  -8.712   3.443  0.00  0.00    +0.147 A 
ATOM      9  F   UNL     1       1.598  -7.907   4.486  0.00  0.00    -0.203 F 
ATOM     10  F   UNL     1       1.011 -12.254   2.700  0.00  0.00    -0.203 F 
BRANCH   5  11
ATOM     11  N   UNL     1       0.392 -11.202   0.217  0.00  0.00    -0.283 N 
ATOM     12  C   UNL     1       0.475 -10.732  -1.043  0.00  0.00    +0.214 C 
ATOM     13  O   UNL     1       0.890  -9.611  -1.246  0.00  0.00    -0.276 OA
ATOM     14  C   UNL     1       0.053 -11.600  -2.200  0.00  0.00    +0.109 C 
ATOM     15  H   UNL     1       0.121 -12.120   0.376  0.00  0.00    +0.155 HD
ENDBRANCH   5  11
ENDBRANCH   1   3
BRANCH   1  16
ATOM     16  C   UNL     1       0.650  -6.187   0.739  0.00  0.00    +0.198 C 
BRANCH  16  18
ATOM     17  N   UNL     1       0.446  -3.932  -0.257  0.00  0.00    -0.284 N 
ATOM     18  C   UNL     1       0.714  -4.684   0.829  0.00  0.00    +0.234 C 
ATOM     19  O   UNL     1       1.006  -4.152   1.879  0.00  0.00    -0.274 OA
ATOM     20  H   UNL     1       0.132  -4.352  -1.073  0.00  0.00    +0.155 HD
BRANCH  17  25
ATOM     21  C   UNL     1       1.153   1.693  -0.056  0.00  0.00    +0.044 C 
ATOM     22  C   UNL     1       0.965   0.199  -0.109  0.00  0.00    -0.050 A 
ATOM     23  C   UNL     1       1.636  -0.547  -1.061  0.00  0.00    +0.008 A 
ATOM     24  C   UNL     1       1.466  -1.917  -1.112  0.00  0.00    -0.029 A 
ATOM     25  C   UNL     1       0.621  -2.545  -0.207  0.00  0.00    +0.039 A 
ATOM     26  C   UNL     1      -0.052  -1.792   0.747  0.00  0.00    -0.029 A 
ATOM     27  C   UNL     1       0.126  -0.424   0.797  0.00  0.00    +0.008 A 
ATOM     28  C   UNL     1      -0.971  -2.469   1.731  0.00  0.00    +0.045 C 
ATOM     29  C   UNL     1       2.197  -2.729  -2.150  0.00  0.00    +0.045 C 
ENDBRANCH  17  25
ENDBRANCH  16  18
ENDBRANCH   1  16
TORSDOF 5
