REMARK  Name = ZINC13335247
REMARK  9 active torsions:
REMARK  status: ('A' for Active; 'I' for Inactive)
REMARK    1  A    between atoms: C_1  and  C_2
REMARK    2  A    between atoms: C_7  and  N_12
REMARK    3  A    between atoms: C_9  and  C_11
REMARK    4  A    between atoms: C_16  and  C_18
REMARK    5  A    between atoms: C_18  and  S_19
REMARK    6  A    between atoms: S_19  and  C_20
REMARK    7  A    between atoms: N_30  and  C_31
REMARK    8  A    between atoms: C_31  and  C_33
REMARK    9  A    between atoms: C_31  and  C_34
REMARK                            x       y       z     vdW  Elec       q    Type
REMARK                         _______ _______ _______ _____ _____    ______ ____
ROOT
ATOM      1  C   UNL     1       3.465   1.525   5.737  0.00  0.00    +0.173 C 
ENDROOT
BRANCH   1   6
ATOM      2  N   UNL     1      -0.020   1.094   2.454  0.00  0.00    -0.296 N 
ATOM      3  C   UNL     1       1.032   1.782   2.939  0.00  0.00    +0.306 C 
ATOM      4  O   UNL     1       1.393   2.806   2.392  0.00  0.00    -0.252 OA
ATOM      5  N   UNL     1       1.684   1.336   4.031  0.00  0.00    -0.239 N 
ATOM      6  C   UNL     1       2.736   2.024   4.516  0.00  0.00    +0.231 C 
ATOM      7  O   UNL     1       3.096   3.045   3.970  0.00  0.00    -0.274 OA
ATOM      8  H   UNL     1      -0.308   0.277   2.890  0.00  0.00    +0.151 HD
ATOM      9  H   UNL     1       1.396   0.519   4.467  0.00  0.00    +0.159 HD
BRANCH   2  15
ATOM     10  C   UNL     1      -4.340   1.027   0.049  0.00  0.00    +0.008 C 
ATOM     11  C   UNL     1      -2.904   1.556   0.038  0.00  0.00    -0.009 C 
ATOM     12  C   UNL     1      -2.188   1.063  -1.221  0.00  0.00    +0.003 C 
ATOM     13  C   UNL     1      -0.753   1.593  -1.232  0.00  0.00    +0.002 C 
ATOM     14  C   UNL     1      -0.013   1.086   0.008  0.00  0.00    +0.022 C 
ATOM     15  C   UNL     1      -0.729   1.579   1.267  0.00  0.00    +0.078 C 
ATOM     16  C   UNL     1      -2.164   1.050   1.278  0.00  0.00    +0.009 C 
ATOM     17  C   UNL     1      -2.143  -0.480   1.269  0.00  0.00    +0.009 C 
ENDBRANCH   2  15
ENDBRANCH   1   6
BRANCH   1  18
ATOM     18  S   UNL     1       4.818   2.658   6.137  0.00  0.00    -0.078 S 
BRANCH  18  19
ATOM     19  C   UNL     1       5.479   1.856   7.560  0.00  0.00    +0.173 A 
ATOM     20  N   UNL     1       4.911   0.750   7.973  0.00  0.00    -0.223 NA
ATOM     21  C   UNL     1       5.367   0.082   9.052  0.00  0.00    +0.079 A 
ATOM     22  C   UNL     1       4.764  -1.102   9.489  0.00  0.00    +0.028 A 
ATOM     23  C   UNL     1       5.256  -1.744  10.590  0.00  0.00    +0.002 A 
ATOM     24  C   UNL     1       6.348  -1.238  11.284  0.00  0.00    +0.001 A 
ATOM     25  C   UNL     1       6.959  -0.083  10.881  0.00  0.00    +0.015 A 
ATOM     26  C   UNL     1       6.478   0.593   9.760  0.00  0.00    +0.065 A 
ATOM     27  C   UNL     1       7.094   1.838   9.281  0.00  0.00    +0.263 A 
ATOM     28  O   UNL     1       8.053   2.327   9.848  0.00  0.00    -0.267 OA
ATOM     29  N   UNL     1       6.555   2.419   8.184  0.00  0.00    -0.273 N 
BRANCH  29  30
ATOM     30  C   UNL     1       7.130   3.662   7.663  0.00  0.00    +0.202 C 
ATOM     31  C   UNL     1       7.054   4.749   8.737  0.00  0.00    +0.043 C 
BRANCH  30  32
ATOM     32  C   UNL     1       8.570   3.429   7.285  0.00  0.00    +0.378 C 
ATOM     33  O   UNL     1       9.172   2.489   7.747  0.00  0.00    -0.244 OA
ATOM     34  O   UNL     1       9.184   4.266   6.434  0.00  0.00    -0.244 OA
ENDBRANCH  30  32
ENDBRANCH  29  30
ENDBRANCH  18  19
ENDBRANCH   1  18
TORSDOF 6
