REMARK  Name = ZINC38599380
REMARK  7 active torsions:
REMARK  status: ('A' for Active; 'I' for Inactive)
REMARK    1  A    between atoms: C_1  and  C_2
REMARK    2  A    between atoms: C_2  and  C_3
REMARK    3  A    between atoms: C_3  and  C_5
REMARK    4  A    between atoms: C_3  and  C_6
REMARK    5  A    between atoms: C_8  and  C_19
REMARK    6  A    between atoms: C_9  and  N_18
REMARK    7  A    between atoms: C_14  and  C_17
REMARK                            x       y       z     vdW  Elec       q    Type
REMARK                         _______ _______ _______ _____ _____    ______ ____
ROOT
ATOM      1  C   UNL     1       0.608  -2.124   1.358  0.00  0.00    +0.071 C 
ATOM      2  C   UNL     1       1.302  -2.848   0.218  0.00  0.00    +0.093 C 
ATOM      3  C   UNL     1       2.217  -3.814   0.444  0.00  0.00    +0.195 C 
ATOM      4  O   UNL     1       2.653  -4.244   1.642  0.00  0.00    -0.448 OA
ATOM      5  C   UNL     1       1.813  -3.999   2.773  0.00  0.00    +0.342 C 
ATOM      6  C   UNL     1       1.325  -2.558   2.607  0.00  0.00    +0.025 C 
ATOM      7  C   UNL     1       1.690  -1.946   3.707  0.00  0.00    +0.066 C 
ATOM      8  N   UNL     1       2.425  -2.778   4.488  0.00  0.00    -0.155 NA
ATOM      9  N   UNL     1       2.565  -3.938   4.029  0.00  0.00    -0.138 NA
ATOM     10  C   UNL     1       1.344  -0.521   4.055  0.00  0.00    +0.067 C 
ENDROOT
BRANCH   3  11
ATOM     11  N   UNL     1       2.759  -4.418  -0.662  0.00  0.00    -0.329 N 
ATOM     12  H   UNL     1       2.480  -4.146  -1.550  0.00  0.00    +0.145 HD
ATOM     13  H   UNL     1       3.422  -5.119  -0.556  0.00  0.00    +0.145 HD
ENDBRANCH   3  11
BRANCH   1  14
ATOM     14  C   UNL     1       0.730  -0.610   1.176  0.00  0.00    -0.002 C 
ATOM     15  C   UNL     1      -0.101  -0.173  -0.033  0.00  0.00    +0.008 C 
BRANCH  14  17
ATOM     16  C   UNL     1       2.335   1.282   0.880  0.00  0.00    +0.004 C 
ATOM     17  C   UNL     1       2.197  -0.241   0.947  0.00  0.00    +0.001 C 
ENDBRANCH  14  17
ENDBRANCH   1  14
BRANCH   2  18
ATOM     18  C   UNL     1       0.976  -2.498  -1.131  0.00  0.00    +0.100 C 
ATOM     19  N   UNL     1       0.717  -2.220  -2.202  0.00  0.00    -0.191 NA
ENDBRANCH   2  18
TORSDOF 4
