REMARK  Name = ZINC37808967
REMARK  6 active torsions:
REMARK  status: ('A' for Active; 'I' for Inactive)
REMARK    1  A    between atoms: C_1  and  N_2
REMARK    2  A    between atoms: N_2  and  C_3
REMARK    3  A    between atoms: N_2  and  S_4
REMARK    4  A    between atoms: S_4  and  N_7
REMARK    5  A    between atoms: C_13  and  C_15
REMARK    6  A    between atoms: C_18  and  O_22
REMARK                            x       y       z     vdW  Elec       q    Type
REMARK                         _______ _______ _______ _____ _____    ______ ____
ROOT
ATOM      1  N   UNL     1       1.581  -1.045  -1.877  0.00  0.00    -0.163 NA
ATOM      2  C   UNL     1       2.276  -0.043  -2.697  0.00  0.00    +0.129 C 
ATOM      3  C   UNL     1       3.549   0.393  -1.963  0.00  0.00    +0.125 C 
ATOM      4  N   UNL     1       4.283  -0.808  -1.540  0.00  0.00    -0.300 N 
ATOM      5  C   UNL     1       3.588  -1.810  -0.720  0.00  0.00    +0.125 C 
ATOM      6  C   UNL     1       2.316  -2.244  -1.449  0.00  0.00    +0.129 C 
ATOM      7  C   UNL     1       5.569  -0.988  -1.898  0.00  0.00    +0.202 C 
ATOM      8  O   UNL     1       6.132  -0.154  -2.576  0.00  0.00    -0.277 OA
ENDROOT
BRANCH   7   9
ATOM      9  C   UNL     1       6.309  -2.225  -1.457  0.00  0.00    +0.019 C 
ATOM     10  C   UNL     1       5.975  -3.412  -2.387  0.00  0.00    +0.023 C 
ATOM     11  C   UNL     1       7.297  -4.194  -2.528  0.00  0.00    +0.097 C 
ATOM     12  C   UNL     1       8.318  -3.414  -1.671  0.00  0.00    -0.050 C 
ATOM     13  N   UNL     1       7.774  -2.032  -1.603  0.00  0.00    +0.388 N 
ATOM     14  H   UNL     1       7.981  -1.530  -2.453  0.00  0.00    -0.085 HD
ATOM     15  H   UNL     1       8.147  -1.544  -0.803  0.00  0.00    -0.085 HD
BRANCH  11  16
ATOM     16  O   UNL     1       7.142  -5.524  -2.030  0.00  0.00    -0.394 OA
ATOM     17  H   UNL     1       7.942  -6.064  -2.093  0.00  0.00    +0.210 HD
ENDBRANCH  11  16
ENDBRANCH   7   9
BRANCH   1  18
ATOM     18  S   UNL     1      -0.000  -0.824  -1.437  0.00  0.00    +0.099 S 
ATOM     19  O   UNL     1      -0.531  -2.115  -1.167  0.00  0.00    -0.141 OA
ATOM     20  O   UNL     1      -0.572   0.049  -2.401  0.00  0.00    -0.141 OA
BRANCH  18  22
ATOM     21  C   UNL     1      -0.018   1.461   0.010  0.00  0.00    +0.132 C 
ATOM     22  N   UNL     1       0.002  -0.004   0.002  0.00  0.00    -0.172 NA
ATOM     23  C   UNL     1       0.024  -0.743   1.267  0.00  0.00    +0.132 C 
ENDBRANCH  18  22
ENDBRANCH   1  18
TORSDOF 4
