REMARK  Name = ZINC23095780
REMARK  10 active torsions:
REMARK  status: ('A' for Active; 'I' for Inactive)
REMARK    1  A    between atoms: C_1  and  C_2
REMARK    2  A    between atoms: C_2  and  O_3
REMARK    3  A    between atoms: O_3  and  C_4
REMARK    4  A    between atoms: C_4  and  C_6
REMARK    5  A    between atoms: C_7  and  C_25
REMARK    6  A    between atoms: C_8  and  C_22
REMARK    7  A    between atoms: C_10  and  N_11
REMARK    8  A    between atoms: C_12  and  C_14
REMARK    9  A    between atoms: C_14  and  N_15
REMARK   10  A    between atoms: N_18  and  C_21
REMARK                            x       y       z     vdW  Elec       q    Type
REMARK                         _______ _______ _______ _____ _____    ______ ____
ROOT
ATOM      1  C   UNL     1       1.450  -2.345  -2.518  0.00  0.00    +0.091 A 
ATOM      2  C   UNL     1       2.814  -2.606  -2.513  0.00  0.00    -0.015 A 
ATOM      3  C   UNL     1       3.339  -3.113  -3.671  0.00  0.00    +0.079 A 
ATOM      4  S   UNL     1       1.916  -3.213  -4.737  0.00  0.00    -0.068 S 
ATOM      5  C   UNL     1       0.743  -2.625  -3.689  0.00  0.00    +0.087 A 
ATOM      6  C   UNL     1       3.668  -2.345  -1.299  0.00  0.00    +0.046 C 
ENDROOT
BRANCH   3   7
ATOM      7  C   UNL     1       4.726  -3.482  -3.960  0.00  0.00    +0.248 C 
ATOM      8  O   UNL     1       5.583  -3.348  -3.106  0.00  0.00    -0.270 OA
ATOM      9  N   UNL     1       5.055  -3.971  -5.173  0.00  0.00    -0.325 N 
ATOM     10  H   UNL     1       4.372  -4.078  -5.853  0.00  0.00    +0.145 HD
ATOM     11  H   UNL     1       5.973  -4.215  -5.365  0.00  0.00    +0.145 HD
ENDBRANCH   3   7
BRANCH   5  12
ATOM     12  N   UNL     1      -0.607  -2.456  -3.930  0.00  0.00    -0.278 N 
ATOM     13  C   UNL     1      -1.123  -2.783  -5.131  0.00  0.00    +0.232 C 
ATOM     14  O   UNL     1      -0.403  -3.225  -6.000  0.00  0.00    -0.274 OA
ATOM     15  H   UNL     1      -1.183  -2.103  -3.234  0.00  0.00    +0.155 HD
BRANCH  13  16
ATOM     16  C   UNL     1      -2.596  -2.599  -5.393  0.00  0.00    +0.180 C 
BRANCH  16  17
ATOM     17  N   UNL     1      -2.906  -3.025  -6.765  0.00  0.00    -0.298 NA
ATOM     18  C   UNL     1      -2.267  -2.139  -7.748  0.00  0.00    +0.066 C 
ATOM     19  C   UNL     1      -2.565  -2.650  -9.160  0.00  0.00    -0.064 C 
ATOM     20  N   UNL     1      -4.018  -2.681  -9.373  0.00  0.00    +0.379 N 
ATOM     21  C   UNL     1      -4.638  -3.588  -8.400  0.00  0.00    -0.064 C 
ATOM     22  C   UNL     1      -4.358  -3.085  -6.982  0.00  0.00    +0.066 C 
ATOM     23  C   UNL     1      -4.302  -3.154 -10.735  0.00  0.00    -0.096 C 
ATOM     24  H   UNL     1      -4.394  -1.752  -9.255  0.00  0.00    -0.082 HD
ENDBRANCH  16  17
ENDBRANCH  13  16
ENDBRANCH   5  12
BRANCH   1  25
ATOM     25  C   UNL     1       0.776  -1.800  -1.335  0.00  0.00    +0.342 C 
ATOM     26  O   UNL     1       0.312  -2.551  -0.499  0.00  0.00    -0.245 OA
BRANCH  25  27
ATOM     27  O   UNL     1       0.671  -0.465  -1.174  0.00  0.00    -0.461 OA
BRANCH  27  29
ATOM     28  C   UNL     1      -0.019   1.526   0.010  0.00  0.00    +0.048 C 
ATOM     29  C   UNL     1       0.002  -0.004   0.002  0.00  0.00    +0.229 C 
ENDBRANCH  27  29
ENDBRANCH  25  27
ENDBRANCH   1  25
TORSDOF 7
