REMARK  Name = ZINC05822599
REMARK  10 active torsions:
REMARK  status: ('A' for Active; 'I' for Inactive)
REMARK    1  A    between atoms: C_1  and  C_2
REMARK    2  A    between atoms: C_2  and  C_3
REMARK    3  A    between atoms: C_2  and  C_4
REMARK    4  A    between atoms: C_9  and  O_10
REMARK    5  A    between atoms: O_10  and  C_11
REMARK    6  A    between atoms: C_11  and  C_12
REMARK    7  A    between atoms: N_14  and  N_15
REMARK    8  A    between atoms: C_16  and  C_17
REMARK    9  A    between atoms: C_16  and  C_18
REMARK   10  A    between atoms: C_21  and  N_24
REMARK                            x       y       z     vdW  Elec       q    Type
REMARK                         _______ _______ _______ _____ _____    ______ ____
ROOT
ATOM      1  C   UNL     1      -0.916  -1.478  -5.492  0.00  0.00    +0.270 C 
ATOM      2  O   UNL     1       0.131  -0.873  -5.588  0.00  0.00    -0.270 OA
ATOM      3  N   UNL     1      -1.019  -2.728  -5.985  0.00  0.00    -0.204 N 
ATOM      4  H   UNL     1      -1.857  -3.212  -5.909  0.00  0.00    +0.177 HD
ENDROOT
BRANCH   3   5
ATOM      5  N   UNL     1       0.082  -3.329  -6.608  0.00  0.00    -0.184 NA
ATOM      6  C   UNL     1      -0.048  -4.485  -7.184  0.00  0.00    +0.063 C 
ATOM      7  C   UNL     1       1.169  -5.216  -7.690  0.00  0.00    +0.068 C 
BRANCH   6   8
ATOM      8  C   UNL     1      -1.386  -5.082  -7.344  0.00  0.00    -0.002 A 
ATOM      9  C   UNL     1      -2.487  -4.269  -7.628  0.00  0.00    +0.011 A 
ATOM     10  C   UNL     1      -3.736  -4.830  -7.777  0.00  0.00    +0.023 A 
ATOM     11  C   UNL     1      -3.902  -6.205  -7.645  0.00  0.00    +0.025 A 
ATOM     12  C   UNL     1      -2.809  -7.017  -7.361  0.00  0.00    +0.023 A 
ATOM     13  C   UNL     1      -1.556  -6.463  -7.217  0.00  0.00    +0.011 A 
BRANCH  11  14
ATOM     14  N   UNL     1      -5.168  -6.770  -7.796  0.00  0.00    -0.358 N 
ATOM     15  H   UNL     1      -5.931  -6.204  -7.993  0.00  0.00    +0.142 HD
ATOM     16  H   UNL     1      -5.286  -7.728  -7.704  0.00  0.00    +0.142 HD
ENDBRANCH  11  14
ENDBRANCH   6   8
ENDBRANCH   3   5
BRANCH   1  17
ATOM     17  C   UNL     1      -2.102  -0.832  -4.822  0.00  0.00    +0.326 C 
BRANCH  17  18
ATOM     18  O   UNL     1      -1.746   0.481  -4.387  0.00  0.00    -0.482 OA
BRANCH  18  24
ATOM     19  C   UNL     1      -2.432   2.489  -3.310  0.00  0.00    -0.003 A 
ATOM     20  C   UNL     1      -3.414   3.225  -2.677  0.00  0.00    +0.007 A 
ATOM     21  C   UNL     1      -4.671   2.682  -2.485  0.00  0.00    +0.001 A 
ATOM     22  C   UNL     1      -4.948   1.401  -2.925  0.00  0.00    +0.004 A 
ATOM     23  C   UNL     1      -3.969   0.660  -3.560  0.00  0.00    +0.046 A 
ATOM     24  C   UNL     1      -2.709   1.206  -3.759  0.00  0.00    +0.125 A 
BRANCH  19  26
ATOM     25  C   UNL     1      -1.179   4.352  -4.363  0.00  0.00    +0.012 C 
ATOM     26  C   UNL     1      -1.062   3.081  -3.519  0.00  0.00    +0.016 C 
ATOM     27  C   UNL     1      -0.442   3.425  -2.163  0.00  0.00    +0.012 C 
ENDBRANCH  19  26
ENDBRANCH  18  24
ENDBRANCH  17  18
ENDBRANCH   1  17
TORSDOF 7
