REMARK  Name = ZINC40953575
REMARK  5 active torsions:
REMARK  status: ('A' for Active; 'I' for Inactive)
REMARK    1  A    between atoms: C_1  and  C_2
REMARK    2  A    between atoms: C_7  and  O_10
REMARK    3  A    between atoms: O_10  and  C_11
REMARK    4  A    between atoms: C_11  and  C_13
REMARK    5  A    between atoms: C_13  and  N_20
REMARK                            x       y       z     vdW  Elec       q    Type
REMARK                         _______ _______ _______ _____ _____    ______ ____
ROOT
ATOM      1  C   UNL     1       2.809  -4.223  -1.054  0.00  0.00    +0.028 C 
ATOM      2  C   UNL     1       4.137  -3.460  -1.223  0.00  0.00    -0.002 C 
ATOM      3  C   UNL     1       5.234  -3.947  -0.257  0.00  0.00    -0.001 C 
ATOM      4  C   UNL     1       4.707  -4.203   1.129  0.00  0.00    -0.000 C 
ATOM      5  C   UNL     1       4.341  -5.697   1.246  0.00  0.00    -0.000 C 
ATOM      6  C   UNL     1       3.049  -6.000   0.649  0.00  0.00    -0.001 C 
ATOM      7  C   UNL     1       3.015  -5.701  -0.863  0.00  0.00    -0.002 C 
ENDROOT
BRANCH   1   8
ATOM      8  N   UNL     1       1.984  -4.008  -2.250  0.00  0.00    +0.389 N 
ATOM      9  H   UNL     1       1.821  -3.020  -2.373  0.00  0.00    -0.088 HD
ATOM     10  H   UNL     1       2.464  -4.373  -3.059  0.00  0.00    -0.088 HD
ATOM     11  H   UNL     1       1.101  -4.483  -2.139  0.00  0.00    -0.088 HD
ENDBRANCH   1   8
BRANCH   1  12
ATOM     12  C   UNL     1       2.081  -3.673   0.145  0.00  0.00    +0.296 C 
ATOM     13  O   UNL     1       2.487  -2.676   0.694  0.00  0.00    -0.252 OA
BRANCH  12  14
ATOM     14  O   UNL     1       0.982  -4.292   0.604  0.00  0.00    -0.462 OA
BRANCH  14  20
ATOM     15  C   UNL     1      -2.885  -5.812   1.632  0.00  0.00    +0.007 C 
ATOM     16  C   UNL     1      -1.385  -5.521   1.688  0.00  0.00    -0.011 C 
ATOM     17  C   UNL     1      -0.794  -6.125   2.963  0.00  0.00    +0.003 C 
ATOM     18  C   UNL     1       0.706  -5.833   3.019  0.00  0.00    +0.004 C 
ATOM     19  C   UNL     1       0.932  -4.320   3.021  0.00  0.00    +0.044 C 
ATOM     20  C   UNL     1       0.342  -3.716   1.745  0.00  0.00    +0.177 C 
ATOM     21  C   UNL     1      -1.159  -4.007   1.689  0.00  0.00    +0.048 C 
ENDBRANCH  14  20
ENDBRANCH  12  14
ENDBRANCH   1  12
TORSDOF 4
