REMARK  Name = ZINC31935387
REMARK  10 active torsions:
REMARK  status: ('A' for Active; 'I' for Inactive)
REMARK    1  A    between atoms: C_1  and  C_2
REMARK    2  A    between atoms: C_9  and  C_16
REMARK    3  A    between atoms: C_10  and  C_11
REMARK    4  A    between atoms: C_11  and  C_13
REMARK    5  A    between atoms: C_11  and  C_14
REMARK    6  A    between atoms: C_14  and  N_15
REMARK    7  A    between atoms: C_18  and  O_24
REMARK    8  A    between atoms: C_21  and  O_22
REMARK    9  A    between atoms: O_22  and  C_23
REMARK   10  A    between atoms: O_24  and  C_25
REMARK                            x       y       z     vdW  Elec       q    Type
REMARK                         _______ _______ _______ _____ _____    ______ ____
ROOT
ATOM      1  C   UNL     1       4.824   1.554   0.851  0.00  0.00    +0.044 C 
ATOM      2  C   UNL     1       3.934   0.361   0.621  0.00  0.00    -0.046 A 
ATOM      3  C   UNL     1       2.551   0.456   0.853  0.00  0.00    +0.021 A 
ATOM      4  C   UNL     1       1.751  -0.611   0.647  0.00  0.00    +0.093 A 
ATOM      5  N   UNL     1       2.270  -1.796   0.212  0.00  0.00    -0.303 N 
ATOM      6  C   UNL     1       3.616  -1.920  -0.023  0.00  0.00    +0.139 A 
ATOM      7  C   UNL     1       4.465  -0.815   0.188  0.00  0.00    +0.050 A 
ATOM      8  N   UNL     1       3.854  -3.158  -0.432  0.00  0.00    -0.227 NA
ATOM      9  C   UNL     1       2.698  -3.839  -0.469  0.00  0.00    +0.097 A 
ATOM     10  C   UNL     1       1.697  -3.005  -0.070  0.00  0.00    +0.052 A 
ENDROOT
BRANCH   9  11
ATOM     11  C   UNL     1       2.537  -5.257  -0.875  0.00  0.00    +0.047 A 
ATOM     12  C   UNL     1       1.284  -5.861  -0.823  0.00  0.00    +0.059 A 
ATOM     13  C   UNL     1       1.139  -7.183  -1.207  0.00  0.00    +0.121 A 
ATOM     14  C   UNL     1       2.242  -7.910  -1.633  0.00  0.00    +0.049 A 
ATOM     15  C   UNL     1       3.489  -7.317  -1.682  0.00  0.00    +0.050 A 
ATOM     16  C   UNL     1       3.645  -5.993  -1.305  0.00  0.00    +0.130 A 
BRANCH  16  17
ATOM     17  O   UNL     1       4.872  -5.411  -1.353  0.00  0.00    -0.494 OA
ATOM     18  C   UNL     1       5.958  -6.223  -1.802  0.00  0.00    +0.277 C 
ENDBRANCH  16  17
BRANCH  13  19
ATOM     19  O   UNL     1      -0.086  -7.773  -1.162  0.00  0.00    -0.495 OA
ATOM     20  C   UNL     1      -0.163  -9.141  -1.567  0.00  0.00    +0.277 C 
ENDBRANCH  13  19
ENDBRANCH   9  11
BRANCH  10  21
ATOM     21  C   UNL     1       0.234  -3.350   0.041  0.00  0.00    +0.018 C 
ATOM     22  C   UNL     1       0.057  -4.513   1.019  0.00  0.00    +0.012 C 
BRANCH  21  23
ATOM     23  C   UNL     1      -0.300  -3.754  -1.335  0.00  0.00    -0.077 C 
BRANCH  23  24
ATOM     24  N   UNL     1      -1.688  -4.217  -1.205  0.00  0.00    +0.379 N 
ATOM     25  H   UNL     1      -2.072  -4.508  -2.194  0.00  0.00    -0.090 HD
ATOM     26  H   UNL     1      -2.308  -3.406  -0.794  0.00  0.00    -0.090 HD
ATOM     27  H   UNL     1      -1.723  -5.084  -0.528  0.00  0.00    -0.090 HD
ENDBRANCH  23  24
ENDBRANCH  21  23
ENDBRANCH  10  21
TORSDOF 6
