REMARK  Name = ZINC42072935
REMARK  3 active torsions:
REMARK  status: ('A' for Active; 'I' for Inactive)
REMARK    1  A    between atoms: C_11  and  N_13
REMARK    2  A    between atoms: N_13  and  C_14
REMARK    3  A    between atoms: C_14  and  C_15
REMARK                            x       y       z     vdW  Elec       q    Type
REMARK                         _______ _______ _______ _____ _____    ______ ____
ROOT
ATOM      1  C   UNL     1      -0.017   1.380   0.010  0.00  0.00    +0.020 A 
ATOM      2  C   UNL     1       1.175   2.084   0.002  0.00  0.00    +0.009 A 
ATOM      3  C   UNL     1       2.373   1.407  -0.013  0.00  0.00    -0.000 A 
ATOM      4  C   UNL     1       2.406   0.018  -0.021  0.00  0.00    +0.040 A 
ATOM      5  C   UNL     1       1.203  -0.685  -0.013  0.00  0.00    +0.043 A 
ATOM      6  C   UNL     1       0.002  -0.004   0.002  0.00  0.00    +0.043 A 
ATOM      7 CL   UNL     1      -1.492  -0.888   0.011  0.00  0.00    -0.083 Cl
ATOM      8  N   UNL     1       3.726  -0.434  -0.035  0.00  0.00    -0.284 N 
ATOM      9  C   UNL     1       4.610   0.579  -0.038  0.00  0.00    +0.239 C 
ATOM     10  O   UNL     1       5.818   0.480  -0.050  0.00  0.00    -0.273 OA
ATOM     11  C   UNL     1       3.813   1.866  -0.024  0.00  0.00    +0.173 C 
ATOM     12  H   UNL     1       3.977  -1.371  -0.042  0.00  0.00    +0.155 HD
ENDROOT
BRANCH  11  13
ATOM     13  N   UNL     1       4.114   2.644   1.185  0.00  0.00    -0.299 NA
ATOM     14  H   UNL     1       3.297   3.141   1.508  0.00  0.00    +0.123 HD
BRANCH  13  15
ATOM     15  C   UNL     1       5.234   3.566   0.952  0.00  0.00    +0.115 C 
BRANCH  15  16
ATOM     16  C   UNL     1       5.517   4.357   2.231  0.00  0.00    +0.158 C 
ATOM     17  C   UNL     1       6.683   5.321   1.989  0.00  0.00    +0.192 C 
ATOM     18  O   UNL     1       6.868   6.134   3.151  0.00  0.00    -0.375 OA
ATOM     19  C   UNL     1       5.706   6.885   3.516  0.00  0.00    +0.188 C 
ATOM     20  C   UNL     1       4.541   5.921   3.758  0.00  0.00    +0.188 C 
ATOM     21  O   UNL     1       4.355   5.107   2.597  0.00  0.00    -0.371 OA
ENDBRANCH  15  16
ENDBRANCH  13  15
ENDBRANCH  11  13
TORSDOF 3
