REMARK  Name = ZINC07664996
REMARK  9 active torsions:
REMARK  status: ('A' for Active; 'I' for Inactive)
REMARK    1  A    between atoms: C_1  and  C_2
REMARK    2  A    between atoms: C_2  and  C_3
REMARK    3  A    between atoms: C_3  and  C_4
REMARK    4  A    between atoms: C_3  and  N_5
REMARK    5  A    between atoms: C_6  and  S_8
REMARK    6  A    between atoms: S_8  and  C_9
REMARK    7  A    between atoms: C_9  and  C_10
REMARK    8  A    between atoms: C_18  and  C_22
REMARK    9  A    between atoms: C_19  and  C_21
REMARK                            x       y       z     vdW  Elec       q    Type
REMARK                         _______ _______ _______ _____ _____    ______ ____
ROOT
ATOM      1  C   UNL     1       6.517   0.958   3.987  0.00  0.00    -0.020 A 
ATOM      2  C   UNL     1       6.870   2.202   4.399  0.00  0.00    +0.097 A 
ATOM      3  C   UNL     1       8.235   2.561   4.457  0.00  0.00    +0.338 A 
ATOM      4  O   UNL     1       8.538   3.680   4.828  0.00  0.00    -0.245 OA
ATOM      5  O   UNL     1       9.205   1.700   4.116  0.00  0.00    -0.422 OA
ATOM      6  C   UNL     1       8.922   0.447   3.698  0.00  0.00    +0.140 A 
ATOM      7  C   UNL     1       7.584   0.021   3.620  0.00  0.00    +0.022 A 
ATOM      8  C   UNL     1       7.288  -1.277   3.194  0.00  0.00    +0.015 A 
ATOM      9  C   UNL     1       8.313  -2.132   2.856  0.00  0.00    -0.047 A 
ATOM     10  C   UNL     1       9.633  -1.711   2.938  0.00  0.00    -0.044 A 
ATOM     11  C   UNL     1       9.939  -0.430   3.348  0.00  0.00    +0.050 A 
ATOM     12  C   UNL     1      10.742  -2.661   2.565  0.00  0.00    +0.044 C 
ATOM     13  C   UNL     1       8.000  -3.532   2.396  0.00  0.00    +0.044 C 
ENDROOT
BRANCH   1  14
ATOM     14  C   UNL     1       5.069   0.548   3.916  0.00  0.00    +0.113 C 
BRANCH  14  15
ATOM     15  S   UNL     1       4.536   0.512   2.182  0.00  0.00    -0.088 S 
BRANCH  15  17
ATOM     16  N   UNL     1       2.148  -0.104   1.172  0.00  0.00    -0.366 N 
ATOM     17  C   UNL     1       2.845   0.022   2.266  0.00  0.00    +0.126 C 
ATOM     18  N   UNL     1       2.261  -0.227   3.487  0.00  0.00    -0.339 N 
ATOM     19  H   UNL     1       1.331  -0.496   3.533  0.00  0.00    +0.144 HD
ATOM     20  H   UNL     1       2.780  -0.133   4.301  0.00  0.00    +0.144 HD
ATOM     21  H   UNL     1       2.559   0.072   0.311  0.00  0.00    +0.162 HD
BRANCH  16  22
ATOM     22  C   UNL     1       0.742  -0.511   1.242  0.00  0.00    +0.078 C 
ATOM     23  C   UNL     1       0.655  -2.037   1.299  0.00  0.00    +0.030 C 
BRANCH  22  25
ATOM     24  C   UNL     1      -0.019   1.526   0.010  0.00  0.00    +0.006 C 
ATOM     25  C   UNL     1       0.002  -0.004   0.002  0.00  0.00    +0.021 C 
ENDBRANCH  22  25
ENDBRANCH  16  22
ENDBRANCH  15  17
ENDBRANCH  14  15
ENDBRANCH   1  14
TORSDOF 5
