REMARK  Name = ZINC49799980
REMARK  7 active torsions:
REMARK  status: ('A' for Active; 'I' for Inactive)
REMARK    1  A    between atoms: C_1  and  C_2
REMARK    2  A    between atoms: C_7  and  N_12
REMARK    3  A    between atoms: C_9  and  C_11
REMARK    4  A    between atoms: N_12  and  C_13
REMARK    5  A    between atoms: C_13  and  C_14
REMARK    6  A    between atoms: C_14  and  C_15
REMARK    7  A    between atoms: N_21  and  C_22
REMARK                            x       y       z     vdW  Elec       q    Type
REMARK                         _______ _______ _______ _____ _____    ______ ____
ROOT
ATOM      1  N   UNL     1      -0.497  -2.633   1.525  0.00  0.00    +0.381 N 
ATOM      2  H   UNL     1      -1.058  -2.259   2.276  0.00  0.00    -0.086 HD
ATOM      3  H   UNL     1      -0.866  -2.318   0.640  0.00  0.00    -0.086 HD
ENDROOT
BRANCH   1   9
ATOM      4  C   UNL     1       0.329   1.469   0.537  0.00  0.00    +0.008 C 
ATOM      5  C   UNL     1       0.309  -0.059   0.463  0.00  0.00    -0.013 C 
ATOM      6  C   UNL     1       1.132  -0.522  -0.741  0.00  0.00    +0.003 C 
ATOM      7  C   UNL     1       1.111  -2.050  -0.815  0.00  0.00    -0.001 C 
ATOM      8  C   UNL     1       1.712  -2.631   0.467  0.00  0.00    -0.015 C 
ATOM      9  C   UNL     1       0.889  -2.168   1.671  0.00  0.00    -0.069 C 
ATOM     10  C   UNL     1       0.909  -0.640   1.745  0.00  0.00    -0.025 C 
ATOM     11  C   UNL     1       0.086  -0.176   2.949  0.00  0.00    +0.006 C 
ENDBRANCH   1   9
BRANCH   1  12
ATOM     12  C   UNL     1      -0.529  -4.100   1.574  0.00  0.00    -0.084 C 
BRANCH  12  13
ATOM     13  C   UNL     1      -1.973  -4.585   1.422  0.00  0.00    -0.034 C 
BRANCH  13  14
ATOM     14  C   UNL     1      -1.996  -6.114   1.386  0.00  0.00    -0.071 C 
ATOM     15  C   UNL     1      -1.275  -6.605   0.130  0.00  0.00    -0.015 C 
ATOM     16  C   UNL     1      -1.301  -8.136   0.098  0.00  0.00    -0.003 C 
ATOM     17  C   UNL     1      -2.755  -8.613   0.157  0.00  0.00    -0.019 C 
ATOM     18  C   UNL     1      -3.422  -8.047   1.412  0.00  0.00    -0.079 C 
ATOM     19  N   UNL     1      -3.388  -6.581   1.369  0.00  0.00    +0.380 N 
ATOM     20  C   UNL     1      -4.098  -6.042   2.537  0.00  0.00    -0.096 C 
ATOM     21  H   UNL     1      -3.839  -6.259   0.526  0.00  0.00    -0.082 HD
ENDBRANCH  13  14
ENDBRANCH  12  13
ENDBRANCH   1  12
TORSDOF 4
