REMARK  Name = ZINC05815887
REMARK  7 active torsions:
REMARK  status: ('A' for Active; 'I' for Inactive)
REMARK    1  A    between atoms: C_1  and  C_2
REMARK    2  A    between atoms: N_7  and  C_8
REMARK    3  A    between atoms: C_8  and  C_9
REMARK    4  A    between atoms: C_8  and  C_13
REMARK    5  A    between atoms: C_8  and  N_17
REMARK    6  A    between atoms: N_20  and  C_21
REMARK    7  A    between atoms: N_20  and  C_22
REMARK                            x       y       z     vdW  Elec       q    Type
REMARK                         _______ _______ _______ _____ _____    ______ ____
ROOT
ATOM      1  C   UNL     1       2.277  -2.978   0.049  0.00  0.00    +0.295 C 
ENDROOT
BRANCH   1   8
ATOM      2  C   UNL     1      -0.001  -5.204  -3.966  0.00  0.00    +0.044 C 
ATOM      3  C   UNL     1      -0.298  -4.008  -3.099  0.00  0.00    -0.046 A 
ATOM      4  C   UNL     1      -1.421  -3.223  -3.333  0.00  0.00    +0.021 A 
ATOM      5  C   UNL     1      -1.664  -2.134  -2.521  0.00  0.00    +0.084 A 
ATOM      6  C   UNL     1       0.232  -2.554  -1.276  0.00  0.00    +0.098 A 
ATOM      7  C   UNL     1       0.540  -3.666  -2.054  0.00  0.00    +0.045 A 
ATOM      8  N   UNL     1       1.066  -2.200  -0.221  0.00  0.00    -0.296 N 
ATOM      9  H   UNL     1       0.846  -1.436   0.335  0.00  0.00    +0.150 HD
ATOM     10  N   UNL     1      -0.863  -1.768  -1.485  0.00  0.00    -0.350 N 
ATOM     11  H   UNL     1      -1.069  -0.952  -0.897  0.00  0.00    +0.166 HD
ENDBRANCH   1   8
BRANCH   1  12
ATOM     12  N   UNL     1       1.964  -4.408  -0.021  0.00  0.00    -0.264 N 
ATOM     13  C   UNL     1       0.853  -4.884   0.575  0.00  0.00    +0.304 C 
ATOM     14  O   UNL     1       0.065  -4.117   1.093  0.00  0.00    -0.253 OA
ATOM     15  N   UNL     1       0.615  -6.211   0.595  0.00  0.00    -0.292 N 
ATOM     16  C   UNL     1      -0.593  -6.728   1.242  0.00  0.00    +0.133 C 
ATOM     17  C   UNL     1       1.565  -7.135  -0.030  0.00  0.00    +0.133 C 
ATOM     18  H   UNL     1       2.557  -5.011  -0.496  0.00  0.00    +0.153 HD
ENDBRANCH   1  12
BRANCH   1  19
ATOM     19  C   UNL     1       3.345  -2.639  -0.993  0.00  0.00    +0.436 C 
ATOM     20  F   UNL     1       3.582  -1.260  -0.986  0.00  0.00    -0.166 F 
ATOM     21  F   UNL     1       4.529  -3.317  -0.685  0.00  0.00    -0.166 F 
ATOM     22  F   UNL     1       2.900  -3.029  -2.261  0.00  0.00    -0.166 F 
ENDBRANCH   1  19
BRANCH   1  23
ATOM     23  C   UNL     1       2.801  -2.638   1.445  0.00  0.00    +0.436 C 
ATOM     24  F   UNL     1       1.859  -3.027   2.404  0.00  0.00    -0.166 F 
ATOM     25  F   UNL     1       4.003  -3.318   1.671  0.00  0.00    -0.166 F 
ATOM     26  F   UNL     1       3.021  -1.260   1.538  0.00  0.00    -0.166 F 
ENDBRANCH   1  23
TORSDOF 4
