REMARK  Name = ZINC32770227
REMARK  10 active torsions:
REMARK  status: ('A' for Active; 'I' for Inactive)
REMARK    1  A    between atoms: C_1  and  N_2
REMARK    2  A    between atoms: N_2  and  C_3
REMARK    3  A    between atoms: N_2  and  C_13
REMARK    4  A    between atoms: C_3  and  C_4
REMARK    5  A    between atoms: C_7  and  C_10
REMARK    6  A    between atoms: C_13  and  C_14
REMARK    7  A    between atoms: C_22  and  C_25
REMARK    8  A    between atoms: C_23  and  O_24
REMARK    9  A    between atoms: C_25  and  O_27
REMARK   10  A    between atoms: O_27  and  C_28
REMARK                            x       y       z     vdW  Elec       q    Type
REMARK                         _______ _______ _______ _____ _____    ______ ____
ROOT
ATOM      1  C   UNL     1      -3.753   3.082   0.052  0.00  0.00    -0.039 C 
ENDROOT
BRANCH   1   2
ATOM      2  C   UNL     1      -2.448   3.837   0.044  0.00  0.00    -0.014 A 
ATOM      3  C   UNL     1      -1.231   3.135   0.030  0.00  0.00    -0.013 A 
ATOM      4  C   UNL     1      -1.206   1.730   0.017  0.00  0.00    +0.009 A 
ATOM      5  C   UNL     1      -0.013   1.076   0.008  0.00  0.00    +0.001 A 
ATOM      6  C   UNL     1       1.191   1.779   0.000  0.00  0.00    +0.001 A 
ATOM      7  C   UNL     1       1.208   3.139   0.007  0.00  0.00    +0.008 A 
ATOM      8  C   UNL     1      -0.006   3.851   0.022  0.00  0.00    -0.017 A 
ATOM      9  C   UNL     1      -0.022   5.253   0.028  0.00  0.00    +0.027 A 
ATOM     10  C   UNL     1      -1.236   5.922   0.043  0.00  0.00    +0.101 A 
ATOM     11  C   UNL     1      -2.449   5.200   0.051  0.00  0.00    +0.133 A 
BRANCH  11  12
ATOM     12  O   UNL     1      -3.629   5.871   0.065  0.00  0.00    -0.506 OA
ATOM     13  H   UNL     1      -3.636   6.971   0.070  0.00  0.00    +0.292 HD
ENDBRANCH  11  12
BRANCH  10  14
ATOM     14  C   UNL     1      -1.260   7.396   0.050  0.00  0.00    +0.343 C 
ATOM     15  O   UNL     1      -2.321   7.986   0.063  0.00  0.00    -0.245 OA
BRANCH  14  16
ATOM     16  O   UNL     1      -0.104   8.088   0.043  0.00  0.00    -0.464 OA
ATOM     17  C   UNL     1      -0.203   9.537   0.051  0.00  0.00    +0.280 C 
ENDBRANCH  14  16
ENDBRANCH  10  14
ENDBRANCH   1   2
BRANCH   1  19
ATOM     18  C   UNL     1      -3.266   1.938  -2.025  0.00  0.00    -0.095 C 
ATOM     19  N   UNL     1      -4.190   2.844  -1.330  0.00  0.00    +0.383 N 
ATOM     20  H   UNL     1      -4.179   3.809  -1.859  0.00  0.00    -0.081 HD
BRANCH  19  21
ATOM     21  C   UNL     1      -5.563   2.325  -1.365  0.00  0.00    -0.043 C 
BRANCH  21  22
ATOM     22  C   UNL     1      -6.064   2.325  -2.787  0.00  0.00    -0.064 A 
ATOM     23  C   UNL     1      -6.721   3.435  -3.286  0.00  0.00    +0.002 A 
ATOM     24  C   UNL     1      -7.177   3.444  -4.588  0.00  0.00    +0.013 A 
ATOM     25  C   UNL     1      -6.983   2.325  -5.399  0.00  0.00    +0.037 A 
ATOM     26  C   UNL     1      -6.324   1.206  -4.888  0.00  0.00    +0.013 A 
ATOM     27  C   UNL     1      -5.868   1.212  -3.586  0.00  0.00    +0.002 A 
BRANCH  25  28
ATOM     28  C   UNL     1      -7.474   2.324  -6.794  0.00  0.00    +0.242 C 
ATOM     29  O   UNL     1      -7.303   1.348  -7.498  0.00  0.00    -0.270 OA
ATOM     30  N   UNL     1      -8.110   3.406  -7.284  0.00  0.00    -0.325 N 
ATOM     31  H   UNL     1      -8.475   3.406  -8.322  0.00  0.00    +0.145 HD
ATOM     32  H   UNL     1      -8.265   4.290  -6.647  0.00  0.00    +0.145 HD
ENDBRANCH  25  28
ENDBRANCH  21  22
ENDBRANCH  19  21
ENDBRANCH   1  19
TORSDOF 8
