REMARK  Name = ZINC57572470
REMARK  2 active torsions:
REMARK  status: ('A' for Active; 'I' for Inactive)
REMARK    1  A    between atoms: C_6  and  C_7
REMARK    2  A    between atoms: C_7  and  C_9
REMARK                            x       y       z     vdW  Elec       q    Type
REMARK                         _______ _______ _______ _____ _____    ______ ____
ROOT
ATOM      1  C   UNL     1       0.015   1.369   0.157  0.00  0.00    +0.015 A 
ATOM      2  C   UNL     1       1.188   2.058   0.382  0.00  0.00    +0.050 A 
ATOM      3  C   UNL     1       2.346   1.364   0.703  0.00  0.00    +0.162 A 
ATOM      4  C   UNL     1       2.330  -0.024   0.798  0.00  0.00    +0.163 A 
ATOM      5  C   UNL     1       1.161  -0.721   0.574  0.00  0.00    +0.061 A 
ATOM      6  C   UNL     1      -0.009  -0.024   0.251  0.00  0.00    +0.028 A 
ATOM      7  O   UNL     1       3.478  -0.691   1.115  0.00  0.00    -0.488 OA
ATOM      8  C   UNL     1       4.509  -0.666   0.126  0.00  0.00    +0.232 C 
ATOM      9  C   UNL     1       5.343   0.600   0.248  0.00  0.00    +0.082 C 
ATOM     10  C   UNL     1       4.537   1.855  -0.048  0.00  0.00    +0.232 C 
ATOM     11  O   UNL     1       3.509   2.039   0.927  0.00  0.00    -0.488 OA
ENDROOT
BRANCH   6  12
ATOM     12  C   UNL     1      -1.265  -0.760   0.010  0.00  0.00    +0.212 C 
ATOM     13  O   UNL     1      -2.316  -0.154  -0.090  0.00  0.00    -0.285 OA
BRANCH  12  14
ATOM     14  C   UNL     1      -1.248  -2.226  -0.109  0.00  0.00    +0.120 A 
ATOM     15  C   UNL     1      -2.422  -2.932  -0.210  0.00  0.00    +0.080 A 
ATOM     16  S   UNL     1      -1.798  -4.604  -0.323  0.00  0.00    -0.060 S 
ATOM     17  C   UNL     1      -0.059  -4.205  -0.226  0.00  0.00    +0.156 A 
ATOM     18  N   UNL     1      -0.090  -2.891  -0.125  0.00  0.00    -0.222 NA
ATOM     19  N   UNL     1       1.035  -5.052  -0.254  0.00  0.00    -0.338 N 
ATOM     20  H   UNL     1       0.904  -6.010  -0.338  0.00  0.00    +0.144 HD
ATOM     21  H   UNL     1       1.932  -4.689  -0.191  0.00  0.00    +0.144 HD
ENDBRANCH  12  14
ENDBRANCH   6  12
TORSDOF 2
