REMARK  Name = ZINC44137193
REMARK  6 active torsions:
REMARK  status: ('A' for Active; 'I' for Inactive)
REMARK    1  A    between atoms: C_1  and  N_2
REMARK    2  A    between atoms: C_4  and  C_14
REMARK    3  A    between atoms: C_16  and  O_22
REMARK    4  A    between atoms: C_18  and  O_20
REMARK    5  A    between atoms: O_20  and  C_21
REMARK    6  A    between atoms: O_22  and  C_23
REMARK                            x       y       z     vdW  Elec       q    Type
REMARK                         _______ _______ _______ _____ _____    ______ ____
ROOT
ATOM      1  C   UNL     1      -0.018   1.461   0.010  0.00  0.00    +0.132 C 
ATOM      2  N   UNL     1       0.002  -0.004   0.002  0.00  0.00    -0.304 N 
ATOM      3  C   UNL     1      -1.198  -0.849   0.003  0.00  0.00    +0.116 C 
ATOM      4  C   UNL     1      -0.718  -2.250  -0.440  0.00  0.00    +0.050 C 
ATOM      5  C   UNL     1       0.767  -2.214  -0.031  0.00  0.00    +0.040 C 
ATOM      6  C   UNL     1       1.123  -0.748  -0.013  0.00  0.00    +0.220 C 
ATOM      7  O   UNL     1       2.252  -0.306  -0.010  0.00  0.00    -0.275 OA
ATOM      8  C   UNL     1       1.612  -2.954  -1.063  0.00  0.00    +0.013 C 
ATOM      9  C   UNL     1       3.074  -2.961  -0.604  0.00  0.00    -0.018 C 
ATOM     10  C   UNL     1       3.160  -3.579   0.793  0.00  0.00    -0.083 C 
ATOM     11  N   UNL     1       2.362  -2.786   1.736  0.00  0.00    +0.380 N 
ATOM     12  C   UNL     1       0.945  -2.833   1.351  0.00  0.00    -0.066 C 
ATOM     13  H   UNL     1       2.469  -3.162   2.666  0.00  0.00    -0.086 HD
ATOM     14  H   UNL     1       2.681  -1.829   1.723  0.00  0.00    -0.086 HD
ENDROOT
BRANCH   4  15
ATOM     15  C   UNL     1      -0.864  -2.424  -1.930  0.00  0.00    -0.035 A 
ATOM     16  C   UNL     1      -0.214  -1.562  -2.792  0.00  0.00    +0.049 A 
ATOM     17  C   UNL     1      -0.346  -1.720  -4.165  0.00  0.00    +0.124 A 
ATOM     18  C   UNL     1      -1.132  -2.744  -4.670  0.00  0.00    +0.091 A 
ATOM     19  C   UNL     1      -1.784  -3.608  -3.803  0.00  0.00    +0.124 A 
ATOM     20  C   UNL     1      -1.643  -3.449  -2.432  0.00  0.00    +0.049 A 
BRANCH  19  21
ATOM     21  O   UNL     1      -2.555  -4.612  -4.296  0.00  0.00    -0.495 OA
ATOM     22  C   UNL     1      -2.650  -4.719  -5.718  0.00  0.00    +0.277 C 
ENDBRANCH  19  21
BRANCH  17  23
ATOM     23  O   UNL     1       0.293  -0.872  -5.012  0.00  0.00    -0.495 OA
ATOM     24  C   UNL     1       0.111  -1.093  -6.412  0.00  0.00    +0.277 C 
ENDBRANCH  17  23
ENDBRANCH   4  15
TORSDOF 3
