REMARK  Name = ZINC36993743
REMARK  9 active torsions:
REMARK  status: ('A' for Active; 'I' for Inactive)
REMARK    1  A    between atoms: C_1  and  C_2
REMARK    2  A    between atoms: C_2  and  C_4
REMARK    3  A    between atoms: C_2  and  N_10
REMARK    4  A    between atoms: C_4  and  C_5
REMARK    5  A    between atoms: N_10  and  C_11
REMARK    6  A    between atoms: C_11  and  C_13
REMARK    7  A    between atoms: C_11  and  C_14
REMARK    8  A    between atoms: C_16  and  O_21
REMARK    9  A    between atoms: C_19  and  O_20
REMARK                            x       y       z     vdW  Elec       q    Type
REMARK                         _______ _______ _______ _____ _____    ______ ____
ROOT
ATOM      1  C   UNL     1      -2.050  -0.126  -1.234  0.00  0.00    -0.040 C 
ATOM      2  C   UNL     1      -1.371  -0.820  -2.417  0.00  0.00    -0.009 C 
ENDROOT
BRANCH   1   3
ATOM      3  C   UNL     1      -3.498  -0.540  -1.172  0.00  0.00    -0.017 A 
ATOM      4  C   UNL     1      -3.901  -1.511  -0.275  0.00  0.00    +0.051 A 
ATOM      5  C   UNL     1      -5.233  -1.892  -0.218  0.00  0.00    +0.117 A 
ATOM      6  C   UNL     1      -6.161  -1.298  -1.060  0.00  0.00    +0.049 A 
ATOM      7  C   UNL     1      -5.758  -0.328  -1.957  0.00  0.00    +0.049 A 
ATOM      8  C   UNL     1      -4.426   0.057  -2.011  0.00  0.00    +0.119 A 
BRANCH   8   9
ATOM      9  O   UNL     1      -4.031   1.017  -2.889  0.00  0.00    -0.507 OA
ATOM     10  H   UNL     1      -3.765   0.673  -3.753  0.00  0.00    +0.292 HD
ENDBRANCH   8   9
BRANCH   5  11
ATOM     11  O   UNL     1      -5.629  -2.848   0.665  0.00  0.00    -0.507 OA
ATOM     12  H   UNL     1      -5.896  -2.501   1.527  0.00  0.00    +0.292 HD
ENDBRANCH   5  11
ENDBRANCH   1   3
BRANCH   1  13
ATOM     13  N   UNL     1      -1.376  -0.512   0.012  0.00  0.00    +0.385 N 
ATOM     14  H   UNL     1      -1.363  -1.518   0.090  0.00  0.00    -0.085 HD
ATOM     15  H   UNL     1      -1.873  -0.121   0.799  0.00  0.00    -0.085 HD
BRANCH  13  17
ATOM     16  C   UNL     1      -0.019   1.526   0.010  0.00  0.00    -0.013 C 
ATOM     17  C   UNL     1       0.002  -0.004   0.002  0.00  0.00    -0.067 C 
BRANCH  17  18
ATOM     18  C   UNL     1       0.742  -0.511   1.242  0.00  0.00    +0.058 C 
BRANCH  18  19
ATOM     19  C   UNL     1       0.870  -2.011   1.172  0.00  0.00    +0.103 A 
ATOM     20  C   UNL     1       1.890  -2.688   0.616  0.00  0.00    +0.044 A 
ATOM     21  C   UNL     1       1.603  -4.064   0.773  0.00  0.00    +0.041 A 
ATOM     22  C   UNL     1       0.424  -4.144   1.415  0.00  0.00    +0.195 A 
ATOM     23  O   UNL     1      -0.013  -2.898   1.660  0.00  0.00    -0.468 OA
ENDBRANCH  18  19
ENDBRANCH  17  18
ENDBRANCH  13  17
ENDBRANCH   1  13
TORSDOF 7
