REMARK  Name = ZINC43091446
REMARK  7 active torsions:
REMARK  status: ('A' for Active; 'I' for Inactive)
REMARK    1  A    between atoms: C_1  and  N_2
REMARK    2  A    between atoms: N_2  and  C_3
REMARK    3  A    between atoms: N_2  and  C_7
REMARK    4  A    between atoms: C_3  and  C_4
REMARK    5  A    between atoms: C_7  and  C_9
REMARK    6  A    between atoms: C_7  and  C_11
REMARK    7  A    between atoms: C_9  and  N_10
REMARK                            x       y       z     vdW  Elec       q    Type
REMARK                         _______ _______ _______ _____ _____    ______ ____
ROOT
ATOM      1  C   UNL     1      -1.117  -0.824  -0.397  0.00  0.00    +0.071 C 
ENDROOT
BRANCH   1   2
ATOM      2  C   UNL     1      -1.695  -0.388  -1.718  0.00  0.00    -0.018 A 
ATOM      3  C   UNL     1      -1.163   0.703  -2.380  0.00  0.00    +0.006 A 
ATOM      4  C   UNL     1      -1.693   1.102  -3.592  0.00  0.00    +0.000 A 
ATOM      5  C   UNL     1      -2.756   0.410  -4.144  0.00  0.00    +0.001 A 
ATOM      6  C   UNL     1      -3.288  -0.681  -3.484  0.00  0.00    +0.015 A 
ATOM      7  C   UNL     1      -2.754  -1.084  -2.273  0.00  0.00    +0.022 A 
ATOM      8 BR   UNL     1      -3.478  -2.581  -1.372  0.00  0.00    -0.050 Br
ENDBRANCH   1   2
BRANCH   1  10
ATOM      9  C   UNL     1       0.072   1.177   0.272  0.00  0.00    +0.106 C 
ATOM     10  N   UNL     1       0.202  -0.204  -0.211  0.00  0.00    -0.292 NA
BRANCH  10  11
ATOM     11  C   UNL     1       1.036  -1.003   0.696  0.00  0.00    +0.180 C 
BRANCH  11  12
ATOM     12  C   UNL     1       2.485  -0.634   0.502  0.00  0.00    +0.225 C 
ATOM     13  O   UNL     1       2.792   0.210  -0.312  0.00  0.00    -0.275 OA
ATOM     14  N   UNL     1       3.439  -1.244   1.234  0.00  0.00    -0.328 N 
ATOM     15  H   UNL     1       3.193  -1.919   1.885  0.00  0.00    +0.145 HD
ATOM     16  H   UNL     1       4.371  -1.007   1.109  0.00  0.00    +0.145 HD
ENDBRANCH  11  12
ENDBRANCH  10  11
ENDBRANCH   1  10
BRANCH   1  17
ATOM     17  C   UNL     1      -2.048  -0.388   0.736  0.00  0.00    -0.063 C 
BRANCH  17  18
ATOM     18  N   UNL     1      -1.511  -0.858   2.020  0.00  0.00    +0.379 N 
ATOM     19  H   UNL     1      -2.206  -0.733   2.741  0.00  0.00    -0.090 HD
ATOM     20  H   UNL     1      -1.273  -1.835   1.947  0.00  0.00    -0.090 HD
ATOM     21  H   UNL     1      -0.685  -0.327   2.253  0.00  0.00    -0.090 HD
ENDBRANCH  17  18
ENDBRANCH   1  17
TORSDOF 6
