REMARK  Name = ZINC50943565
REMARK  8 active torsions:
REMARK  status: ('A' for Active; 'I' for Inactive)
REMARK    1  A    between atoms: C_1  and  C_2
REMARK    2  A    between atoms: C_2  and  C_3
REMARK    3  A    between atoms: C_2  and  C_4
REMARK    4  A    between atoms: C_2  and  C_5
REMARK    5  A    between atoms: C_11  and  N_13
REMARK    6  A    between atoms: C_14  and  C_16
REMARK    7  A    between atoms: C_16  and  C_17
REMARK    8  A    between atoms: C_17  and  C_18
REMARK                            x       y       z     vdW  Elec       q    Type
REMARK                         _______ _______ _______ _____ _____    ______ ____
ROOT
ATOM      1  N   UNL     1       2.513  -1.417  -0.238  0.00  0.00    -0.312 N 
ATOM      2  C   UNL     1       3.746  -1.020   0.135  0.00  0.00    +0.213 C 
ATOM      3  O   UNL     1       4.329  -0.172  -0.506  0.00  0.00    -0.276 OA
ATOM      4  H   UNL     1       2.046  -2.096   0.275  0.00  0.00    +0.149 HD
ENDROOT
BRANCH   1  10
ATOM      5  C   UNL     1       0.362  -0.799  -1.222  0.00  0.00    +0.015 C 
ATOM      6  C   UNL     1      -0.301  -0.181  -2.455  0.00  0.00    +0.006 C 
ATOM      7  C   UNL     1       0.039  -1.017  -3.690  0.00  0.00    +0.000 C 
ATOM      8  C   UNL     1       1.556  -1.044  -3.886  0.00  0.00    +0.002 C 
ATOM      9  C   UNL     1       2.219  -1.662  -2.654  0.00  0.00    +0.022 C 
ATOM     10  C   UNL     1       1.879  -0.826  -1.419  0.00  0.00    +0.077 C 
BRANCH   5  12
ATOM     11  C   UNL     1       0.676   1.416  -0.109  0.00  0.00    +0.011 C 
ATOM     12  C   UNL     1       0.022   0.038   0.013  0.00  0.00    -0.033 C 
ATOM     13  C   UNL     1       0.545  -0.667   1.266  0.00  0.00    +0.011 C 
ATOM     14  C   UNL     1      -1.496   0.201   0.116  0.00  0.00    +0.011 C 
ENDBRANCH   5  12
ENDBRANCH   1  10
BRANCH   2  15
ATOM     15  C   UNL     1       4.398  -1.628   1.350  0.00  0.00    +0.094 C 
BRANCH  15  16
ATOM     16  C   UNL     1       5.782  -1.006   1.551  0.00  0.00    -0.007 C 
BRANCH  16  17
ATOM     17  C   UNL     1       6.444  -1.624   2.784  0.00  0.00    -0.071 C 
ATOM     18  C   UNL     1       7.772  -0.914   3.058  0.00  0.00    -0.016 C 
ATOM     19  C   UNL     1       8.431  -1.536   4.293  0.00  0.00    -0.003 C 
ATOM     20  C   UNL     1       8.614  -3.038   4.060  0.00  0.00    -0.019 C 
ATOM     21  C   UNL     1       7.255  -3.670   3.748  0.00  0.00    -0.082 C 
ATOM     22  N   UNL     1       6.690  -3.051   2.543  0.00  0.00    +0.381 N 
ATOM     23  H   UNL     1       5.820  -3.506   2.309  0.00  0.00    -0.086 HD
ATOM     24  H   UNL     1       7.338  -3.155   1.776  0.00  0.00    -0.086 HD
ENDBRANCH  16  17
ENDBRANCH  15  16
ENDBRANCH   2  15
TORSDOF 5
