REMARK  Name = ZINC40372493
REMARK  5 active torsions:
REMARK  status: ('A' for Active; 'I' for Inactive)
REMARK    1  A    between atoms: C_1  and  C_2
REMARK    2  A    between atoms: C_5  and  C_8
REMARK    3  A    between atoms: C_5  and  N_12
REMARK    4  A    between atoms: N_9  and  O_10
REMARK    5  A    between atoms: C_13  and  C_15
REMARK                            x       y       z     vdW  Elec       q    Type
REMARK                         _______ _______ _______ _____ _____    ______ ____
ROOT
ATOM      1  C   UNL     1       0.182   1.411  -0.211  0.00  0.00    +0.007 C 
ATOM      2  C   UNL     1       0.114  -0.116  -0.141  0.00  0.00    -0.014 C 
ATOM      3  C   UNL     1      -1.349  -0.559  -0.070  0.00  0.00    +0.006 C 
ATOM      4  C   UNL     1      -1.416  -2.086   0.000  0.00  0.00    +0.034 C 
ATOM      5  C   UNL     1      -0.675  -2.572   1.248  0.00  0.00    +0.093 C 
ATOM      6  C   UNL     1       0.788  -2.129   1.177  0.00  0.00    +0.034 C 
ATOM      7  C   UNL     1       0.855  -0.602   1.107  0.00  0.00    +0.006 C 
ENDROOT
BRANCH   5   8
ATOM      8  C   UNL     1      -0.742  -4.076   1.317  0.00  0.00    +0.155 C 
ATOM      9  N   UNL     1      -1.339  -4.740   0.384  0.00  0.00    -0.075 NA
ATOM     10  N   UNL     1      -0.165  -4.743   2.375  0.00  0.00    -0.342 N 
ATOM     11  H   UNL     1       0.218  -4.243   3.113  0.00  0.00    +0.144 HD
ATOM     12  H   UNL     1      -0.143  -5.713   2.384  0.00  0.00    +0.144 HD
BRANCH   9  13
ATOM     13  O   UNL     1      -1.402  -6.153   0.449  0.00  0.00    -0.408 OA
ATOM     14  H   UNL     1      -1.869  -6.561  -0.293  0.00  0.00    +0.328 HD
ENDBRANCH   9  13
ENDBRANCH   5   8
BRANCH   5  15
ATOM     15  N   UNL     1      -1.302  -2.000   2.442  0.00  0.00    -0.296 N 
ATOM     16  C   UNL     1      -2.562  -2.346   2.773  0.00  0.00    +0.280 C 
ATOM     17  O   UNL     1      -3.211  -3.062   2.033  0.00  0.00    -0.267 OA
ATOM     18  H   UNL     1      -0.810  -1.373   2.994  0.00  0.00    +0.150 HD
BRANCH  16  19
ATOM     19  C   UNL     1      -3.150  -1.859   4.024  0.00  0.00    +0.191 A 
ATOM     20  C   UNL     1      -4.407  -2.136   4.480  0.00  0.00    +0.056 A 
ATOM     21  C   UNL     1      -4.548  -1.469   5.706  0.00  0.00    +0.058 A 
ATOM     22  C   UNL     1      -3.384  -0.820   5.943  0.00  0.00    +0.171 A 
ATOM     23  O   UNL     1      -2.543  -1.063   4.929  0.00  0.00    -0.444 OA
ATOM     24 BR   UNL     1      -3.005   0.245   7.458  0.00  0.00    -0.008 Br
ENDBRANCH  16  19
ENDBRANCH   5  15
TORSDOF 4
