REMARK  Name = ZINC59461706
REMARK  6 active torsions:
REMARK  status: ('A' for Active; 'I' for Inactive)
REMARK    1  A    between atoms: C_13  and  N_17
REMARK    2  A    between atoms: N_17  and  N_18
REMARK    3  A    between atoms: C_20  and  C_28
REMARK    4  A    between atoms: N_22  and  C_25
REMARK    5  A    between atoms: C_25  and  N_27
REMARK    6  A    between atoms: C_31  and  N_34
REMARK                            x       y       z     vdW  Elec       q    Type
REMARK                         _______ _______ _______ _____ _____    ______ ____
ROOT
ATOM      1  N   UNL     1       7.288  -2.735   0.012  0.00  0.00    -0.175 NA
ATOM      2  C   UNL     1       8.421  -2.061   0.005  0.00  0.00    +0.173 C 
ATOM      3  C   UNL     1       9.794  -2.604   0.084  0.00  0.00    +0.122 C 
ATOM      4  N   UNL     1      10.616  -1.591   0.046  0.00  0.00    -0.168 NA
ATOM      5  N   UNL     1       9.928  -0.382  -0.054  0.00  0.00    -0.134 N 
ATOM      6  C   UNL     1       8.598  -0.602  -0.089  0.00  0.00    +0.294 C 
ATOM      7  O   UNL     1       7.720   0.237  -0.179  0.00  0.00    -0.266 OA
ENDROOT
BRANCH   3   8
ATOM      8  C   UNL     1      10.168  -4.034   0.189  0.00  0.00    +0.004 A 
ATOM      9  C   UNL     1       9.178  -5.016   0.214  0.00  0.00    +0.012 A 
ATOM     10  C   UNL     1       9.533  -6.346   0.312  0.00  0.00    +0.033 A 
ATOM     11  C   UNL     1      10.866  -6.706   0.384  0.00  0.00    +0.126 A 
ATOM     12  C   UNL     1      11.853  -5.736   0.359  0.00  0.00    +0.033 A 
ATOM     13  C   UNL     1      11.511  -4.404   0.256  0.00  0.00    +0.012 A 
BRANCH  11  14
ATOM     14  N   UNL     1      11.240  -8.135   0.488  0.00  0.00    +0.056 N 
ATOM     15  O   UNL     1      10.380  -8.984   0.510  0.00  0.00    -0.126 OA
ATOM     16  O   UNL     1      12.405  -8.452   0.551  0.00  0.00    -0.126 OA
ENDBRANCH  11  14
ENDBRANCH   3   8
BRANCH   1  17
ATOM     17  N   UNL     1       6.164  -2.108  -0.071  0.00  0.00    -0.236 N 
ATOM     18  H   UNL     1       6.152  -1.140  -0.137  0.00  0.00    +0.174 HD
BRANCH  17  31
ATOM     19  C   UNL     1      -0.016   1.379   0.062  0.00  0.00    +0.001 A 
ATOM     20  C   UNL     1       1.167   2.096   0.054  0.00  0.00    +0.001 A 
ATOM     21  C   UNL     1       2.384   1.438   0.029  0.00  0.00    +0.012 A 
ATOM     22  C   UNL     1       2.421   0.047   0.011  0.00  0.00    +0.033 A 
ATOM     23  C   UNL     1       1.219  -0.682   0.019  0.00  0.00    +0.033 A 
ATOM     24  C   UNL     1       0.003  -0.004   0.044  0.00  0.00    +0.012 A 
ATOM     25  C   UNL     1       1.249  -2.159  -0.001  0.00  0.00    +0.195 C 
ATOM     26  O   UNL     1       0.211  -2.789   0.006  0.00  0.00    -0.287 OA
ATOM     27  C   UNL     1       2.546  -2.868  -0.029  0.00  0.00    +0.035 A 
ATOM     28  C   UNL     1       2.584  -4.258  -0.048  0.00  0.00    +0.012 A 
ATOM     29  C   UNL     1       3.802  -4.920  -0.075  0.00  0.00    +0.003 A 
ATOM     30  C   UNL     1       4.985  -4.212  -0.083  0.00  0.00    +0.025 A 
ATOM     31  C   UNL     1       4.971  -2.817  -0.064  0.00  0.00    +0.060 A 
ATOM     32  C   UNL     1       3.748  -2.136  -0.037  0.00  0.00    +0.056 A 
ATOM     33  C   UNL     1       3.717  -0.663  -0.017  0.00  0.00    +0.196 C 
ATOM     34  O   UNL     1       4.757  -0.033  -0.024  0.00  0.00    -0.287 OA
ENDBRANCH  17  31
ENDBRANCH   1  17
BRANCH   5  35
ATOM     35  C   UNL     1      10.509   0.832  -0.113  0.00  0.00    +0.158 C 
ATOM     36  S   UNL     1       9.541   2.239  -0.234  0.00  0.00    -0.017 S 
BRANCH  35  37
ATOM     37  N   UNL     1      11.852   0.939  -0.076  0.00  0.00    -0.339 N 
ATOM     38  H   UNL     1      12.400   0.142  -0.008  0.00  0.00    +0.144 HD
ATOM     39  H   UNL     1      12.270   1.813  -0.119  0.00  0.00    +0.144 HD
ENDBRANCH  35  37
ENDBRANCH   5  35
TORSDOF 6
