REMARK  Name = ZINC61847661
REMARK  7 active torsions:
REMARK  status: ('A' for Active; 'I' for Inactive)
REMARK    1  A    between atoms: C_1  and  C_2
REMARK    2  A    between atoms: C_4  and  C_16
REMARK    3  A    between atoms: C_6  and  C_8
REMARK    4  A    between atoms: C_16  and  N_17
REMARK    5  A    between atoms: N_17  and  C_18
REMARK    6  A    between atoms: C_18  and  C_19
REMARK    7  A    between atoms: C_18  and  C_20
REMARK                            x       y       z     vdW  Elec       q    Type
REMARK                         _______ _______ _______ _____ _____    ______ ____
ROOT
ATOM      1  C   UNL     1      -0.018   1.503   0.010  0.00  0.00    +0.066 C 
ATOM      2  C   UNL     1       0.002  -0.004   0.002  0.00  0.00    +0.042 A 
ATOM      3  C   UNL     1       0.006  -0.699  -1.198  0.00  0.00    +0.044 A 
ATOM      4  C   UNL     1       0.025  -2.085  -1.162  0.00  0.00    +0.028 A 
ATOM      5  N   UNL     1       0.039  -2.700   0.009  0.00  0.00    -0.234 NA
ATOM      6  C   UNL     1       0.035  -2.005   1.139  0.00  0.00    +0.162 A 
ATOM      7  N   UNL     1       0.022  -0.679   1.138  0.00  0.00    -0.232 NA
ENDROOT
BRANCH   6   8
ATOM      8  C   UNL     1       0.050  -2.728   2.433  0.00  0.00    +0.038 A 
ATOM      9  C   UNL     1       0.075  -4.122   2.454  0.00  0.00    +0.016 A 
ATOM     10  C   UNL     1       0.090  -4.791   3.660  0.00  0.00    +0.039 A 
ATOM     11  C   UNL     1       0.081  -4.080   4.851  0.00  0.00    +0.125 A 
ATOM     12  C   UNL     1       0.056  -2.695   4.835  0.00  0.00    +0.059 A 
ATOM     13  C   UNL     1       0.046  -2.016   3.632  0.00  0.00    +0.054 A 
ATOM     14 CL   UNL     1       0.022  -0.281   3.614  0.00  0.00    -0.083 Cl
ATOM     15  F   UNL     1       0.096  -4.740   6.029  0.00  0.00    -0.205 F 
ENDBRANCH   6   8
BRANCH   4  16
ATOM     16  C   UNL     1       0.029  -2.882  -2.441  0.00  0.00    -0.026 C 
BRANCH  16  17
ATOM     17  N   UNL     1       1.412  -3.225  -2.800  0.00  0.00    +0.384 N 
ATOM     18  H   UNL     1       1.946  -2.378  -2.929  0.00  0.00    -0.085 HD
ATOM     19  H   UNL     1       1.825  -3.773  -2.061  0.00  0.00    -0.085 HD
BRANCH  17  20
ATOM     20  C   UNL     1       1.416  -4.001  -4.047  0.00  0.00    -0.078 C 
ATOM     21  C   UNL     1       0.905  -3.127  -5.194  0.00  0.00    -0.014 C 
ATOM     22  C   UNL     1       2.842  -4.464  -4.354  0.00  0.00    -0.014 C 
ENDBRANCH  17  20
ENDBRANCH  16  17
ENDBRANCH   4  16
TORSDOF 4
