REMARK  Name = ZINC58624916
REMARK  7 active torsions:
REMARK  status: ('A' for Active; 'I' for Inactive)
REMARK    1  A    between atoms: C_1  and  N_2
REMARK    2  A    between atoms: N_2  and  C_3
REMARK    3  A    between atoms: N_2  and  C_4
REMARK    4  A    between atoms: C_9  and  N_10
REMARK    5  A    between atoms: N_10  and  C_11
REMARK    6  A    between atoms: C_11  and  C_12
REMARK    7  A    between atoms: C_17  and  O_18
REMARK                            x       y       z     vdW  Elec       q    Type
REMARK                         _______ _______ _______ _____ _____    ______ ____
ROOT
ATOM      1  N   UNL     1       2.406  -1.400   0.219  0.00  0.00    -0.338 N 
ATOM      2  H   UNL     1       1.921  -1.149   1.020  0.00  0.00    +0.146 HD
ENDROOT
BRANCH   1   8
ATOM      3  C   UNL     1       0.663  -0.444  -1.149  0.00  0.00    +0.034 A 
ATOM      4  C   UNL     1       0.122  -0.193  -2.395  0.00  0.00    +0.023 A 
ATOM      5  C   UNL     1       0.762  -0.650  -3.532  0.00  0.00    +0.002 A 
ATOM      6  C   UNL     1       1.945  -1.359  -3.427  0.00  0.00    +0.002 A 
ATOM      7  C   UNL     1       2.491  -1.613  -2.184  0.00  0.00    +0.025 A 
ATOM      8  C   UNL     1       1.854  -1.150  -1.040  0.00  0.00    +0.047 A 
BRANCH   3  10
ATOM      9  C   UNL     1      -0.002   1.488  -0.004  0.00  0.00    +0.106 C 
ATOM     10  N   UNL     1       0.015   0.019   0.001  0.00  0.00    -0.397 NA
ATOM     11  C   UNL     1      -1.363  -0.487   0.023  0.00  0.00    +0.106 C 
ATOM     12  H   UNL     1       0.507  -0.309   0.819  0.00  0.00    +0.126 HD
ENDBRANCH   3  10
ENDBRANCH   1   8
BRANCH   1  13
ATOM     13  C   UNL     1       3.719  -2.042   0.328  0.00  0.00    +0.140 C 
BRANCH  13  14
ATOM     14  C   UNL     1       4.083  -2.196   1.782  0.00  0.00    +0.012 A 
ATOM     15  C   UNL     1       4.944  -1.294   2.379  0.00  0.00    +0.009 A 
ATOM     16  C   UNL     1       5.278  -1.435   3.713  0.00  0.00    +0.002 A 
ATOM     17  C   UNL     1       4.753  -2.478   4.454  0.00  0.00    +0.019 A 
ATOM     18  C   UNL     1       3.891  -3.382   3.862  0.00  0.00    +0.060 A 
ATOM     19  C   UNL     1       3.550  -3.240   2.524  0.00  0.00    +0.135 A 
ATOM     20 BR   UNL     1       3.173  -4.808   4.876  0.00  0.00    -0.047 Br
BRANCH  19  21
ATOM     21  O   UNL     1       2.699  -4.124   1.941  0.00  0.00    -0.505 OA
ATOM     22  H   UNL     1       3.137  -4.890   1.546  0.00  0.00    +0.292 HD
ENDBRANCH  19  21
ENDBRANCH  13  14
ENDBRANCH   1  13
TORSDOF 5
