REMARK  Name = ZINC66528513
REMARK  7 active torsions:
REMARK  status: ('A' for Active; 'I' for Inactive)
REMARK    1  A    between atoms: C_1  and  C_2
REMARK    2  A    between atoms: C_2  and  C_19
REMARK    3  A    between atoms: N_8  and  C_9
REMARK    4  A    between atoms: C_9  and  C_10
REMARK    5  A    between atoms: N_12  and  C_13
REMARK    6  A    between atoms: N_12  and  C_14
REMARK    7  A    between atoms: C_14  and  C_15
REMARK                            x       y       z     vdW  Elec       q    Type
REMARK                         _______ _______ _______ _____ _____    ______ ____
ROOT
ATOM      1  C   UNL     1      -0.019   1.526   0.010  0.00  0.00    +0.037 C 
ATOM      2  C   UNL     1       0.002  -0.004   0.002  0.00  0.00    +0.093 C 
ATOM      3  C   UNL     1       0.695  -0.487  -1.241  0.00  0.00    +0.233 C 
ATOM      4  O   UNL     1       0.090  -0.456  -2.292  0.00  0.00    -0.274 OA
ATOM      5  N   UNL     1       1.950  -0.948  -1.237  0.00  0.00    -0.313 N 
ATOM      6  C   UNL     1       2.751  -1.058  -0.022  0.00  0.00    +0.119 C 
ATOM      7  C   UNL     1       2.150  -0.188   1.084  0.00  0.00    +0.104 C 
ATOM      8  N   UNL     1       0.713  -0.489   1.193  0.00  0.00    -0.279 NA
ATOM      9  C   UNL     1      -1.434  -0.531   0.018  0.00  0.00    +0.037 C 
ATOM     10  H   UNL     1       2.345  -1.221  -2.080  0.00  0.00    +0.149 HD
ENDROOT
BRANCH   8  11
ATOM     11  C   UNL     1       0.145   0.092   2.417  0.00  0.00    +0.181 C 
BRANCH  11  12
ATOM     12  C   UNL     1       0.727  -0.606   3.620  0.00  0.00    +0.230 C 
ATOM     13  O   UNL     1       1.534  -1.498   3.472  0.00  0.00    -0.274 OA
ATOM     14  N   UNL     1       0.349  -0.238   4.860  0.00  0.00    -0.295 N 
ATOM     15  C   UNL     1      -0.626   0.840   5.039  0.00  0.00    +0.132 C 
BRANCH  14  16
ATOM     16  C   UNL     1       0.914  -0.916   6.029  0.00  0.00    +0.220 C 
BRANCH  16  17
ATOM     17  C   UNL     1       2.184  -0.188   6.477  0.00  0.00    +0.405 C 
ATOM     18  F   UNL     1       1.870   1.134   6.811  0.00  0.00    -0.169 F 
ATOM     19  F   UNL     1       2.723  -0.836   7.593  0.00  0.00    -0.169 F 
ATOM     20  F   UNL     1       3.118  -0.197   5.436  0.00  0.00    -0.169 F 
ENDBRANCH  16  17
ENDBRANCH  14  16
ENDBRANCH  11  12
ENDBRANCH   8  11
TORSDOF 4
