REMARK  Name = ZINC44792747
REMARK  5 active torsions:
REMARK  status: ('A' for Active; 'I' for Inactive)
REMARK    1  A    between atoms: C_4  and  C_22
REMARK    2  A    between atoms: C_5  and  C_7
REMARK    3  A    between atoms: C_7  and  S_8
REMARK    4  A    between atoms: S_8  and  C_9
REMARK    5  A    between atoms: N_10  and  C_11
REMARK                            x       y       z     vdW  Elec       q    Type
REMARK                         _______ _______ _______ _____ _____    ______ ____
ROOT
ATOM      1  C   UNL     1       1.224  -4.583   1.499  0.00  0.00    +0.130 C 
ATOM      2  N   UNL     1       1.294  -5.368   2.627  0.00  0.00    -0.296 N 
ATOM      3  N   UNL     1       1.245  -5.136   0.317  0.00  0.00    -0.381 N 
ATOM      4  H   UNL     1       1.233  -6.102   0.234  0.00  0.00    +0.158 HD
ATOM      5  H   UNL     1       1.273  -4.580  -0.478  0.00  0.00    +0.158 HD
ATOM      6  H   UNL     1       1.697  -6.249   2.581  0.00  0.00    +0.154 HD
ENDROOT
BRANCH   2   7
ATOM      7  C   UNL     1       0.783  -4.895   3.843  0.00  0.00    +0.036 A 
ATOM      8  C   UNL     1       1.383  -5.264   5.039  0.00  0.00    +0.027 A 
ATOM      9  C   UNL     1       0.879  -4.798   6.238  0.00  0.00    +0.051 A 
ATOM     10  C   UNL     1      -0.226  -3.960   6.251  0.00  0.00    +0.162 A 
ATOM     11  C   UNL     1      -0.827  -3.586   5.055  0.00  0.00    +0.164 A 
ATOM     12  C   UNL     1      -0.319  -4.051   3.852  0.00  0.00    +0.072 A 
ATOM     13  O   UNL     1      -1.907  -2.758   5.047  0.00  0.00    -0.485 OA
ATOM     14  C   UNL     1      -2.612  -2.608   6.284  0.00  0.00    +0.270 C 
ATOM     15  C   UNL     1      -1.583  -2.380   7.399  0.00  0.00    +0.270 C 
ATOM     16  O   UNL     1      -0.711  -3.514   7.443  0.00  0.00    -0.485 OA
ENDBRANCH   2   7
BRANCH   1  17
ATOM     17  S   UNL     1       1.106  -2.832   1.650  0.00  0.00    -0.088 S 
BRANCH  17  18
ATOM     18  C   UNL     1       1.041  -2.246  -0.066  0.00  0.00    +0.113 C 
BRANCH  18  23
ATOM     19  C   UNL     1      -0.398   1.245  -0.085  0.00  0.00    +0.000 A 
ATOM     20  C   UNL     1       0.745   2.025  -0.108  0.00  0.00    +0.001 A 
ATOM     21  C   UNL     1       1.990   1.430  -0.118  0.00  0.00    +0.019 A 
ATOM     22  C   UNL     1       2.095   0.038  -0.104  0.00  0.00    +0.056 A 
ATOM     23  C   UNL     1       0.937  -0.743  -0.081  0.00  0.00    -0.020 A 
ATOM     24  C   UNL     1      -0.301  -0.135  -0.071  0.00  0.00    +0.006 A 
BRANCH  22  25
ATOM     25  C   UNL     1       3.383  -0.586  -0.115  0.00  0.00    +0.099 C 
ATOM     26  N   UNL     1       4.406  -1.081  -0.124  0.00  0.00    -0.191 NA
ENDBRANCH  22  25
ENDBRANCH  18  23
ENDBRANCH  17  18
ENDBRANCH   1  17
TORSDOF 5
