REMARK  Name = ZINC53069078
REMARK  6 active torsions:
REMARK  status: ('A' for Active; 'I' for Inactive)
REMARK    1  A    between atoms: C_1  and  C_2
REMARK    2  A    between atoms: C_4  and  N_18
REMARK    3  A    between atoms: C_7  and  C_8
REMARK    4  A    between atoms: N_10  and  C_11
REMARK    5  A    between atoms: C_11  and  C_16
REMARK    6  A    between atoms: C_16  and  O_17
REMARK                            x       y       z     vdW  Elec       q    Type
REMARK                         _______ _______ _______ _____ _____    ______ ____
ROOT
ATOM      1  C   UNL     1       0.061   0.276   2.515  0.00  0.00    +0.245 C 
ATOM      2  O   UNL     1      -0.033   1.478   2.671  0.00  0.00    -0.270 OA
ATOM      3  N   UNL     1       0.360  -0.518   3.562  0.00  0.00    -0.304 N 
ATOM      4  H   UNL     1       0.503  -1.468   3.425  0.00  0.00    +0.150 HD
ENDROOT
BRANCH   1  11
ATOM      5  C   UNL     1      -0.408   2.008   0.245  0.00  0.00    +0.044 C 
ATOM      6  C   UNL     1      -0.380   0.511   0.074  0.00  0.00    -0.036 A 
ATOM      7  C   UNL     1      -0.573  -0.047  -1.173  0.00  0.00    +0.036 A 
ATOM      8  C   UNL     1      -0.547  -1.421  -1.331  0.00  0.00    +0.126 A 
ATOM      9  C   UNL     1      -0.327  -2.245  -0.242  0.00  0.00    +0.033 A 
ATOM     10  C   UNL     1      -0.132  -1.701   1.010  0.00  0.00    +0.015 A 
ATOM     11  C   UNL     1      -0.152  -0.315   1.176  0.00  0.00    +0.040 A 
BRANCH   8  12
ATOM     12  N   UNL     1      -0.756  -2.012  -2.672  0.00  0.00    +0.056 N 
ATOM     13  O   UNL     1      -0.949  -1.294  -3.626  0.00  0.00    -0.126 OA
ATOM     14  O   UNL     1      -0.734  -3.212  -2.814  0.00  0.00    -0.126 OA
ENDBRANCH   8  12
ENDBRANCH   1  11
BRANCH   3  15
ATOM     15  C   UNL     1       0.468   0.053   4.907  0.00  0.00    +0.058 C 
ATOM     16  C   UNL     1       0.588  -1.072   5.965  0.00  0.00    +0.028 C 
ATOM     17  C   UNL     1      -0.883  -1.520   6.155  0.00  0.00    +0.002 C 
ATOM     18  C   UNL     1      -1.691  -0.208   6.080  0.00  0.00    +0.002 C 
ATOM     19  C   UNL     1      -0.832   0.792   5.286  0.00  0.00    +0.028 C 
BRANCH  15  20
ATOM     20  C   UNL     1       1.666   1.000   4.990  0.00  0.00    +0.181 C 
BRANCH  20  21
ATOM     21  O   UNL     1       2.856   0.297   4.625  0.00  0.00    -0.393 OA
ATOM     22  H   UNL     1       3.657   0.838   4.655  0.00  0.00    +0.209 HD
ENDBRANCH  20  21
ENDBRANCH  15  20
ENDBRANCH   3  15
TORSDOF 5
