REMARK  Name = ZINC15708301
REMARK  6 active torsions:
REMARK  status: ('A' for Active; 'I' for Inactive)
REMARK    1  A    between atoms: C_3  and  C_4
REMARK    2  A    between atoms: N_6  and  C_7
REMARK    3  A    between atoms: C_16  and  C_19
REMARK    4  A    between atoms: C_19  and  C_20
REMARK    5  A    between atoms: C_20  and  C_21
REMARK    6  A    between atoms: N_23  and  C_24
REMARK                            x       y       z     vdW  Elec       q    Type
REMARK                         _______ _______ _______ _____ _____    ______ ____
ROOT
ATOM      1  C   UNL     1      -1.804   4.956  -1.236  0.00  0.00    +0.055 C 
ATOM      2  C   UNL     1      -2.395   3.611  -0.737  0.00  0.00    +0.014 C 
ATOM      3  C   UNL     1      -1.263   2.994   0.086  0.00  0.00    +0.021 C 
ATOM      4  C   UNL     1      -1.164   1.505   0.035  0.00  0.00    +0.200 C 
ATOM      5  O   UNL     1      -2.163   0.825  -0.069  0.00  0.00    -0.278 OA
ATOM      6  N   UNL     1       0.051   0.927   0.110  0.00  0.00    -0.318 N 
ATOM      7  C   UNL     1       1.315   1.653   0.104  0.00  0.00    +0.089 C 
ATOM      8  C   UNL     1       1.113   3.167   0.260  0.00  0.00    -0.050 C 
ATOM      9  C   UNL     1      -0.338   4.964  -0.720  0.00  0.00    -0.055 C 
ATOM     10  H   UNL     1       0.087  -0.041   0.169  0.00  0.00    +0.149 HD
ATOM     11  N   UNL     1      -0.097   3.520  -0.568  0.00  0.00    +0.391 N 
ATOM     12  H   UNL     1       0.010   3.099  -1.498  0.00  0.00    -0.080 HD
ENDROOT
BRANCH   1  15
ATOM     13  C   UNL     1      -1.857   6.206  -3.327  0.00  0.00    +0.216 C 
ATOM     14  O   UNL     1      -1.856   7.232  -2.680  0.00  0.00    -0.276 OA
ATOM     15  N   UNL     1      -1.832   5.014  -2.700  0.00  0.00    -0.314 N 
ATOM     16  H   UNL     1      -1.832   4.194  -3.217  0.00  0.00    +0.149 HD
BRANCH  13  19
ATOM     17  C   UNL     1      -0.639   6.799  -5.542  0.00  0.00    +0.013 C 
ATOM     18  C   UNL     1      -1.911   7.649  -5.485  0.00  0.00    +0.013 C 
ATOM     19  C   UNL     1      -1.885   6.266  -4.832  0.00  0.00    +0.075 C 
ENDBRANCH  13  19
ENDBRANCH   1  15
BRANCH   8  20
ATOM     20  C   UNL     1       2.359   3.910  -0.228  0.00  0.00    -0.005 C 
BRANCH  20  21
ATOM     21  C   UNL     1       3.541   3.578   0.685  0.00  0.00    +0.094 C 
BRANCH  21  22
ATOM     22  C   UNL     1       4.735   4.404   0.281  0.00  0.00    +0.213 C 
ATOM     23  O   UNL     1       4.649   5.181  -0.646  0.00  0.00    -0.276 OA
ATOM     24  N   UNL     1       5.898   4.279   0.950  0.00  0.00    -0.312 N 
ATOM     25  H   UNL     1       5.966   3.657   1.692  0.00  0.00    +0.149 HD
BRANCH  24  26
ATOM     26  C   UNL     1       7.059   5.081   0.557  0.00  0.00    +0.073 C 
ATOM     27  C   UNL     1       8.415   4.377   0.492  0.00  0.00    +0.024 C 
ATOM     28  C   UNL     1       8.118   5.361   1.625  0.00  0.00    +0.024 C 
ENDBRANCH  24  26
ENDBRANCH  21  22
ENDBRANCH  20  21
ENDBRANCH   8  20
TORSDOF 6
