REMARK  Name = ZINC39933238
REMARK  3 active torsions:
REMARK  status: ('A' for Active; 'I' for Inactive)
REMARK    1  A    between atoms: C_8  and  C_13
REMARK    2  A    between atoms: N_14  and  N_15
REMARK    3  A    between atoms: C_16  and  C_18
REMARK                            x       y       z     vdW  Elec       q    Type
REMARK                         _______ _______ _______ _____ _____    ______ ____
ROOT
ATOM      1  C   UNL     1       0.032   1.350   0.111  0.00  0.00    +0.001 A 
ATOM      2  C   UNL     1       1.208   2.098   0.048  0.00  0.00    +0.002 A 
ATOM      3  C   UNL     1       2.438   1.526  -0.019  0.00  0.00    +0.024 A 
ATOM      4  C   UNL     1       2.574   0.124  -0.027  0.00  0.00    +0.038 A 
ATOM      5  N   UNL     1       3.784  -0.426  -0.091  0.00  0.00    -0.311 N 
ATOM      6  C   UNL     1       3.983  -1.734  -0.103  0.00  0.00    +0.065 C 
ATOM      7  S   UNL     1       5.574  -2.361  -0.188  0.00  0.00    -0.039 S 
ATOM      8  C   UNL     1       2.800  -2.674  -0.040  0.00  0.00    +0.107 C 
ATOM      9  C   UNL     1       1.419  -2.051   0.034  0.00  0.00    -0.002 C 
ATOM     10  C   UNL     1       1.348  -0.691   0.039  0.00  0.00    -0.007 A 
ATOM     11  C   UNL     1       0.055  -0.007   0.109  0.00  0.00    +0.009 A 
ATOM     12  H   UNL     1       4.556   0.160  -0.132  0.00  0.00    +0.152 HD
ENDROOT
BRANCH   8  13
ATOM     13  C   UNL     1       2.844  -3.555  -1.262  0.00  0.00    +0.117 C 
ATOM     14  N   UNL     1       3.011  -4.818  -1.135  0.00  0.00    -0.191 NA
BRANCH  14  15
ATOM     15  N   UNL     1       3.011  -5.399   0.140  0.00  0.00    -0.201 N 
ATOM     16  C   UNL     1       3.296  -6.709   0.283  0.00  0.00    +0.299 C 
ATOM     17  O   UNL     1       3.553  -7.386  -0.695  0.00  0.00    -0.265 OA
ATOM     18  H   UNL     1       2.806  -4.859   0.919  0.00  0.00    +0.178 HD
BRANCH  16  19
ATOM     19  C   UNL     1       3.295  -7.317   1.617  0.00  0.00    +0.191 A 
ATOM     20  C   UNL     1       3.570  -8.624   1.902  0.00  0.00    +0.054 A 
ATOM     21  C   UNL     1       3.455  -8.766   3.294  0.00  0.00    +0.042 A 
ATOM     22  C   UNL     1       3.119  -7.555   3.791  0.00  0.00    +0.196 A 
ATOM     23  O   UNL     1       3.029  -6.684   2.777  0.00  0.00    -0.458 OA
ENDBRANCH  16  19
ENDBRANCH  14  15
ENDBRANCH   8  13
TORSDOF 3
