REMARK  Name = ZINC04236444
REMARK  4 active torsions:
REMARK  status: ('A' for Active; 'I' for Inactive)
REMARK    1  A    between atoms: C_3  and  C_9
REMARK    2  A    between atoms: C_5  and  C_7
REMARK    3  A    between atoms: C_22  and  N_27
REMARK    4  A    between atoms: N_30  and  C_31
REMARK                            x       y       z     vdW  Elec       q    Type
REMARK                         _______ _______ _______ _____ _____    ______ ____
ROOT
ATOM      1  C   UNL     1       3.547   5.740   0.037  0.00  0.00    +0.247 C 
ATOM      2  O   UNL     1       2.447   5.243  -0.110  0.00  0.00    -0.270 OA
ATOM      3  N   UNL     1       3.672   7.077   0.151  0.00  0.00    -0.297 N 
ATOM      4  C   UNL     1       4.998   7.704   0.209  0.00  0.00    +0.113 C 
ATOM      5  C   UNL     1       5.082   8.847  -0.798  0.00  0.00    +0.027 C 
ATOM      6  C   UNL     1       3.889   9.792  -0.659  0.00  0.00    +0.018 C 
ATOM      7  C   UNL     1       2.607   8.988  -0.893  0.00  0.00    +0.054 C 
ATOM      8  C   UNL     1       2.483   7.940   0.227  0.00  0.00    +0.117 C 
ATOM      9  C   UNL     1       2.702   8.246  -2.206  0.00  0.00    +0.027 A 
ATOM     10  C   UNL     1       1.536   7.927  -2.827  0.00  0.00    +0.024 A 
ATOM     11  C   UNL     1       1.537   7.186  -4.013  0.00  0.00    +0.030 A 
ATOM     12  C   UNL     1       2.733   6.769  -4.530  0.00  0.00    +0.100 A 
ATOM     13  C   UNL     1       3.922   7.119  -3.864  0.00  0.00    +0.273 A 
ATOM     14  O   UNL     1       4.993   6.714  -4.288  0.00  0.00    -0.266 OA
ATOM     15  N   UNL     1       3.892   7.902  -2.757  0.00  0.00    -0.310 N 
ATOM     16  C   UNL     1       5.181   8.348  -2.228  0.00  0.00    +0.130 C 
ENDROOT
BRANCH   1  19
ATOM     17  C   UNL     1       6.956   4.435   0.938  0.00  0.00    +0.002 A 
ATOM     18  C   UNL     1       5.834   5.239   0.888  0.00  0.00    +0.013 A 
ATOM     19  C   UNL     1       4.747   4.878   0.089  0.00  0.00    +0.038 A 
ATOM     20  C   UNL     1       4.796   3.703  -0.659  0.00  0.00    +0.028 A 
ATOM     21  C   UNL     1       5.931   2.896  -0.604  0.00  0.00    +0.064 A 
ATOM     22  C   UNL     1       7.009   3.266   0.205  0.00  0.00    +0.015 A 
BRANCH  21  23
ATOM     23  C   UNL     1       5.991   1.649  -1.393  0.00  0.00    +0.387 C 
ATOM     24  O   UNL     1       5.051   1.326  -2.092  0.00  0.00    -0.241 OA
ATOM     25  O   UNL     1       7.089   0.870  -1.339  0.00  0.00    -0.241 OA
ENDBRANCH  21  23
ENDBRANCH   1  19
BRANCH  12  26
ATOM     26  N   UNL     1       2.773   6.004  -5.704  0.00  0.00    -0.265 N 
ATOM     27  C   UNL     1       3.521   6.412  -6.749  0.00  0.00    +0.304 C 
ATOM     28  O   UNL     1       4.089   7.486  -6.707  0.00  0.00    -0.252 OA
ATOM     29  N   UNL     1       3.639   5.629  -7.839  0.00  0.00    -0.296 N 
ATOM     30  H   UNL     1       2.263   5.181  -5.765  0.00  0.00    +0.157 HD
ATOM     31  H   UNL     1       3.186   4.772  -7.873  0.00  0.00    +0.151 HD
BRANCH  29  32
ATOM     32  C   UNL     1       4.452   6.072  -8.975  0.00  0.00    +0.074 C 
ATOM     33  C   UNL     1       3.609   6.965  -9.888  0.00  0.00    +0.022 C 
ATOM     34  C   UNL     1       4.458   7.428 -11.073  0.00  0.00    +0.002 C 
ATOM     35  C   UNL     1       4.944   6.208 -11.860  0.00  0.00    +0.000 C 
ATOM     36  C   UNL     1       5.787   5.315 -10.947  0.00  0.00    +0.002 C 
ATOM     37  C   UNL     1       4.938   4.853  -9.761  0.00  0.00    +0.022 C 
ENDBRANCH  29  32
ENDBRANCH  12  26
TORSDOF 4
