REMARK  Name = ZINC20472890
REMARK  7 active torsions:
REMARK  status: ('A' for Active; 'I' for Inactive)
REMARK    1  A    between atoms: C_1  and  C_2
REMARK    2  A    between atoms: C_2  and  N_16
REMARK    3  A    between atoms: C_7  and  C_9
REMARK    4  A    between atoms: C_12  and  O_15
REMARK    5  A    between atoms: C_17  and  C_19
REMARK    6  A    between atoms: C_19  and  N_20
REMARK    7  A    between atoms: N_23  and  C_26
REMARK                            x       y       z     vdW  Elec       q    Type
REMARK                         _______ _______ _______ _____ _____    ______ ____
ROOT
ATOM      1  C   UNL     1      -0.043   1.796   0.807  0.00  0.00    +0.032 C 
ATOM      2  C   UNL     1      -0.097   0.345   0.325  0.00  0.00    +0.039 C 
ATOM      3  C   UNL     1      -1.525  -0.185   0.461  0.00  0.00    +0.026 C 
ATOM      4  C   UNL     1      -1.956  -0.118   1.928  0.00  0.00    +0.002 C 
ATOM      5  C   UNL     1      -1.012  -0.973   2.776  0.00  0.00    +0.001 C 
ATOM      6  C   UNL     1       0.417  -0.443   2.640  0.00  0.00    +0.010 C 
ATOM      7  C   UNL     1       0.848  -0.509   1.173  0.00  0.00    +0.042 C 
ENDROOT
BRANCH   7   8
ATOM      8  C   UNL     1       2.255   0.013   1.038  0.00  0.00    -0.042 A 
ATOM      9  C   UNL     1       2.629   1.167   1.702  0.00  0.00    +0.007 A 
ATOM     10  C   UNL     1       3.918   1.648   1.580  0.00  0.00    +0.045 A 
ATOM     11  C   UNL     1       4.838   0.972   0.791  0.00  0.00    +0.117 A 
ATOM     12  C   UNL     1       4.460  -0.186   0.127  0.00  0.00    +0.045 A 
ATOM     13  C   UNL     1       3.171  -0.665   0.256  0.00  0.00    +0.007 A 
BRANCH  11  14
ATOM     14  O   UNL     1       6.107   1.443   0.669  0.00  0.00    -0.507 OA
ATOM     15  H   UNL     1       6.720   1.099   1.333  0.00  0.00    +0.292 HD
ENDBRANCH  11  14
ENDBRANCH   7   8
BRANCH   2  16
ATOM     16  N   UNL     1       0.316   0.282  -1.079  0.00  0.00    -0.308 N 
ATOM     17  C   UNL     1      -0.375   0.962  -2.016  0.00  0.00    +0.228 C 
ATOM     18  O   UNL     1      -1.338   1.626  -1.696  0.00  0.00    -0.274 OA
ATOM     19  H   UNL     1       1.086  -0.250  -1.335  0.00  0.00    +0.149 HD
BRANCH  17  20
ATOM     20  C   UNL     1       0.049   0.896  -3.461  0.00  0.00    +0.180 C 
BRANCH  20  21
ATOM     21  N   UNL     1      -0.857   1.717  -4.275  0.00  0.00    -0.298 NA
ATOM     22  C   UNL     1      -2.213   1.149  -4.288  0.00  0.00    +0.066 C 
ATOM     23  C   UNL     1      -3.138   2.062  -5.095  0.00  0.00    -0.064 C 
ATOM     24  N   UNL     1      -2.627   2.187  -6.467  0.00  0.00    +0.379 N 
ATOM     25  C   UNL     1      -1.283   2.778  -6.439  0.00  0.00    -0.064 C 
ATOM     26  C   UNL     1      -0.343   1.871  -5.643  0.00  0.00    +0.066 C 
ATOM     27  C   UNL     1      -3.525   3.050  -7.247  0.00  0.00    -0.096 C 
ATOM     28  H   UNL     1      -2.584   1.274  -6.894  0.00  0.00    -0.082 HD
ENDBRANCH  20  21
ENDBRANCH  17  20
ENDBRANCH   2  16
TORSDOF 5
