REMARK  Name = ZINC11443658
REMARK  8 active torsions:
REMARK  status: ('A' for Active; 'I' for Inactive)
REMARK    1  A    between atoms: C_1  and  C_2
REMARK    2  A    between atoms: C_2  and  C_3
REMARK    3  A    between atoms: C_3  and  C_4
REMARK    4  A    between atoms: C_8  and  S_10
REMARK    5  A    between atoms: S_10  and  C_11
REMARK    6  A    between atoms: C_11  and  C_12
REMARK    7  A    between atoms: N_14  and  C_15
REMARK    8  A    between atoms: C_20  and  C_21
REMARK                            x       y       z     vdW  Elec       q    Type
REMARK                         _______ _______ _______ _____ _____    ______ ____
ROOT
ATOM      1  C   UNL     1      -1.071  -3.477  -3.946  0.00  0.00    +0.173 C 
ENDROOT
BRANCH   1   2
ATOM      2  C   UNL     1      -0.966  -4.047  -5.337  0.00  0.00    +0.227 C 
ATOM      3  O   UNL     1      -0.944  -5.248  -5.500  0.00  0.00    -0.275 OA
ATOM      4  N   UNL     1      -0.897  -3.221  -6.400  0.00  0.00    -0.285 N 
ATOM      5  H   UNL     1      -0.996  -2.264  -6.277  0.00  0.00    +0.155 HD
BRANCH   4   6
ATOM      6  C   UNL     1      -0.684  -3.744  -7.680  0.00  0.00    +0.036 A 
ATOM      7  C   UNL     1      -0.048  -4.969  -7.834  0.00  0.00    +0.024 A 
ATOM      8  C   UNL     1       0.161  -5.483  -9.098  0.00  0.00    +0.016 A 
ATOM      9  C   UNL     1      -0.264  -4.779 -10.211  0.00  0.00    +0.014 A 
ATOM     10  C   UNL     1      -0.898  -3.559 -10.061  0.00  0.00    +0.019 A 
ATOM     11  C   UNL     1      -1.114  -3.043  -8.799  0.00  0.00    -0.028 A 
ATOM     12  C   UNL     1      -1.810  -1.716  -8.636  0.00  0.00    +0.046 C 
ATOM     13  I   UNL     1       0.055  -5.563 -12.128  0.00  0.00    -0.044 I 
ENDBRANCH   4   6
ENDBRANCH   1   2
BRANCH   1  14
ATOM     14  S   UNL     1      -1.145  -4.832  -2.742  0.00  0.00    -0.078 S 
BRANCH  14  19
ATOM     15  C   UNL     1      -1.365  -2.038   0.008  0.00  0.00    +0.049 A 
ATOM     16  C   UNL     1      -1.443  -2.727   1.184  0.00  0.00    +0.093 A 
ATOM     17  C   UNL     1      -1.429  -4.133   1.151  0.00  0.00    +0.252 A 
ATOM     18  N   UNL     1      -1.338  -4.753  -0.044  0.00  0.00    -0.302 N 
ATOM     19  C   UNL     1      -1.263  -4.014  -1.186  0.00  0.00    +0.170 A 
ATOM     20  N   UNL     1      -1.283  -2.695  -1.146  0.00  0.00    -0.228 NA
ATOM     21  O   UNL     1      -1.496  -4.779   2.184  0.00  0.00    -0.268 OA
ATOM     22  H   UNL     1      -1.326  -5.722  -0.090  0.00  0.00    +0.171 HD
BRANCH  15  23
ATOM     23  C   UNL     1      -1.378  -0.532   0.016  0.00  0.00    +0.055 C 
BRANCH  23  25
ATOM     24  C   UNL     1       0.046   1.521   0.005  0.00  0.00    +0.004 C 
ATOM     25  C   UNL     1       0.059  -0.009  -0.004  0.00  0.00    +0.003 C 
ENDBRANCH  23  25
ENDBRANCH  15  23
ENDBRANCH  14  19
ENDBRANCH   1  14
TORSDOF 6
