REMARK  Name = ZINC05036966
REMARK  4 active torsions:
REMARK  status: ('A' for Active; 'I' for Inactive)
REMARK    1  A    between atoms: C_1  and  C_2
REMARK    2  A    between atoms: C_6  and  N_9
REMARK    3  A    between atoms: C_7  and  C_8
REMARK    4  A    between atoms: N_19  and  O_20
REMARK                            x       y       z     vdW  Elec       q    Type
REMARK                         _______ _______ _______ _____ _____    ______ ____
ROOT
ATOM      1  N   UNL     1      -2.416   5.241   0.052  0.00  0.00    -0.140 N 
ATOM      2  C   UNL     1      -1.245   5.901   0.044  0.00  0.00    +0.331 C 
ATOM      3  O   UNL     1      -1.248   7.117   0.050  0.00  0.00    -0.250 OA
ATOM      4  N   UNL     1      -0.069   5.246   0.029  0.00  0.00    -0.266 N 
ATOM      5  C   UNL     1      -0.038   3.846   0.022  0.00  0.00    +0.062 A 
ATOM      6  C   UNL     1       1.168   3.164   0.007  0.00  0.00    +0.025 A 
ATOM      7  C   UNL     1       1.177   1.781   0.000  0.00  0.00    +0.002 A 
ATOM      8  C   UNL     1      -0.013   1.076   0.008  0.00  0.00    +0.002 A 
ATOM      9  C   UNL     1      -1.221   1.749   0.017  0.00  0.00    +0.031 A 
ATOM     10  C   UNL     1      -1.237   3.133   0.030  0.00  0.00    +0.108 A 
ATOM     11  N   UNL     1      -2.446   3.839   0.045  0.00  0.00    -0.157 N 
ATOM     12  H   UNL     1       0.762   5.747   0.024  0.00  0.00    +0.157 HD
ENDROOT
BRANCH   1  18
ATOM     13  C   UNL     1      -6.184   7.241  -2.393  0.00  0.00    +0.044 C 
ATOM     14  C   UNL     1      -5.464   6.943  -1.103  0.00  0.00    -0.046 A 
ATOM     15  C   UNL     1      -5.990   7.381   0.099  0.00  0.00    +0.004 A 
ATOM     16  C   UNL     1      -5.333   7.111   1.284  0.00  0.00    +0.002 A 
ATOM     17  C   UNL     1      -4.151   6.396   1.273  0.00  0.00    +0.026 A 
ATOM     18  C   UNL     1      -3.617   5.960   0.068  0.00  0.00    +0.065 A 
ATOM     19  C   UNL     1      -4.280   6.234  -1.122  0.00  0.00    -0.024 A 
ATOM     20  C   UNL     1      -3.707   5.756  -2.432  0.00  0.00    +0.046 C 
ENDBRANCH   1  18
BRANCH  11  21
ATOM     21  O   UNL     1      -3.682   3.147   0.054  0.00  0.00    -0.268 OA
ATOM     22  H   UNL     1      -3.593   2.184   0.049  0.00  0.00    +0.246 HD
ENDBRANCH  11  21
TORSDOF 2
