REMARK  Name = ZINC20274830
REMARK  6 active torsions:
REMARK  status: ('A' for Active; 'I' for Inactive)
REMARK    1  A    between atoms: C_1  and  C_2
REMARK    2  A    between atoms: C_4  and  O_10
REMARK    3  A    between atoms: C_6  and  C_9
REMARK    4  A    between atoms: O_10  and  C_11
REMARK    5  A    between atoms: C_14  and  C_16
REMARK    6  A    between atoms: C_16  and  N_17
REMARK                            x       y       z     vdW  Elec       q    Type
REMARK                         _______ _______ _______ _____ _____    ______ ____
ROOT
ATOM      1  O   UNL     1       0.002  -0.004   0.002  0.00  0.00    -0.425 OA
ENDROOT
BRANCH   1   5
ATOM      2  C   UNL     1      -2.472  -4.206  -0.204  0.00  0.00    +0.045 C 
ATOM      3  C   UNL     1      -2.433  -2.700  -0.198  0.00  0.00    -0.028 A 
ATOM      4  C   UNL     1      -1.223  -2.041  -0.100  0.00  0.00    +0.051 A 
ATOM      5  C   UNL     1      -1.188  -0.654  -0.095  0.00  0.00    +0.132 A 
ATOM      6  C   UNL     1      -2.369   0.069  -0.183  0.00  0.00    +0.051 A 
ATOM      7  C   UNL     1      -3.577  -0.594  -0.285  0.00  0.00    -0.028 A 
ATOM      8  C   UNL     1      -3.610  -1.977  -0.290  0.00  0.00    +0.047 A 
ATOM      9 CL   UNL     1      -5.129  -2.807  -0.413  0.00  0.00    -0.083 Cl
ATOM     10  C   UNL     1      -4.859   0.191  -0.384  0.00  0.00    +0.045 C 
ENDBRANCH   1   5
BRANCH   1  11
ATOM     11  C   UNL     1       1.113  -0.743   0.253  0.00  0.00    +0.292 A 
ATOM     12  C   UNL     1       2.385  -0.285   0.247  0.00  0.00    +0.091 A 
ATOM     13  C   UNL     1       3.216  -1.387   0.559  0.00  0.00    +0.046 A 
ATOM     14  C   UNL     1       2.410  -2.448   0.735  0.00  0.00    +0.092 A 
ATOM     15  O   UNL     1       1.136  -2.052   0.554  0.00  0.00    -0.432 OA
BRANCH  14  16
ATOM     16  C   UNL     1       2.856  -3.844   1.084  0.00  0.00    -0.011 C 
BRANCH  16  17
ATOM     17  N   UNL     1       2.897  -3.994   2.545  0.00  0.00    +0.383 N 
ATOM     18  H   UNL     1       3.223  -5.014   2.800  0.00  0.00    -0.089 HD
ATOM     19  H   UNL     1       1.894  -3.815   2.960  0.00  0.00    -0.089 HD
ATOM     20  H   UNL     1       3.604  -3.267   2.969  0.00  0.00    -0.089 HD
ENDBRANCH  16  17
ENDBRANCH  14  16
ENDBRANCH   1  11
TORSDOF 4
