REMARK  Name = ZINC42015796
REMARK  5 active torsions:
REMARK  status: ('A' for Active; 'I' for Inactive)
REMARK    1  A    between atoms: C_1  and  C_2
REMARK    2  A    between atoms: C_2  and  C_3
REMARK    3  A    between atoms: C_6  and  N_9
REMARK    4  A    between atoms: C_10  and  C_14
REMARK    5  A    between atoms: C_19  and  N_20
REMARK                            x       y       z     vdW  Elec       q    Type
REMARK                         _______ _______ _______ _____ _____    ______ ____
ROOT
ATOM      1  N   UNL     1       2.672  -1.857  -4.651  0.00  0.00    -0.193 N 
ATOM      2  C   UNL     1       3.879  -1.445  -5.135  0.00  0.00    +0.189 A 
ATOM      3  N   UNL     1       4.087  -2.104  -6.257  0.00  0.00    -0.108 NA
ATOM      4  N   UNL     1       3.104  -2.892  -6.505  0.00  0.00    -0.022 NA
ATOM      5  N   UNL     1       2.211  -2.807  -5.580  0.00  0.00    -0.039 NA
ENDROOT
BRANCH   2   6
ATOM      6  C   UNL     1       4.780  -0.448  -4.519  0.00  0.00    +0.044 A 
ATOM      7  C   UNL     1       5.103  -0.537  -3.165  0.00  0.00    +0.051 A 
ATOM      8  C   UNL     1       5.946   0.397  -2.595  0.00  0.00    +0.124 A 
ATOM      9  C   UNL     1       6.474   1.423  -3.364  0.00  0.00    +0.040 A 
ATOM     10  C   UNL     1       6.161   1.521  -4.706  0.00  0.00    +0.026 A 
ATOM     11  C   UNL     1       5.320   0.587  -5.294  0.00  0.00    +0.036 A 
ATOM     12  F   UNL     1       6.258   0.310  -1.283  0.00  0.00    -0.205 F 
BRANCH  11  13
ATOM     13  N   UNL     1       5.009   0.682  -6.650  0.00  0.00    -0.357 N 
ATOM     14  H   UNL     1       4.418   0.030  -7.059  0.00  0.00    +0.142 HD
ATOM     15  H   UNL     1       5.383   1.399  -7.184  0.00  0.00    +0.142 HD
ENDBRANCH  11  13
ENDBRANCH   2   6
BRANCH   1  19
ATOM     16  C   UNL     1       0.769  -0.590  -1.166  0.00  0.00    -0.047 A 
ATOM     17  C   UNL     1       1.397   0.332  -1.983  0.00  0.00    +0.006 A 
ATOM     18  C   UNL     1       2.028  -0.085  -3.139  0.00  0.00    +0.028 A 
ATOM     19  C   UNL     1       2.032  -1.431  -3.479  0.00  0.00    +0.069 A 
ATOM     20  C   UNL     1       1.401  -2.355  -2.656  0.00  0.00    +0.028 A 
ATOM     21  C   UNL     1       0.776  -1.932  -1.499  0.00  0.00    +0.006 A 
BRANCH  16  23
ATOM     22  C   UNL     1       1.076  -0.153   1.256  0.00  0.00    +0.009 C 
ATOM     23  C   UNL     1       0.081  -0.132   0.094  0.00  0.00    +0.032 C 
ENDBRANCH  16  23
ENDBRANCH   1  19
TORSDOF 4
