REMARK  Name = ZINC63296367
REMARK  8 active torsions:
REMARK  status: ('A' for Active; 'I' for Inactive)
REMARK    1  A    between atoms: C_1  and  O_2
REMARK    2  A    between atoms: O_2  and  C_3
REMARK    3  A    between atoms: C_8  and  C_9
REMARK    4  A    between atoms: C_9  and  C_10
REMARK    5  A    between atoms: C_10  and  N_11
REMARK    6  A    between atoms: C_12  and  C_14
REMARK    7  A    between atoms: C_17  and  C_21
REMARK    8  A    between atoms: C_21  and  C_22
REMARK                            x       y       z     vdW  Elec       q    Type
REMARK                         _______ _______ _______ _____ _____    ______ ____
ROOT
ATOM      1  C   UNL     1      -3.958  -4.971   1.815  0.00  0.00    +0.297 C 
ATOM      2  N   UNL     1      -3.480  -6.364   1.709  0.00  0.00    -0.265 NA
ATOM      3  C   UNL     1      -4.685  -7.204   1.513  0.00  0.00    +0.154 C 
ATOM      4  N   UNL     1      -5.786  -6.370   2.066  0.00  0.00    -0.181 NA
ATOM      5  O   UNL     1      -5.390  -4.997   1.672  0.00  0.00    -0.270 OA
ATOM      6  H   UNL     1      -2.838  -6.468   0.937  0.00  0.00    +0.126 HD
ATOM      7  H   UNL     1      -5.835  -6.456   3.070  0.00  0.00    +0.156 HD
ENDROOT
BRANCH   1   9
ATOM      8  N   UNL     1      -2.035  -3.834   0.755  0.00  0.00    -0.312 N 
ATOM      9  C   UNL     1      -3.348  -4.134   0.721  0.00  0.00    +0.259 C 
ATOM     10  O   UNL     1      -4.039  -3.731  -0.191  0.00  0.00    -0.271 OA
ATOM     11  H   UNL     1      -1.482  -4.156   1.484  0.00  0.00    +0.149 HD
BRANCH   8  12
ATOM     12  C   UNL     1      -1.442  -3.020  -0.309  0.00  0.00    +0.109 C 
BRANCH  12  13
ATOM     13  C   UNL     1       0.051  -2.828  -0.033  0.00  0.00    +0.057 C 
BRANCH  13  19
ATOM     14  C   UNL     1       0.606  -0.607  -1.056  0.00  0.00    +0.123 A 
ATOM     15  C   UNL     1       1.173   0.161  -2.063  0.00  0.00    +0.046 A 
ATOM     16  C   UNL     1       1.786  -0.455  -3.136  0.00  0.00    +0.004 A 
ATOM     17  C   UNL     1       1.836  -1.835  -3.208  0.00  0.00    +0.000 A 
ATOM     18  C   UNL     1       1.271  -2.602  -2.207  0.00  0.00    +0.007 A 
ATOM     19  C   UNL     1       0.661  -1.991  -1.128  0.00  0.00    -0.004 A 
BRANCH  14  21
ATOM     20  C   UNL     1      -0.017   1.425   0.010  0.00  0.00    +0.277 C 
ATOM     21  O   UNL     1       0.002  -0.004   0.002  0.00  0.00    -0.495 OA
ENDBRANCH  14  21
ENDBRANCH  13  19
ENDBRANCH  12  13
ENDBRANCH   8  12
ENDBRANCH   1   9
BRANCH   3  22
ATOM     22  C   UNL     1      -4.558  -8.517   2.289  0.00  0.00    +0.070 C 
BRANCH  22  23
ATOM     23  C   UNL     1      -5.737  -9.401   1.976  0.00  0.00    -0.039 C 
ATOM     24  C   UNL     1      -5.794 -10.382   1.047  0.00  0.00    -0.001 A 
ATOM     25  C   UNL     1      -4.813 -10.898   0.085  0.00  0.00    +0.010 A 
ATOM     26  C   UNL     1      -5.170 -11.911  -0.737  0.00  0.00    +0.001 A 
ATOM     27  C   UNL     1      -6.451 -12.479  -0.693  0.00  0.00    +0.002 A 
ATOM     28  C   UNL     1      -7.406 -12.059   0.163  0.00  0.00    +0.026 A 
ATOM     29  C   UNL     1      -7.139 -10.999   1.073  0.00  0.00    +0.043 A 
ATOM     30  N   UNL     1      -7.886 -10.422   1.984  0.00  0.00    -0.380 N 
ATOM     31  C   UNL     1      -7.095  -9.377   2.643  0.00  0.00    +0.144 C 
ATOM     32  H   UNL     1      -8.805 -10.651   2.190  0.00  0.00    +0.160 HD
ENDBRANCH  22  23
ENDBRANCH   3  22
TORSDOF 7
