REMARK  Name = ZINC65985229
REMARK  8 active torsions:
REMARK  status: ('A' for Active; 'I' for Inactive)
REMARK    1  A    between atoms: C_1  and  C_2
REMARK    2  A    between atoms: C_2  and  C_3
REMARK    3  A    between atoms: C_3  and  C_4
REMARK    4  A    between atoms: C_3  and  N_5
REMARK    5  A    between atoms: C_6  and  C_8
REMARK    6  A    between atoms: C_8  and  C_9
REMARK    7  A    between atoms: C_8  and  N_10
REMARK    8  A    between atoms: N_13  and  C_14
REMARK                            x       y       z     vdW  Elec       q    Type
REMARK                         _______ _______ _______ _____ _____    ______ ____
ROOT
ATOM      1  N   UNL     1       0.769   0.439   6.006  0.00  0.00    -0.288 N 
ATOM      2  C   UNL     1       0.466   1.220   7.062  0.00  0.00    +0.304 C 
ATOM      3  O   UNL     1      -0.567   1.862   7.067  0.00  0.00    -0.252 OA
ATOM      4  N   UNL     1       1.307   1.289   8.113  0.00  0.00    -0.268 N 
ATOM      5  H   UNL     1       1.592  -0.073   6.003  0.00  0.00    +0.151 HD
ATOM      6  H   UNL     1       2.097   0.726   8.140  0.00  0.00    +0.156 HD
ENDROOT
BRANCH   4   7
ATOM      7  C   UNL     1       1.042   2.175   9.166  0.00  0.00    +0.051 A 
ATOM      8  C   UNL     1      -0.271   2.427   9.562  0.00  0.00    +0.028 A 
ATOM      9  C   UNL     1      -0.486   3.308  10.607  0.00  0.00    +0.043 A 
ATOM     10  C   UNL     1       0.606   3.909  11.223  0.00  0.00    +0.099 A 
ATOM     11  N   UNL     1       1.839   3.647  10.820  0.00  0.00    -0.348 N 
ATOM     12  C   UNL     1       2.081   2.807   9.831  0.00  0.00    +0.107 A 
ATOM     13  N   UNL     1       0.400   4.797  12.275  0.00  0.00    -0.317 N 
ATOM     14  C   UNL     1      -0.906   5.178  12.832  0.00  0.00    +0.106 C 
ATOM     15  C   UNL     1      -0.644   6.200  13.959  0.00  0.00    +0.020 C 
ATOM     16  C   UNL     1       0.755   6.764  13.597  0.00  0.00    +0.020 C 
ATOM     17  C   UNL     1       1.456   5.506  13.020  0.00  0.00    +0.106 C 
ATOM     18  H   UNL     1       2.584   4.079  11.266  0.00  0.00    +0.167 HD
ENDBRANCH   4   7
BRANCH   1  19
ATOM     19  C   UNL     1      -0.146   0.364   4.864  0.00  0.00    +0.157 C 
ATOM     20  C   UNL     1      -1.225  -0.684   5.144  0.00  0.00    +0.038 C 
BRANCH  19  22
ATOM     21  N   UNL     1      -0.015  -0.156   2.450  0.00  0.00    -0.311 N 
ATOM     22  C   UNL     1       0.624  -0.025   3.629  0.00  0.00    +0.233 C 
ATOM     23  O   UNL     1       1.819  -0.220   3.696  0.00  0.00    -0.274 OA
ATOM     24  H   UNL     1      -0.971  -0.000   2.396  0.00  0.00    +0.149 HD
BRANCH  21  25
ATOM     25  C   UNL     1       0.733  -0.534   1.248  0.00  0.00    +0.070 C 
ATOM     26  C   UNL     1       0.857  -2.058   1.183  0.00  0.00    +0.028 C 
BRANCH  25  28
ATOM     27  C   UNL     1      -0.021   1.500   0.010  0.00  0.00    +0.005 C 
ATOM     28  C   UNL     1      -0.005  -0.029   0.007  0.00  0.00    +0.018 C 
ENDBRANCH  25  28
ENDBRANCH  21  25
ENDBRANCH  19  22
ENDBRANCH   1  19
TORSDOF 5
