REMARK  Name = ZINC49234489
REMARK  6 active torsions:
REMARK  status: ('A' for Active; 'I' for Inactive)
REMARK    1  A    between atoms: C_1  and  C_2
REMARK    2  A    between atoms: C_2  and  C_3
REMARK    3  A    between atoms: C_2  and  C_4
REMARK    4  A    between atoms: N_9  and  S_10
REMARK    5  A    between atoms: S_10  and  C_13
REMARK    6  A    between atoms: C_18  and  N_19
REMARK                            x       y       z     vdW  Elec       q    Type
REMARK                         _______ _______ _______ _____ _____    ______ ____
ROOT
ATOM      1  S   UNL     1      -5.975  -1.241   1.636  0.00  0.00    +0.103 S 
ATOM      2  O   UNL     1      -6.529  -0.621   0.484  0.00  0.00    -0.146 OA
ATOM      3  O   UNL     1      -5.771  -2.645   1.722  0.00  0.00    -0.146 OA
ENDROOT
BRANCH   1   9
ATOM      4  C   UNL     1      -1.412  -0.526   0.013  0.00  0.00    +0.027 A 
ATOM      5  C   UNL     1      -1.843  -1.297  -0.985  0.00  0.00    +0.070 A 
ATOM      6  S   UNL     1      -3.529  -1.631  -0.500  0.00  0.00    -0.057 S 
ATOM      7  C   UNL     1      -3.533  -0.701   1.025  0.00  0.00    +0.192 A 
ATOM      8  N   UNL     1      -2.244  -0.212   1.047  0.00  0.00    -0.336 N 
ATOM      9  N   UNL     1      -4.500  -0.532   1.892  0.00  0.00    -0.103 NA
ATOM     10  H   UNL     1      -1.938   0.345   1.779  0.00  0.00    +0.168 HD
BRANCH   4  12
ATOM     11  C   UNL     1      -0.019   1.526   0.010  0.00  0.00    +0.013 C 
ATOM     12  C   UNL     1       0.002  -0.004   0.002  0.00  0.00    +0.030 C 
ATOM     13  C   UNL     1       0.742  -0.511   1.242  0.00  0.00    +0.013 C 
ENDBRANCH   4  12
ENDBRANCH   1   9
BRANCH   1  14
ATOM     14  C   UNL     1      -7.008  -0.798   2.993  0.00  0.00    +0.133 A 
ATOM     15  C   UNL     1      -8.126  -0.014   2.783  0.00  0.00    +0.032 A 
ATOM     16  C   UNL     1      -8.938   0.334   3.847  0.00  0.00    +0.022 A 
ATOM     17  C   UNL     1      -8.633  -0.101   5.125  0.00  0.00    +0.043 A 
ATOM     18  C   UNL     1      -7.516  -0.886   5.341  0.00  0.00    +0.044 A 
ATOM     19  C   UNL     1      -6.703  -1.242   4.273  0.00  0.00    +0.053 A 
ATOM     20 CL   UNL     1      -9.655   0.339   6.457  0.00  0.00    -0.083 Cl
BRANCH  19  21
ATOM     21  N   UNL     1      -5.577  -2.040   4.487  0.00  0.00    -0.356 N 
ATOM     22  H   UNL     1      -5.007  -2.285   3.741  0.00  0.00    +0.142 HD
ATOM     23  H   UNL     1      -5.364  -2.349   5.381  0.00  0.00    +0.142 HD
ENDBRANCH  19  21
ENDBRANCH   1  14
TORSDOF 4
