REMARK  Name = ZINC47165232
REMARK  9 active torsions:
REMARK  status: ('A' for Active; 'I' for Inactive)
REMARK    1  A    between atoms: C_1  and  C_2
REMARK    2  A    between atoms: C_6  and  C_8
REMARK    3  A    between atoms: C_12  and  C_15
REMARK    4  A    between atoms: C_15  and  N_16
REMARK    5  A    between atoms: C_17  and  C_19
REMARK    6  A    between atoms: C_19  and  C_20
REMARK    7  A    between atoms: C_20  and  C_21
REMARK    8  A    between atoms: C_21  and  C_22
REMARK    9  A    between atoms: C_22  and  N_23
REMARK                            x       y       z     vdW  Elec       q    Type
REMARK                         _______ _______ _______ _____ _____    ______ ____
ROOT
ATOM      1  C   UNL     1      -4.193  -5.503  -3.176  0.00  0.00    +0.141 C 
ENDROOT
BRANCH   1  13
ATOM      2  C   UNL     1       0.024   1.508  -0.007  0.00  0.00    +0.039 C 
ATOM      3  C   UNL     1       0.027  -0.022  -0.001  0.00  0.00    +0.133 C 
ATOM      4  C   UNL     1      -1.417  -0.537   0.005  0.00  0.00    +0.137 C 
ATOM      5  N   UNL     1      -1.389  -1.995   0.200  0.00  0.00    -0.312 N 
ATOM      6  C   UNL     1      -0.594  -2.529   1.318  0.00  0.00    +0.137 C 
ATOM      7  C   UNL     1       0.810  -1.917   1.248  0.00  0.00    +0.133 C 
ATOM      8  O   UNL     1       0.700  -0.493   1.170  0.00  0.00    -0.371 OA
ATOM      9  C   UNL     1       1.597  -2.300   2.503  0.00  0.00    +0.039 C 
ATOM     10  C   UNL     1      -2.092  -2.844  -0.647  0.00  0.00    +0.099 A 
ATOM     11  C   UNL     1      -2.931  -2.308  -1.619  0.00  0.00    +0.042 A 
ATOM     12  C   UNL     1      -3.625  -3.164  -2.454  0.00  0.00    +0.010 A 
ATOM     13  C   UNL     1      -3.457  -4.533  -2.289  0.00  0.00    -0.014 A 
ATOM     14  C   UNL     1      -2.608  -4.996  -1.304  0.00  0.00    +0.089 A 
ATOM     15  N   UNL     1      -1.954  -4.155  -0.524  0.00  0.00    -0.349 N 
ATOM     16  H   UNL     1      -1.361  -4.507   0.158  0.00  0.00    +0.167 HD
ENDBRANCH   1  13
BRANCH   1  17
ATOM     17  N   UNL     1      -3.381  -5.796  -4.360  0.00  0.00    -0.311 N 
ATOM     18  C   UNL     1      -3.841  -6.645  -5.300  0.00  0.00    +0.213 C 
ATOM     19  O   UNL     1      -4.928  -7.167  -5.166  0.00  0.00    -0.276 OA
ATOM     20  H   UNL     1      -2.512  -5.379  -4.467  0.00  0.00    +0.149 HD
BRANCH  18  21
ATOM     21  C   UNL     1      -3.006  -6.946  -6.517  0.00  0.00    +0.096 C 
BRANCH  21  22
ATOM     22  C   UNL     1      -3.754  -7.931  -7.418  0.00  0.00    +0.011 C 
BRANCH  22  23
ATOM     23  C   UNL     1      -2.905  -8.237  -8.654  0.00  0.00    +0.019 C 
BRANCH  23  24
ATOM     24  C   UNL     1      -3.653  -9.222  -9.555  0.00  0.00    +0.106 C 
BRANCH  24  25
ATOM     25  N   UNL     1      -2.841  -9.515 -10.739  0.00  0.00    -0.300 N 
ATOM     26  C   UNL     1      -3.301 -10.364 -11.679  0.00  0.00    +0.297 C 
ATOM     27  O   UNL     1      -4.391 -10.887 -11.544  0.00  0.00    -0.253 OA
ATOM     28  N   UNL     1      -2.554 -10.633 -12.767  0.00  0.00    -0.313 N 
ATOM     29  H   UNL     1      -1.972  -9.098 -10.846  0.00  0.00    +0.150 HD
ATOM     30  H   UNL     1      -1.685 -10.216 -12.874  0.00  0.00    +0.146 HD
ATOM     31  H   UNL     1      -2.885 -11.245 -13.444  0.00  0.00    +0.146 HD
ENDBRANCH  24  25
ENDBRANCH  23  24
ENDBRANCH  22  23
ENDBRANCH  21  22
ENDBRANCH  18  21
ENDBRANCH   1  17
TORSDOF 7
