REMARK  Name = ZINC62219578
REMARK  6 active torsions:
REMARK  status: ('A' for Active; 'I' for Inactive)
REMARK    1  A    between atoms: C_1  and  C_2
REMARK    2  A    between atoms: C_6  and  N_9
REMARK    3  A    between atoms: C_7  and  C_8
REMARK    4  A    between atoms: C_10  and  C_16
REMARK    5  A    between atoms: C_11  and  C_14
REMARK    6  A    between atoms: C_14  and  N_15
REMARK                            x       y       z     vdW  Elec       q    Type
REMARK                         _______ _______ _______ _____ _____    ______ ____
ROOT
ATOM      1  N   UNL     1       0.181  -2.879   2.341  0.00  0.00    -0.212 N 
ATOM      2  C   UNL     1       0.131  -4.247   2.414  0.00  0.00    +0.096 A 
ATOM      3  C   UNL     1       0.180  -4.564   3.740  0.00  0.00    +0.074 A 
ATOM      4  N   UNL     1       0.256  -3.440   4.448  0.00  0.00    -0.135 NA
ATOM      5  N   UNL     1       0.266  -2.420   3.664  0.00  0.00    -0.060 NA
ENDROOT
BRANCH   1  11
ATOM      6  C   UNL     1       2.078   0.784  -0.337  0.00  0.00    +0.044 C 
ATOM      7  C   UNL     1       1.066  -0.316  -0.145  0.00  0.00    -0.046 A 
ATOM      8  C   UNL     1       0.112  -0.554  -1.118  0.00  0.00    +0.004 A 
ATOM      9  C   UNL     1      -0.819  -1.562  -0.945  0.00  0.00    +0.002 A 
ATOM     10  C   UNL     1      -0.798  -2.334   0.200  0.00  0.00    +0.028 A 
ATOM     11  C   UNL     1       0.158  -2.098   1.178  0.00  0.00    +0.071 A 
ATOM     12  C   UNL     1       1.094  -1.088   1.000  0.00  0.00    -0.022 A 
ATOM     13  C   UNL     1       2.137  -0.831   2.057  0.00  0.00    +0.046 C 
ENDBRANCH   1  11
BRANCH   2  14
ATOM     14  C   UNL     1       0.042  -5.192   1.280  0.00  0.00    +0.002 A 
ATOM     15  C   UNL     1      -0.970  -6.152   1.247  0.00  0.00    +0.013 A 
ATOM     16  C   UNL     1      -1.049  -7.032   0.187  0.00  0.00    +0.039 A 
ATOM     17  C   UNL     1      -0.125  -6.963  -0.844  0.00  0.00    +0.123 A 
ATOM     18  C   UNL     1       0.882  -6.011  -0.816  0.00  0.00    +0.039 A 
ATOM     19  C   UNL     1       0.966  -5.123   0.237  0.00  0.00    +0.013 A 
ATOM     20  F   UNL     1      -0.206  -7.826  -1.880  0.00  0.00    -0.205 F 
ENDBRANCH   2  14
BRANCH   3  21
ATOM     21  C   UNL     1       0.152  -5.959   4.309  0.00  0.00    -0.026 C 
BRANCH  21  22
ATOM     22  N   UNL     1       1.512  -6.513   4.317  0.00  0.00    +0.382 N 
ATOM     23  H   UNL     1       1.897  -6.473   3.385  0.00  0.00    -0.090 HD
ATOM     24  H   UNL     1       2.091  -5.973   4.943  0.00  0.00    -0.090 HD
ATOM     25  H   UNL     1       1.484  -7.472   4.628  0.00  0.00    -0.090 HD
ENDBRANCH  21  22
ENDBRANCH   3  21
TORSDOF 4
