REMARK  Name = ZINC45254480
REMARK  6 active torsions:
REMARK  status: ('A' for Active; 'I' for Inactive)
REMARK    1  A    between atoms: C_4  and  C_7
REMARK    2  A    between atoms: C_13  and  C_15
REMARK    3  A    between atoms: C_17  and  C_32
REMARK    4  A    between atoms: C_20  and  O_24
REMARK    5  A    between atoms: O_24  and  C_25
REMARK    6  A    between atoms: N_34  and  O_35
REMARK                            x       y       z     vdW  Elec       q    Type
REMARK                         _______ _______ _______ _____ _____    ______ ____
ROOT
ATOM      1  C   UNL     1       8.570  -3.643   0.472  0.00  0.00    +0.028 C 
ATOM      2  C   UNL     1       8.344  -3.007   1.845  0.00  0.00    +0.075 C 
ATOM      3  C   UNL     1       7.091  -3.615   2.482  0.00  0.00    +0.054 C 
ATOM      4  C   UNL     1       7.258  -5.134   2.567  0.00  0.00    +0.162 C 
ATOM      5  C   UNL     1       7.525  -5.692   1.167  0.00  0.00    -0.036 C 
ATOM      6  N   UNL     1       8.750  -5.092   0.624  0.00  0.00    +0.389 N 
ATOM      7  H   UNL     1       8.953  -5.501  -0.276  0.00  0.00    -0.085 HD
ATOM      8  H   UNL     1       9.519  -5.271   1.253  0.00  0.00    -0.085 HD
ENDROOT
BRANCH   1  15
ATOM      9  C   UNL     1       9.466  -1.011  -3.497  0.00  0.00    -0.041 C 
ATOM     10  C   UNL     1       8.386  -1.029  -2.755  0.00  0.00    -0.004 C 
ATOM     11  C   UNL     1       8.389  -1.391  -1.295  0.00  0.00    +0.135 C 
ATOM     12  N   UNL     1       9.699  -1.956  -0.942  0.00  0.00    -0.299 N 
ATOM     13  C   UNL     1      10.894  -1.280  -1.476  0.00  0.00    +0.112 C 
ATOM     14  C   UNL     1      10.838  -1.367  -3.005  0.00  0.00    +0.054 C 
ATOM     15  C   UNL     1       9.803  -3.049  -0.160  0.00  0.00    +0.203 C 
ATOM     16  O   UNL     1      10.888  -3.553   0.036  0.00  0.00    -0.277 OA
BRANCH   9  20
ATOM     17  C   UNL     1       9.054   0.116  -7.571  0.00  0.00    +0.000 A 
ATOM     18  C   UNL     1       8.795   1.037  -6.572  0.00  0.00    +0.001 A 
ATOM     19  C   UNL     1       8.927   0.678  -5.247  0.00  0.00    +0.008 A 
ATOM     20  C   UNL     1       9.322  -0.619  -4.915  0.00  0.00    -0.022 A 
ATOM     21  C   UNL     1       9.581  -1.543  -5.927  0.00  0.00    +0.008 A 
ATOM     22  C   UNL     1       9.446  -1.171  -7.249  0.00  0.00    +0.001 A 
ENDBRANCH   9  20
ENDBRANCH   1  15
BRANCH   2  23
ATOM     23  C   UNL     1       8.159  -1.520   1.686  0.00  0.00    +0.238 C 
ATOM     24  O   UNL     1       7.049  -1.062   1.516  0.00  0.00    -0.273 OA
ATOM     25  N   UNL     1       9.226  -0.699   1.734  0.00  0.00    -0.197 N 
ATOM     26  H   UNL     1      10.114  -1.066   1.870  0.00  0.00    +0.182 HD
BRANCH  25  27
ATOM     27  O   UNL     1       9.052   0.698   1.584  0.00  0.00    -0.295 OA
ATOM     28  H   UNL     1       9.875   1.204   1.633  0.00  0.00    +0.241 HD
ENDBRANCH  25  27
ENDBRANCH   2  23
BRANCH   4  29
ATOM     29  O   UNL     1       8.359  -5.446   3.423  0.00  0.00    -0.449 OA
BRANCH  29  30
ATOM     30  C   UNL     1       8.296  -6.607   4.102  0.00  0.00    +0.403 C 
ATOM     31  O   UNL     1       7.333  -7.336   3.970  0.00  0.00    -0.226 OA
ATOM     32  N   UNL     1       9.302  -6.961   4.926  0.00  0.00    -0.267 N 
ATOM     33  C   UNL     1      10.517  -6.174   5.183  0.00  0.00    +0.111 C 
ATOM     34  C   UNL     1      11.387  -6.982   6.168  0.00  0.00    +0.021 C 
ATOM     35  C   UNL     1      10.876  -8.434   5.973  0.00  0.00    +0.021 C 
ATOM     36  C   UNL     1       9.363  -8.198   5.726  0.00  0.00    +0.111 C 
ENDBRANCH  29  30
ENDBRANCH   4  29
TORSDOF 6
