REMARK  Name = ZINC36991926
REMARK  6 active torsions:
REMARK  status: ('A' for Active; 'I' for Inactive)
REMARK    1  A    between atoms: C_1  and  C_2
REMARK    2  A    between atoms: C_2  and  C_4
REMARK    3  A    between atoms: C_2  and  N_12
REMARK    4  A    between atoms: C_7  and  C_10
REMARK    5  A    between atoms: N_12  and  C_13
REMARK    6  A    between atoms: C_21  and  O_23
REMARK                            x       y       z     vdW  Elec       q    Type
REMARK                         _______ _______ _______ _____ _____    ______ ____
ROOT
ATOM      1  N   UNL     1       0.694  -0.382   1.242  0.00  0.00    +0.390 N 
ATOM      2  H   UNL     1       0.226  -0.045   2.069  0.00  0.00    -0.084 HD
ATOM      3  H   UNL     1       0.714  -1.391   1.253  0.00  0.00    -0.084 HD
ENDROOT
BRANCH   1   4
ATOM      4  C   UNL     1       2.069   0.135   1.212  0.00  0.00    +0.002 C 
ATOM      5  C   UNL     1       2.096   1.650   1.526  0.00  0.00    +0.218 C 
ATOM      6  O   UNL     1       2.305   1.677   2.948  0.00  0.00    -0.493 OA
ATOM      7  C   UNL     1       2.976   0.554   3.325  0.00  0.00    +0.126 A 
ATOM      8  C   UNL     1       2.887  -0.437   2.354  0.00  0.00    -0.016 A 
ATOM      9  C   UNL     1       3.486  -1.664   2.537  0.00  0.00    +0.009 A 
ATOM     10  C   UNL     1       4.194  -1.922   3.696  0.00  0.00    +0.046 A 
ATOM     11  C   UNL     1       4.299  -0.941   4.672  0.00  0.00    +0.120 A 
ATOM     12  C   UNL     1       3.693   0.293   4.489  0.00  0.00    +0.091 A 
BRANCH  11  13
ATOM     13  O   UNL     1       4.997  -1.190   5.811  0.00  0.00    -0.507 OA
ATOM     14  H   UNL     1       5.934  -0.959   5.756  0.00  0.00    +0.292 HD
ENDBRANCH  11  13
ENDBRANCH   1   4
BRANCH   1  16
ATOM     15  C   UNL     1      -1.497  -0.339   0.147  0.00  0.00    -0.009 C 
ATOM     16  C   UNL     1      -0.028   0.079   0.049  0.00  0.00    -0.043 C 
BRANCH  16  17
ATOM     17  C   UNL     1       0.588  -0.536  -1.181  0.00  0.00    -0.062 A 
ATOM     18  C   UNL     1       0.995  -1.859  -1.159  0.00  0.00    +0.003 A 
ATOM     19  C   UNL     1       1.560  -2.429  -2.281  0.00  0.00    +0.019 A 
ATOM     20  C   UNL     1       1.720  -1.668  -3.441  0.00  0.00    +0.052 A 
ATOM     21  C   UNL     1       1.306  -0.335  -3.457  0.00  0.00    +0.019 A 
ATOM     22  C   UNL     1       0.738   0.221  -2.329  0.00  0.00    +0.003 A 
BRANCH  20  23
ATOM     23  C   UNL     1       2.306  -2.253  -4.609  0.00  0.00    +0.099 C 
ATOM     24  N   UNL     1       2.770  -2.717  -5.536  0.00  0.00    -0.191 NA
ENDBRANCH  20  23
ENDBRANCH  16  17
ENDBRANCH   1  16
TORSDOF 5
