REMARK  Name = ZINC04039829
REMARK  5 active torsions:
REMARK  status: ('A' for Active; 'I' for Inactive)
REMARK    1  A    between atoms: C_1  and  O_2
REMARK    2  A    between atoms: O_2  and  C_3
REMARK    3  A    between atoms: C_8  and  O_9
REMARK    4  A    between atoms: O_9  and  C_10
REMARK    5  A    between atoms: C_11  and  C_15
REMARK                            x       y       z     vdW  Elec       q    Type
REMARK                         _______ _______ _______ _____ _____    ______ ____
ROOT
ATOM      1  C   UNL     1       0.002  -0.004   0.002  0.00  0.00    +0.162 A 
ATOM      2  C   UNL     1       1.213  -0.673  -0.015  0.00  0.00    +0.053 A 
ATOM      3  C   UNL     1       2.406   0.036  -0.025  0.00  0.00    -0.044 A 
ATOM      4  C   UNL     1       2.388   1.415  -0.013  0.00  0.00    -0.050 A 
ATOM      5  C   UNL     1       1.175   2.089   0.002  0.00  0.00    +0.052 A 
ATOM      6  C   UNL     1      -0.017   1.387   0.010  0.00  0.00    +0.162 A 
ATOM      7  C   UNL     1       3.657   2.226  -0.012  0.00  0.00    -0.008 C 
ATOM      8  C   UNL     1       4.860   0.169   0.353  0.00  0.00    -0.077 C 
ATOM      9  C   UNL     1       3.699  -0.738  -0.055  0.00  0.00    +0.016 C 
ATOM     10  N   UNL     1       4.795   1.405  -0.449  0.00  0.00    +0.387 N 
ATOM     11  H   UNL     1       5.665   1.937  -0.326  0.00  0.00    -0.085 HD
ATOM     12  H   UNL     1       4.679   1.163  -1.439  0.00  0.00    -0.085 HD
ENDROOT
BRANCH   7  13
ATOM     13  C   UNL     1       3.502   3.395  -0.950  0.00  0.00    -0.032 A 
ATOM     14  C   UNL     1       3.896   3.447  -2.232  0.00  0.00    +0.086 A 
ATOM     15  N   UNL     1       3.586   4.669  -2.766  0.00  0.00    -0.360 N 
ATOM     16  H   UNL     1       3.770   4.941  -3.679  0.00  0.00    +0.165 HD
ATOM     17  C   UNL     1       2.979   5.455  -1.813  0.00  0.00    +0.047 A 
ATOM     18  C   UNL     1       2.900   4.692  -0.633  0.00  0.00    +0.002 A 
ATOM     19  C   UNL     1       2.324   5.241   0.514  0.00  0.00    +0.010 A 
ATOM     20  C   UNL     1       1.840   6.518   0.485  0.00  0.00    +0.001 A 
ATOM     21  C   UNL     1       1.915   7.275  -0.675  0.00  0.00    +0.002 A 
ATOM     22  C   UNL     1       2.480   6.754  -1.819  0.00  0.00    +0.026 A 
ENDBRANCH   7  13
BRANCH   1  24
ATOM     23  C   UNL     1      -1.066  -2.129   0.002  0.00  0.00    +0.277 C 
ATOM     24  O   UNL     1      -1.164  -0.703   0.011  0.00  0.00    -0.491 OA
ENDBRANCH   1  24
BRANCH   6  25
ATOM     25  O   UNL     1      -1.202   2.054   0.019  0.00  0.00    -0.491 OA
ATOM     26  C   UNL     1      -1.143   3.482   0.026  0.00  0.00    +0.277 C 
ENDBRANCH   6  25
TORSDOF 3
