REMARK  Name = ZINC06919520
REMARK  4 active torsions:
REMARK  status: ('A' for Active; 'I' for Inactive)
REMARK    1  A    between atoms: C_3  and  N_12
REMARK    2  A    between atoms: C_6  and  C_7
REMARK    3  A    between atoms: N_12  and  S_13
REMARK    4  A    between atoms: S_13  and  C_16
REMARK                            x       y       z     vdW  Elec       q    Type
REMARK                         _______ _______ _______ _____ _____    ______ ____
ROOT
ATOM      1  S   UNL     1       4.819   3.385  -0.511  0.00  0.00    +0.072 S 
ATOM      2  O   UNL     1       4.878   4.769  -0.829  0.00  0.00    -0.150 OA
ATOM      3  O   UNL     1       4.516   2.916   0.795  0.00  0.00    -0.150 OA
ENDROOT
BRANCH   1   4
ATOM      4  C   UNL     1       3.625   2.670  -1.592  0.00  0.00    +0.110 A 
ATOM      5  C   UNL     1       2.901   1.563  -1.190  0.00  0.00    +0.031 A 
ATOM      6  C   UNL     1       1.967   1.008  -2.038  0.00  0.00    +0.027 A 
ATOM      7  C   UNL     1       1.742   1.551  -3.305  0.00  0.00    +0.055 A 
ATOM      8  C   UNL     1       2.468   2.659  -3.709  0.00  0.00    +0.057 A 
ATOM      9  C   UNL     1       3.411   3.214  -2.840  0.00  0.00    +0.054 A 
ATOM     10  N   UNL     1       2.320   3.272  -4.950  0.00  0.00    -0.284 N 
ATOM     11  C   UNL     1       1.164   3.498  -5.569  0.00  0.00    +0.226 C 
ATOM     12  O   UNL     1       1.162   4.077  -6.634  0.00  0.00    -0.275 OA
ATOM     13  C   UNL     1      -0.144   3.047  -4.970  0.00  0.00    +0.192 C 
ATOM     14  C   UNL     1      -0.115   1.544  -4.860  0.00  0.00    +0.226 C 
ATOM     15  O   UNL     1      -0.926   0.887  -5.477  0.00  0.00    -0.275 OA
ATOM     16  N   UNL     1       0.781   0.926  -4.095  0.00  0.00    -0.284 N 
ATOM     17  H   UNL     1       3.128   3.558  -5.402  0.00  0.00    +0.155 HD
ATOM     18  H   UNL     1       0.766  -0.044  -4.090  0.00  0.00    +0.155 HD
ENDBRANCH   1   4
BRANCH   1  19
ATOM     19  N   UNL     1       6.291   2.743  -0.915  0.00  0.00    -0.216 N 
ATOM     20  H   UNL     1       6.995   3.318  -1.252  0.00  0.00    +0.174 HD
BRANCH  19  23
ATOM     21  C   UNL     1       6.768  -0.799  -1.752  0.00  0.00    +0.013 A 
ATOM     22  C   UNL     1       6.543   0.553  -1.891  0.00  0.00    +0.025 A 
ATOM     23  C   UNL     1       6.519   1.375  -0.770  0.00  0.00    +0.048 A 
ATOM     24  C   UNL     1       6.726   0.836   0.496  0.00  0.00    +0.025 A 
ATOM     25  C   UNL     1       6.945  -0.516   0.643  0.00  0.00    +0.013 A 
ATOM     26  C   UNL     1       6.971  -1.344  -0.482  0.00  0.00    +0.020 A 
BRANCH  26  27
ATOM     27  C   UNL     1       7.213  -2.793  -0.328  0.00  0.00    +0.167 A 
ATOM     28  C   UNL     1       7.433  -3.471   0.841  0.00  0.00    +0.072 A 
ATOM     29  C   UNL     1       7.600  -4.809   0.429  0.00  0.00    +0.157 A 
ATOM     30  N   UNL     1       7.482  -4.817  -0.869  0.00  0.00    -0.086 NA
ATOM     31  O   UNL     1       7.267  -3.712  -1.309  0.00  0.00    -0.355 OA
ENDBRANCH  26  27
ENDBRANCH  19  23
ENDBRANCH   1  19
TORSDOF 4
