REMARK  Name = ZINC49645358
REMARK  6 active torsions:
REMARK  status: ('A' for Active; 'I' for Inactive)
REMARK    1  A    between atoms: C_1  and  C_2
REMARK    2  A    between atoms: C_3  and  C_20
REMARK    3  A    between atoms: N_7  and  S_8
REMARK    4  A    between atoms: S_8  and  C_11
REMARK    5  A    between atoms: C_11  and  C_12
REMARK    6  A    between atoms: C_12  and  C_13
REMARK                            x       y       z     vdW  Elec       q    Type
REMARK                         _______ _______ _______ _____ _____    ______ ____
ROOT
ATOM      1  S   UNL     1       3.739  -2.321  -0.031  0.00  0.00    +0.072 S 
ATOM      2  O   UNL     1       3.866  -1.623  -1.262  0.00  0.00    -0.152 OA
ATOM      3  O   UNL     1       3.879  -1.637   1.207  0.00  0.00    -0.152 OA
ENDROOT
BRANCH   1  10
ATOM      4  C   UNL     1      -0.018   1.503   0.010  0.00  0.00    +0.064 C 
ATOM      5  C   UNL     1       0.002  -0.004   0.002  0.00  0.00    +0.025 A 
ATOM      6  C   UNL     1      -1.144  -0.684   0.004  0.00  0.00    +0.009 A 
ATOM      7  S   UNL     1      -0.577  -2.377  -0.009  0.00  0.00    -0.053 S 
ATOM      8  C   UNL     1       1.179  -2.046  -0.016  0.00  0.00    +0.191 A 
ATOM      9  N   UNL     1       1.194  -0.668  -0.013  0.00  0.00    -0.336 N 
ATOM     10  N   UNL     1       2.183  -2.888  -0.026  0.00  0.00    -0.108 NA
ATOM     11  C   UNL     1      -2.557  -0.159   0.016  0.00  0.00    +0.053 C 
ATOM     12  H   UNL     1       2.033  -0.181  -0.019  0.00  0.00    +0.168 HD
ENDBRANCH   1  10
BRANCH   1  13
ATOM     13  C   UNL     1       4.777  -3.808  -0.045  0.00  0.00    +0.191 C 
BRANCH  13  14
ATOM     14  C   UNL     1       6.252  -3.401  -0.050  0.00  0.00    +0.009 C 
BRANCH  14  15
ATOM     15  C   UNL     1       7.127  -4.655  -0.062  0.00  0.00    -0.070 C 
ATOM     16  C   UNL     1       8.597  -4.249  -0.194  0.00  0.00    -0.016 C 
ATOM     17  C   UNL     1       9.469  -5.508  -0.206  0.00  0.00    -0.003 C 
ATOM     18  C   UNL     1       9.202  -6.314   1.068  0.00  0.00    -0.019 C 
ATOM     19  C   UNL     1       7.710  -6.643   1.153  0.00  0.00    -0.082 C 
ATOM     20  N   UNL     1       6.933  -5.399   1.188  0.00  0.00    +0.381 N 
ATOM     21  H   UNL     1       7.239  -4.833   1.966  0.00  0.00    -0.086 HD
ATOM     22  H   UNL     1       5.954  -5.618   1.299  0.00  0.00    -0.086 HD
ENDBRANCH  14  15
ENDBRANCH  13  14
ENDBRANCH   1  13
TORSDOF 4
