REMARK  Name = ZINC37157834
REMARK  10 active torsions:
REMARK  status: ('A' for Active; 'I' for Inactive)
REMARK    1  A    between atoms: C_1  and  C_2
REMARK    2  A    between atoms: C_2  and  C_3
REMARK    3  A    between atoms: C_3  and  N_4
REMARK    4  A    between atoms: N_7  and  C_10
REMARK    5  A    between atoms: C_13  and  C_21
REMARK    6  A    between atoms: C_17  and  C_19
REMARK    7  A    between atoms: C_19  and  N_20
REMARK    8  A    between atoms: C_21  and  C_22
REMARK    9  A    between atoms: C_21  and  C_23
REMARK   10  A    between atoms: C_21  and  C_24
REMARK                            x       y       z     vdW  Elec       q    Type
REMARK                         _______ _______ _______ _____ _____    ______ ____
ROOT
ATOM      1  C   UNL     1       0.314  -5.942  -2.432  0.00  0.00    -0.067 C 
ATOM      2  C   UNL     1       1.107  -6.465  -3.631  0.00  0.00    -0.011 C 
ATOM      3  C   UNL     1       0.388  -6.079  -4.926  0.00  0.00    -0.007 C 
ATOM      4  C   UNL     1      -1.013  -6.693  -4.934  0.00  0.00    +0.004 C 
ATOM      5  C   UNL     1      -1.806  -6.170  -3.734  0.00  0.00    +0.000 C 
ATOM      6  C   UNL     1      -1.087  -6.556  -2.440  0.00  0.00    -0.042 C 
ENDROOT
BRANCH   1  10
ATOM      7  N   UNL     1       1.112  -1.845  -1.879  0.00  0.00    -0.306 NA
ATOM      8  C   UNL     1      -0.098  -2.401  -1.256  0.00  0.00    +0.066 C 
ATOM      9  C   UNL     1       0.032  -3.923  -1.168  0.00  0.00    -0.063 C 
ATOM     10  N   UNL     1       0.208  -4.479  -2.516  0.00  0.00    +0.383 N 
ATOM     11  C   UNL     1       1.433  -3.933  -3.116  0.00  0.00    -0.063 C 
ATOM     12  C   UNL     1       1.316  -2.411  -3.220  0.00  0.00    +0.066 C 
ATOM     13  H   UNL     1      -0.585  -4.232  -3.088  0.00  0.00    -0.081 HD
BRANCH   7  14
ATOM     14  C   UNL     1       1.051  -0.378  -1.931  0.00  0.00    +0.084 C 
BRANCH  14  16
ATOM     15  C   UNL     1       1.026   1.712  -0.562  0.00  0.00    +0.005 C 
ATOM     16  C   UNL     1       1.089   0.184  -0.508  0.00  0.00    +0.012 C 
ENDBRANCH  14  16
ENDBRANCH   7  14
ENDBRANCH   1  10
BRANCH   3  17
ATOM     17  C   UNL     1       1.181  -6.602  -6.125  0.00  0.00    -0.035 C 
ATOM     18  C   UNL     1       1.291  -8.126  -6.038  0.00  0.00    +0.011 C 
ATOM     19  C   UNL     1       0.462  -6.216  -7.419  0.00  0.00    +0.011 C 
ATOM     20  C   UNL     1       2.582  -5.988  -6.117  0.00  0.00    +0.011 C 
ENDBRANCH   3  17
BRANCH   6  21
ATOM     21  C   UNL     1      -1.880  -6.032  -1.241  0.00  0.00    -0.085 C 
BRANCH  21  22
ATOM     22  N   UNL     1      -3.163  -6.742  -1.154  0.00  0.00    +0.378 N 
ATOM     23  H   UNL     1      -3.686  -6.397  -0.363  0.00  0.00    -0.090 HD
ATOM     24  H   UNL     1      -3.691  -6.587  -2.000  0.00  0.00    -0.090 HD
ATOM     25  H   UNL     1      -2.994  -7.730  -1.040  0.00  0.00    -0.090 HD
ENDBRANCH  21  22
ENDBRANCH   6  21
TORSDOF 6
