REMARK  Name = ZINC65433521
REMARK  3 active torsions:
REMARK  status: ('A' for Active; 'I' for Inactive)
REMARK    1  A    between atoms: C_4  and  N_7
REMARK    2  A    between atoms: C_9  and  C_19
REMARK    3  A    between atoms: C_10  and  C_13
REMARK                            x       y       z     vdW  Elec       q    Type
REMARK                         _______ _______ _______ _____ _____    ______ ____
ROOT
ATOM      1  N   UNL     1       3.620  -0.649  -0.037  0.00  0.00    -0.242 N 
ATOM      2  C   UNL     1       4.857  -0.035  -0.041  0.00  0.00    +0.097 C 
ATOM      3  C   UNL     1       5.838  -0.915  -0.057  0.00  0.00    -0.009 C 
ATOM      4  C   UNL     1       5.197  -2.286  -0.065  0.00  0.00    +0.132 C 
ATOM      5  N   UNL     1       3.747  -2.009  -0.046  0.00  0.00    -0.224 NA
ATOM      6  H   UNL     1       3.293  -2.409  -0.854  0.00  0.00    +0.146 HD
ENDROOT
BRANCH   3   7
ATOM      7  C   UNL     1       7.315  -0.614  -0.066  0.00  0.00    +0.132 C 
ATOM      8  C   UNL     1       7.925  -1.101  -1.356  0.00  0.00    +0.058 A 
ATOM      9  H   UNL     1      10.103  -2.522  -3.084  0.00  0.00    +0.166 HD
ATOM     10  C   UNL     1       9.101  -1.768  -1.416  0.00  0.00    +0.039 A 
ATOM     11  N   UNL     1       9.336  -2.049  -2.724  0.00  0.00    -0.349 N 
ATOM     12  C   UNL     1       8.297  -1.544  -3.430  0.00  0.00    +0.171 A 
ATOM     13  N   UNL     1       7.459  -0.978  -2.599  0.00  0.00    -0.348 N 
ATOM     14  C   UNL     1       9.934  -2.094  -0.204  0.00  0.00    +0.070 C 
ATOM     15  C   UNL     1       9.435  -1.224   0.958  0.00  0.00    +0.088 C 
ATOM     16  N   UNL     1       7.971  -1.316   1.051  0.00  0.00    -0.304 NA
ATOM     17  H   UNL     1       7.642  -0.969   1.939  0.00  0.00    +0.123 HD
ATOM     18  H   UNL     1       6.630  -0.539  -2.849  0.00  0.00    +0.166 HD
ENDBRANCH   3   7
BRANCH   4  19
ATOM     19  C   UNL     1       5.599  -3.063   1.162  0.00  0.00    -0.022 A 
ATOM     20  C   UNL     1       4.972  -2.843   2.379  0.00  0.00    +0.023 A 
ATOM     21  C   UNL     1       5.368  -3.575   3.482  0.00  0.00    +0.083 A 
ATOM     22  N   UNL     1       6.329  -4.473   3.387  0.00  0.00    -0.367 N 
ATOM     23  C   UNL     1       6.947  -4.709   2.246  0.00  0.00    +0.083 A 
ATOM     24  C   UNL     1       6.601  -4.020   1.099  0.00  0.00    +0.023 A 
ATOM     25  H   UNL     1       6.588  -4.973   4.177  0.00  0.00    +0.165 HD
ENDBRANCH   4  19
BRANCH   1  29
ATOM     26  C   UNL     1      -0.017   1.379   0.010  0.00  0.00    +0.000 A 
ATOM     27  C   UNL     1       1.169   2.090   0.002  0.00  0.00    +0.002 A 
ATOM     28  C   UNL     1       2.377   1.420  -0.013  0.00  0.00    +0.025 A 
ATOM     29  C   UNL     1       2.400   0.031  -0.021  0.00  0.00    +0.049 A 
ATOM     30  C   UNL     1       1.206  -0.680  -0.013  0.00  0.00    +0.025 A 
ATOM     31  C   UNL     1       0.002  -0.004   0.002  0.00  0.00    +0.002 A 
ENDBRANCH   1  29
TORSDOF 3
