REMARK  Name = ZINC16025202
REMARK  8 active torsions:
REMARK  status: ('A' for Active; 'I' for Inactive)
REMARK    1  A    between atoms: C_1  and  C_2
REMARK    2  A    between atoms: C_2  and  C_3
REMARK    3  A    between atoms: C_2  and  C_4
REMARK    4  A    between atoms: C_4  and  C_5
REMARK    5  A    between atoms: N_13  and  C_16
REMARK    6  A    between atoms: C_16  and  C_17
REMARK    7  A    between atoms: C_17  and  O_18
REMARK    8  A    between atoms: O_18  and  C_19
REMARK                            x       y       z     vdW  Elec       q    Type
REMARK                         _______ _______ _______ _____ _____    ______ ____
ROOT
ATOM      1  C   UNL     1      -2.135  -0.131  -1.286  0.00  0.00    -0.057 C 
ATOM      2  C   UNL     1      -3.612  -0.580  -1.259  0.00  0.00    +0.073 C 
ATOM      3  C   UNL     1      -3.916  -1.038  -2.713  0.00  0.00    +0.088 C 
ATOM      4  C   UNL     1      -4.186  -2.518  -2.560  0.00  0.00    +0.225 C 
ATOM      5  O   UNL     1      -4.475  -3.274  -3.463  0.00  0.00    -0.275 OA
ATOM      6  N   UNL     1      -4.056  -2.865  -1.275  0.00  0.00    -0.240 N 
ATOM      7  C   UNL     1      -3.735  -1.847  -0.444  0.00  0.00    +0.224 C 
ATOM      8  O   UNL     1      -3.569  -1.927   0.754  0.00  0.00    -0.275 OA
ATOM      9  C   UNL     1      -2.602  -0.814  -3.471  0.00  0.00    +0.050 C 
ATOM     10  N   UNL     1      -1.536  -0.849  -2.442  0.00  0.00    +0.394 N 
ATOM     11  C   UNL     1      -2.378  -1.871  -4.514  0.00  0.00    -0.025 A 
ATOM     12  C   UNL     1      -2.264  -3.243  -4.465  0.00  0.00    +0.043 A 
ATOM     13  C   UNL     1      -2.053  -3.963  -5.630  0.00  0.00    +0.124 A 
ATOM     14  C   UNL     1      -1.958  -3.299  -6.842  0.00  0.00    +0.040 A 
ATOM     15  C   UNL     1      -2.072  -1.925  -6.894  0.00  0.00    +0.026 A 
ATOM     16  C   UNL     1      -2.284  -1.195  -5.727  0.00  0.00    +0.036 A 
ATOM     17  N   UNL     1      -2.429   0.181  -5.525  0.00  0.00    -0.286 N 
ATOM     18  C   UNL     1      -2.620   0.486  -4.227  0.00  0.00    +0.211 C 
ATOM     19  O   UNL     1      -2.775   1.594  -3.759  0.00  0.00    -0.277 OA
ATOM     20  F   UNL     1      -1.939  -5.308  -5.584  0.00  0.00    -0.205 F 
ATOM     21  H   UNL     1      -0.715  -0.364  -2.772  0.00  0.00    -0.083 HD
ATOM     22  H   UNL     1      -2.397   0.839  -6.237  0.00  0.00    +0.155 HD
ATOM     23  H   UNL     1      -1.309  -1.799  -2.188  0.00  0.00    -0.083 HD
ENDROOT
BRANCH   1  24
ATOM     24  C   UNL     1      -1.433  -0.534   0.013  0.00  0.00    -0.012 C 
BRANCH  24  26
ATOM     25  C   UNL     1      -0.019   1.526   0.010  0.00  0.00    +0.007 C 
ATOM     26  C   UNL     1       0.002  -0.004   0.002  0.00  0.00    -0.019 C 
ATOM     27  C   UNL     1       0.742  -0.511   1.242  0.00  0.00    +0.007 C 
ENDBRANCH  24  26
ENDBRANCH   1  24
BRANCH   6  28
ATOM     28  C   UNL     1      -4.252  -4.237  -0.800  0.00  0.00    +0.144 C 
BRANCH  28  29
ATOM     29  C   UNL     1      -2.921  -4.989  -0.850  0.00  0.00    +0.179 C 
BRANCH  29  30
ATOM     30  O   UNL     1      -2.004  -4.397   0.073  0.00  0.00    -0.381 OA
ATOM     31  C   UNL     1      -0.723  -5.029   0.104  0.00  0.00    +0.194 C 
ENDBRANCH  29  30
ENDBRANCH  28  29
ENDBRANCH   6  28
TORSDOF 5
