REMARK  Name = ZINC62199516
REMARK  9 active torsions:
REMARK  status: ('A' for Active; 'I' for Inactive)
REMARK    1  A    between atoms: C_1  and  C_2
REMARK    2  A    between atoms: C_2  and  C_3
REMARK    3  A    between atoms: C_3  and  C_4
REMARK    4  A    between atoms: C_4  and  N_5
REMARK    5  A    between atoms: C_6  and  C_15
REMARK    6  A    between atoms: C_8  and  C_14
REMARK    7  A    between atoms: C_9  and  C_12
REMARK    8  A    between atoms: C_12  and  N_13
REMARK    9  A    between atoms: C_18  and  C_21
REMARK                            x       y       z     vdW  Elec       q    Type
REMARK                         _______ _______ _______ _____ _____    ______ ____
ROOT
ATOM      1  N   UNL     1       1.457  -2.095  -2.708  0.00  0.00    -0.308 N 
ATOM      2  C   UNL     1       0.696  -2.822  -3.582  0.00  0.00    +0.052 A 
ATOM      3  C   UNL     1       1.296  -3.674  -4.482  0.00  0.00    +0.030 A 
ATOM      4  C   UNL     1       2.688  -3.795  -4.500  0.00  0.00    -0.042 A 
ATOM      5  C   UNL     1       3.436  -3.063  -3.622  0.00  0.00    +0.003 A 
ATOM      6  C   UNL     1       2.799  -2.198  -2.718  0.00  0.00    +0.253 A 
ATOM      7  O   UNL     1       3.465  -1.540  -1.935  0.00  0.00    -0.267 OA
ATOM      8  C   UNL     1       3.358  -4.723  -5.480  0.00  0.00    +0.044 C 
ENDROOT
BRANCH   2   9
ATOM      9  C   UNL     1      -0.775  -2.692  -3.560  0.00  0.00    -0.001 A 
ATOM     10  C   UNL     1      -1.462  -2.302  -4.711  0.00  0.00    +0.010 A 
ATOM     11  C   UNL     1      -2.836  -2.183  -4.684  0.00  0.00    +0.004 A 
ATOM     12  C   UNL     1      -3.534  -2.450  -3.519  0.00  0.00    -0.050 A 
ATOM     13  C   UNL     1      -2.859  -2.836  -2.374  0.00  0.00    +0.004 A 
ATOM     14  C   UNL     1      -1.486  -2.965  -2.389  0.00  0.00    +0.010 A 
ATOM     15  C   UNL     1      -5.035  -2.318  -3.497  0.00  0.00    +0.044 C 
ENDBRANCH   2   9
BRANCH   1  16
ATOM     16  C   UNL     1       0.805  -1.192  -1.756  0.00  0.00    +0.125 C 
BRANCH  16  17
ATOM     17  C   UNL     1       0.524   0.149  -2.436  0.00  0.00    +0.021 C 
BRANCH  17  19
ATOM     18  C   UNL     1      -0.437   2.434  -2.122  0.00  0.00    +0.004 C 
ATOM     19  C   UNL     1      -0.156   1.092  -1.442  0.00  0.00    -0.002 C 
ENDBRANCH  17  19
ENDBRANCH  16  17
ENDBRANCH   1  16
BRANCH   5  20
ATOM     20  C   UNL     1       4.939  -3.181  -3.626  0.00  0.00    -0.045 C 
BRANCH  20  21
ATOM     21  N   UNL     1       5.511  -2.113  -4.457  0.00  0.00    +0.381 N 
ATOM     22  H   UNL     1       5.164  -2.199  -5.401  0.00  0.00    -0.090 HD
ATOM     23  H   UNL     1       5.245  -1.215  -4.082  0.00  0.00    -0.090 HD
ATOM     24  H   UNL     1       6.517  -2.192  -4.460  0.00  0.00    -0.090 HD
ENDBRANCH  20  21
ENDBRANCH   5  20
TORSDOF 6
