REMARK  Name = ZINC36828630
REMARK  7 active torsions:
REMARK  status: ('A' for Active; 'I' for Inactive)
REMARK    1  A    between atoms: C_1  and  C_2
REMARK    2  A    between atoms: C_2  and  C_4
REMARK    3  A    between atoms: C_2  and  N_12
REMARK    4  A    between atoms: N_6  and  C_7
REMARK    5  A    between atoms: N_12  and  C_13
REMARK    6  A    between atoms: N_16  and  S_19
REMARK    7  A    between atoms: S_19  and  C_22
REMARK                            x       y       z     vdW  Elec       q    Type
REMARK                         _______ _______ _______ _____ _____    ______ ____
ROOT
ATOM      1  N   UNL     1       0.713  -0.491   1.192  0.00  0.00    +0.388 N 
ATOM      2  H   UNL     1       0.290  -0.099   2.020  0.00  0.00    -0.084 HD
ATOM      3  H   UNL     1       0.655  -1.497   1.230  0.00  0.00    -0.084 HD
ENDROOT
BRANCH   1   4
ATOM      4  C   UNL     1       2.122  -0.083   1.122  0.00  0.00    -0.068 C 
ATOM      5  C   UNL     1       2.795  -0.776  -0.065  0.00  0.00    +0.001 C 
ATOM      6  C   UNL     1       4.255  -0.321  -0.156  0.00  0.00    +0.107 C 
ATOM      7  N   UNL     1       4.909  -0.568   1.137  0.00  0.00    -0.182 NA
ATOM      8  C   UNL     1       4.294  -0.022   2.355  0.00  0.00    +0.107 C 
ATOM      9  C   UNL     1       2.833  -0.480   2.417  0.00  0.00    +0.001 C 
BRANCH   7  10
ATOM     10  S   UNL     1       6.311  -1.445   1.220  0.00  0.00    +0.029 S 
ATOM     11  O   UNL     1       6.316  -1.997   2.529  0.00  0.00    -0.158 OA
ATOM     12  O   UNL     1       6.279  -2.289   0.077  0.00  0.00    -0.158 OA
ATOM     13  C   UNL     1       7.638  -0.219   1.054  0.00  0.00    +0.215 C 
ENDBRANCH   7  10
ENDBRANCH   1   4
BRANCH   1  15
ATOM     14  C   UNL     1      -0.019   1.526   0.010  0.00  0.00    -0.004 C 
ATOM     15  C   UNL     1       0.002  -0.004   0.002  0.00  0.00    +0.013 C 
BRANCH  15  16
ATOM     16  C   UNL     1      -1.412  -0.526   0.013  0.00  0.00    +0.199 C 
ATOM     17  O   UNL     1      -1.790  -1.233   0.922  0.00  0.00    -0.278 OA
ATOM     18  N   UNL     1      -2.256  -0.206  -0.988  0.00  0.00    -0.314 N 
ATOM     19  H   UNL     1      -1.953   0.360  -1.716  0.00  0.00    +0.149 HD
BRANCH  18  20
ATOM     20  C   UNL     1      -3.630  -0.713  -0.978  0.00  0.00    +0.073 C 
ATOM     21  C   UNL     1      -3.689  -2.095  -1.662  0.00  0.00    +0.022 C 
ATOM     22  C   UNL     1      -5.036  -2.084  -2.425  0.00  0.00    +0.002 C 
ATOM     23  C   UNL     1      -5.123  -0.627  -2.944  0.00  0.00    +0.002 C 
ATOM     24  C   UNL     1      -4.542   0.220  -1.794  0.00  0.00    +0.022 C 
ENDBRANCH  18  20
ENDBRANCH  15  16
ENDBRANCH   1  15
TORSDOF 5
