REMARK  Name = ZINC40747606
REMARK  6 active torsions:
REMARK  status: ('A' for Active; 'I' for Inactive)
REMARK    1  A    between atoms: C_1  and  C_2
REMARK    2  A    between atoms: C_2  and  C_3
REMARK    3  A    between atoms: C_3  and  N_4
REMARK    4  A    between atoms: N_4  and  C_5
REMARK    5  A    between atoms: N_4  and  C_14
REMARK    6  A    between atoms: C_5  and  C_6
REMARK                            x       y       z     vdW  Elec       q    Type
REMARK                         _______ _______ _______ _____ _____    ______ ____
ROOT
ATOM      1  N   UNL     1      -1.414  -1.991  -0.116  0.00  0.00    -0.295 NA
ENDROOT
BRANCH   1   2
ATOM      2  C   UNL     1      -0.765  -2.389  -1.372  0.00  0.00    +0.054 C 
ATOM      3  C   UNL     1       0.754  -2.416  -1.175  0.00  0.00    +0.003 C 
ATOM      4  C   UNL     1       1.107  -3.534  -0.181  0.00  0.00    -0.070 C 
ATOM      5  C   UNL     1       0.170  -3.393   1.041  0.00  0.00    -0.017 C 
ATOM      6  C   UNL     1      -1.078  -4.226   0.679  0.00  0.00    -0.017 C 
ATOM      7  C   UNL     1      -0.781  -4.793  -0.728  0.00  0.00    -0.070 C 
ATOM      8  C   UNL     1      -1.257  -3.780  -1.782  0.00  0.00    +0.003 C 
ATOM      9  N   UNL     1       0.718  -4.823  -0.811  0.00  0.00    +0.383 N 
ATOM     10  H   UNL     1       1.031  -4.858  -1.770  0.00  0.00    -0.085 HD
ATOM     11  H   UNL     1       1.088  -5.601  -0.286  0.00  0.00    -0.085 HD
ENDBRANCH   1   2
BRANCH   1  12
ATOM     12  C   UNL     1      -1.307  -0.541   0.096  0.00  0.00    +0.085 C 
BRANCH  12  14
ATOM     13  C   UNL     1       0.201   1.141   1.165  0.00  0.00    +0.005 C 
ATOM     14  C   UNL     1       0.150  -0.175   0.385  0.00  0.00    +0.012 C 
ENDBRANCH  12  14
ENDBRANCH   1  12
BRANCH   1  15
ATOM     15  C   UNL     1      -2.817  -2.425  -0.088  0.00  0.00    +0.120 C 
BRANCH  15  16
ATOM     16  C   UNL     1      -3.409  -2.126   1.265  0.00  0.00    -0.032 A 
ATOM     17  C   UNL     1      -3.248  -3.025   2.303  0.00  0.00    +0.006 A 
ATOM     18  C   UNL     1      -3.790  -2.752   3.545  0.00  0.00    +0.022 A 
ATOM     19  C   UNL     1      -4.494  -1.578   3.749  0.00  0.00    +0.059 A 
ATOM     20  C   UNL     1      -4.655  -0.678   2.710  0.00  0.00    +0.060 A 
ATOM     21  C   UNL     1      -4.107  -0.950   1.469  0.00  0.00    +0.026 A 
ATOM     22 CL   UNL     1      -5.538   0.794   2.965  0.00  0.00    -0.082 Cl
ATOM     23 CL   UNL     1      -5.176  -1.236   5.309  0.00  0.00    -0.082 Cl
ENDBRANCH  15  16
ENDBRANCH   1  15
TORSDOF 5
