REMARK  Name = ZINC36075334
REMARK  8 active torsions:
REMARK  status: ('A' for Active; 'I' for Inactive)
REMARK    1  A    between atoms: C_1  and  C_2
REMARK    2  A    between atoms: C_2  and  C_32
REMARK    3  A    between atoms: C_3  and  N_29
REMARK    4  A    between atoms: C_5  and  C_22
REMARK    5  A    between atoms: C_8  and  C_15
REMARK    6  A    between atoms: C_10  and  N_12
REMARK    7  A    between atoms: C_18  and  O_21
REMARK    8  A    between atoms: C_25  and  O_28
REMARK                            x       y       z     vdW  Elec       q    Type
REMARK                         _______ _______ _______ _____ _____    ______ ____
ROOT
ATOM      1  C   UNL     1      -0.389   0.518   1.461  0.00  0.00    +0.015 C 
ATOM      2  C   UNL     1      -0.172  -0.650   0.496  0.00  0.00    +0.023 C 
ATOM      3  C   UNL     1      -0.267  -0.146  -0.946  0.00  0.00    +0.199 C 
ATOM      4  C   UNL     1       0.011  -1.306  -1.905  0.00  0.00    +0.115 C 
ATOM      5  N   UNL     1       1.350  -1.849  -1.644  0.00  0.00    -0.299 NA
ATOM      6  C   UNL     1       1.451  -2.381  -0.279  0.00  0.00    +0.115 C 
ATOM      7  C   UNL     1       1.216  -1.254   0.728  0.00  0.00    +0.199 C 
ATOM      8  C   UNL     1      -1.241  -1.718   0.738  0.00  0.00    +0.015 C 
ATOM      9  H   UNL     1       1.595  -2.551  -2.325  0.00  0.00    +0.123 HD
ENDROOT
BRANCH   6  10
ATOM     10  C   UNL     1       2.824  -2.965  -0.068  0.00  0.00    -0.028 A 
ATOM     11  C   UNL     1       3.894  -2.496  -0.806  0.00  0.00    +0.009 A 
ATOM     12  C   UNL     1       5.154  -3.030  -0.614  0.00  0.00    +0.046 A 
ATOM     13  C   UNL     1       5.344  -4.037   0.320  0.00  0.00    +0.117 A 
ATOM     14  C   UNL     1       4.268  -4.506   1.060  0.00  0.00    +0.046 A 
ATOM     15  C   UNL     1       3.011  -3.965   0.868  0.00  0.00    +0.009 A 
BRANCH  13  16
ATOM     16  O   UNL     1       6.582  -4.565   0.510  0.00  0.00    -0.507 OA
ATOM     17  H   UNL     1       7.103  -4.111   1.186  0.00  0.00    +0.292 HD
ENDBRANCH  13  16
ENDBRANCH   6  10
BRANCH   4  18
ATOM     18  C   UNL     1      -0.061  -0.811  -3.327  0.00  0.00    -0.028 A 
ATOM     19  C   UNL     1       1.091  -0.723  -4.087  0.00  0.00    +0.009 A 
ATOM     20  C   UNL     1       1.027  -0.269  -5.390  0.00  0.00    +0.046 A 
ATOM     21  C   UNL     1      -0.194   0.099  -5.936  0.00  0.00    +0.117 A 
ATOM     22  C   UNL     1      -1.348   0.010  -5.172  0.00  0.00    +0.046 A 
ATOM     23  C   UNL     1      -1.280  -0.450  -3.871  0.00  0.00    +0.009 A 
BRANCH  21  24
ATOM     24  O   UNL     1      -0.259   0.547  -7.217  0.00  0.00    -0.507 OA
ATOM     25  H   UNL     1      -0.401  -0.151  -7.871  0.00  0.00    +0.292 HD
ENDBRANCH  21  24
ENDBRANCH   4  18
BRANCH   7  26
ATOM     26  N   UNL     1       2.236  -0.217   0.549  0.00  0.00    +0.028 N 
ATOM     27  O   UNL     1       2.450   0.579   1.434  0.00  0.00    -0.131 OA
ATOM     28  O   UNL     1       2.863  -0.158  -0.482  0.00  0.00    -0.131 OA
ENDBRANCH   7  26
BRANCH   3  29
ATOM     29  N   UNL     1       0.721   0.914  -1.160  0.00  0.00    +0.028 N 
ATOM     30  O   UNL     1       1.509   0.831  -2.074  0.00  0.00    -0.131 OA
ATOM     31  O   UNL     1       0.749   1.872  -0.423  0.00  0.00    -0.131 OA
ENDBRANCH   3  29
TORSDOF 6
