REMARK  Name = ZINC62037903
REMARK  8 active torsions:
REMARK  status: ('A' for Active; 'I' for Inactive)
REMARK    1  A    between atoms: C_1  and  C_2
REMARK    2  A    between atoms: C_2  and  C_4
REMARK    3  A    between atoms: C_2  and  N_12
REMARK    4  A    between atoms: C_4  and  C_5
REMARK    5  A    between atoms: N_12  and  S_13
REMARK    6  A    between atoms: S_13  and  C_16
REMARK    7  A    between atoms: C_19  and  C_21
REMARK    8  A    between atoms: C_21  and  N_22
REMARK                            x       y       z     vdW  Elec       q    Type
REMARK                         _______ _______ _______ _____ _____    ______ ____
ROOT
ATOM      1  S   UNL     1      -2.119  -0.907  -1.411  0.00  0.00    +0.065 S 
ATOM      2  O   UNL     1      -3.414  -1.386  -1.071  0.00  0.00    -0.153 OA
ATOM      3  O   UNL     1      -1.920   0.189  -2.293  0.00  0.00    -0.153 OA
ENDROOT
BRANCH   1   4
ATOM      4  C   UNL     1      -1.242  -2.272  -2.098  0.00  0.00    +0.143 A 
ATOM      5  C   UNL     1      -1.452  -3.599  -1.918  0.00  0.00    +0.036 A 
ATOM      6  C   UNL     1      -0.629  -4.502  -2.566  0.00  0.00    +0.011 A 
ATOM      7  C   UNL     1       0.362  -4.033  -3.362  0.00  0.00    -0.026 A 
ATOM      8  S   UNL     1       0.149  -2.267  -3.217  0.00  0.00    -0.075 S 
BRANCH   7   9
ATOM      9  C   UNL     1       1.378  -4.803  -4.166  0.00  0.00    -0.043 C 
BRANCH   9  10
ATOM     10  N   UNL     1       0.845  -5.064  -5.510  0.00  0.00    +0.381 N 
ATOM     11  H   UNL     1       0.647  -4.187  -5.968  0.00  0.00    -0.090 HD
ATOM     12  H   UNL     1       1.525  -5.579  -6.048  0.00  0.00    -0.090 HD
ATOM     13  H   UNL     1      -0.005  -5.603  -5.435  0.00  0.00    -0.090 HD
ENDBRANCH   9  10
ENDBRANCH   7   9
ENDBRANCH   1   4
BRANCH   1  14
ATOM     14  N   UNL     1      -1.372  -0.511   0.012  0.00  0.00    -0.186 NA
ATOM     15  H   UNL     1      -1.845  -0.615   0.853  0.00  0.00    +0.148 HD
BRANCH  14  17
ATOM     16  C   UNL     1      -0.019   1.526   0.010  0.00  0.00    +0.026 C 
ATOM     17  C   UNL     1       0.002  -0.004   0.002  0.00  0.00    +0.078 C 
BRANCH  17  18
ATOM     18  C   UNL     1       0.742  -0.511   1.242  0.00  0.00    +0.055 C 
BRANCH  18  19
ATOM     19  C   UNL     1       0.870  -2.011   1.172  0.00  0.00    -0.046 A 
ATOM     20  C   UNL     1      -0.118  -2.814   1.711  0.00  0.00    +0.006 A 
ATOM     21  C   UNL     1      -0.002  -4.190   1.647  0.00  0.00    +0.038 A 
ATOM     22  C   UNL     1       1.104  -4.763   1.043  0.00  0.00    +0.123 A 
ATOM     23  C   UNL     1       2.093  -3.958   0.504  0.00  0.00    +0.038 A 
ATOM     24  C   UNL     1       1.972  -2.583   0.564  0.00  0.00    +0.006 A 
ATOM     25  F   UNL     1       1.219  -6.108   0.981  0.00  0.00    -0.205 F 
ENDBRANCH  18  19
ENDBRANCH  17  18
ENDBRANCH  14  17
ENDBRANCH   1  14
TORSDOF 7
