REMARK  Name = ZINC20718838
REMARK  7 active torsions:
REMARK  status: ('A' for Active; 'I' for Inactive)
REMARK    1  A    between atoms: C_1  and  O_2
REMARK    2  A    between atoms: O_2  and  C_3
REMARK    3  A    between atoms: C_5  and  C_13
REMARK    4  A    between atoms: C_6  and  O_11
REMARK    5  A    between atoms: C_8  and  O_9
REMARK    6  A    between atoms: O_9  and  C_10
REMARK    7  A    between atoms: O_11  and  C_12
REMARK                            x       y       z     vdW  Elec       q    Type
REMARK                         _______ _______ _______ _____ _____    ______ ____
ROOT
ATOM      1  C   UNL     1      -4.871   0.262   0.039  0.00  0.00    +0.115 C 
ATOM      2  C   UNL     1      -5.330   0.453  -1.373  0.00  0.00    +0.029 A 
ATOM      3  C   UNL     1      -4.466   0.417  -2.429  0.00  0.00    +0.111 A 
ATOM      4  N   UNL     1      -5.171   0.619  -3.555  0.00  0.00    -0.283 N 
ATOM      5  H   UNL     1      -4.813   0.644  -4.456  0.00  0.00    +0.188 HD
ATOM      6  N   UNL     1      -6.508   0.786  -3.197  0.00  0.00    -0.158 NA
ATOM      7  C   UNL     1      -6.610   0.687  -1.875  0.00  0.00    +0.151 A 
ATOM      8  N   UNL     1      -7.832   0.816  -1.242  0.00  0.00    -0.268 N 
ATOM      9  C   UNL     1      -8.230   0.729  -0.008  0.00  0.00    +0.228 C 
ATOM     10  O   UNL     1      -9.431   0.809   0.143  0.00  0.00    -0.275 OA
ATOM     11  C   UNL     1      -7.463   0.550   1.240  0.00  0.00    +0.166 C 
ATOM     12  S   UNL     1      -6.078  -0.582   1.064  0.00  0.00    -0.138 S 
ATOM     13  H   UNL     1      -8.555   1.017  -1.857  0.00  0.00    +0.156 HD
ENDROOT
BRANCH   1  16
ATOM     14  C   UNL     1      -1.202  -0.638   0.010  0.00  0.00    +0.162 A 
ATOM     15  C   UNL     1      -2.374   0.100   0.019  0.00  0.00    +0.058 A 
ATOM     16  C   UNL     1      -3.597  -0.543   0.028  0.00  0.00    +0.015 A 
ATOM     17  C   UNL     1      -3.654  -1.929   0.027  0.00  0.00    +0.128 A 
ATOM     18  C   UNL     1      -2.483  -2.672   0.017  0.00  0.00    +0.095 A 
ATOM     19  C   UNL     1      -1.256  -2.029   0.003  0.00  0.00    +0.165 A 
BRANCH  14  21
ATOM     20  C   UNL     1      -0.017   1.425   0.010  0.00  0.00    +0.277 C 
ATOM     21  O   UNL     1       0.002  -0.004   0.002  0.00  0.00    -0.491 OA
ENDBRANCH  14  21
BRANCH  19  22
ATOM     22  O   UNL     1      -0.107  -2.755  -0.012  0.00  0.00    -0.491 OA
ATOM     23  C   UNL     1      -0.238  -4.178  -0.019  0.00  0.00    +0.277 C 
ENDBRANCH  19  22
BRANCH  17  24
ATOM     24  O   UNL     1      -4.859  -2.560   0.035  0.00  0.00    -0.495 OA
ATOM     25  C   UNL     1      -4.843  -3.989   0.034  0.00  0.00    +0.277 C 
ENDBRANCH  17  24
ENDBRANCH   1  16
TORSDOF 4
