REMARK  Name = ZINC64173534
REMARK  8 active torsions:
REMARK  status: ('A' for Active; 'I' for Inactive)
REMARK    1  A    between atoms: C_1  and  C_2
REMARK    2  A    between atoms: C_4  and  N_8
REMARK    3  A    between atoms: C_9  and  C_11
REMARK    4  A    between atoms: C_11  and  C_13
REMARK    5  A    between atoms: C_11  and  N_23
REMARK    6  A    between atoms: C_13  and  C_14
REMARK    7  A    between atoms: N_23  and  S_24
REMARK    8  A    between atoms: S_24  and  C_27
REMARK                            x       y       z     vdW  Elec       q    Type
REMARK                         _______ _______ _______ _____ _____    ______ ____
ROOT
ATOM      1  C   UNL     1       2.062  -4.450  -3.334  0.00  0.00    +0.166 C 
ENDROOT
BRANCH   1   3
ATOM      2  N   UNL     1       1.041  -2.629  -2.009  0.00  0.00    -0.284 N 
ATOM      3  C   UNL     1       1.017  -3.923  -2.386  0.00  0.00    +0.234 C 
ATOM      4  O   UNL     1       0.155  -4.662  -1.961  0.00  0.00    -0.274 OA
ATOM      5  H   UNL     1       1.730  -2.037  -2.349  0.00  0.00    +0.152 HD
BRANCH   2   9
ATOM      6  C   UNL     1      -0.018   1.503   0.010  0.00  0.00    +0.061 C 
ATOM      7  C   UNL     1       0.002  -0.004   0.002  0.00  0.00    +0.023 C 
ATOM      8  N   UNL     1       0.006  -0.638  -1.082  0.00  0.00    -0.259 NA
ATOM      9  C   UNL     1       0.025  -2.115  -1.087  0.00  0.00    +0.251 C 
ATOM     10  S   UNL     1       0.482  -2.458   0.669  0.00  0.00    -0.110 S 
ATOM     11  C   UNL     1       0.025  -0.787   1.307  0.00  0.00    +0.123 C 
ENDBRANCH   2   9
ENDBRANCH   1   3
BRANCH   1  12
ATOM     12  N   UNL     1       1.820  -5.873  -3.586  0.00  0.00    -0.178 NA
ATOM     13  H   UNL     1       2.171  -6.540  -2.975  0.00  0.00    +0.149 HD
BRANCH  12  14
ATOM     14  S   UNL     1       0.947  -6.343  -4.912  0.00  0.00    +0.059 S 
ATOM     15  O   UNL     1       0.910  -7.763  -4.891  0.00  0.00    -0.153 OA
ATOM     16  O   UNL     1      -0.233  -5.551  -4.923  0.00  0.00    -0.153 OA
BRANCH  14  17
ATOM     17  C   UNL     1       1.876  -5.884  -6.337  0.00  0.00    +0.105 A 
ATOM     18  C   UNL     1       1.695  -4.638  -6.907  0.00  0.00    +0.030 A 
ATOM     19  C   UNL     1       2.424  -4.277  -8.025  0.00  0.00    +0.022 A 
ATOM     20  C   UNL     1       3.334  -5.163  -8.573  0.00  0.00    +0.041 A 
ATOM     21  C   UNL     1       3.515  -6.410  -8.001  0.00  0.00    +0.022 A 
ATOM     22  C   UNL     1       2.790  -6.768  -6.880  0.00  0.00    +0.030 A 
ATOM     23 CL   UNL     1       4.249  -4.711  -9.977  0.00  0.00    -0.084 Cl
ENDBRANCH  14  17
ENDBRANCH  12  14
ENDBRANCH   1  12
BRANCH   1  24
ATOM     24  C   UNL     1       3.450  -4.271  -2.716  0.00  0.00    +0.063 C 
BRANCH  24  25
ATOM     25  C   UNL     1       4.502  -4.685  -3.712  0.00  0.00    -0.040 C 
ATOM     26  C   UNL     1       5.179  -3.879  -4.562  0.00  0.00    -0.001 A 
ATOM     27  C   UNL     1       5.139  -2.432  -4.804  0.00  0.00    +0.010 A 
ATOM     28  C   UNL     1       5.955  -1.901  -5.743  0.00  0.00    +0.001 A 
ATOM     29  C   UNL     1       6.835  -2.697  -6.489  0.00  0.00    +0.002 A 
ATOM     30  C   UNL     1       6.929  -4.033  -6.324  0.00  0.00    +0.026 A 
ATOM     31  C   UNL     1       6.117  -4.697  -5.363  0.00  0.00    +0.043 A 
ATOM     32  N   UNL     1       6.024  -5.959  -5.022  0.00  0.00    -0.380 N 
ATOM     33  C   UNL     1       5.019  -6.084  -3.961  0.00  0.00    +0.144 C 
ATOM     34  H   UNL     1       6.537  -6.688  -5.405  0.00  0.00    +0.160 HD
ENDBRANCH  24  25
ENDBRANCH   1  24
TORSDOF 7
