REMARK  Name = ZINC53866612
REMARK  9 active torsions:
REMARK  status: ('A' for Active; 'I' for Inactive)
REMARK    1  A    between atoms: C_1  and  C_2
REMARK    2  A    between atoms: C_2  and  C_3
REMARK    3  A    between atoms: C_7  and  N_21
REMARK    4  A    between atoms: C_9  and  C_12
REMARK    5  A    between atoms: C_12  and  N_13
REMARK    6  A    between atoms: N_13  and  C_14
REMARK    7  A    between atoms: N_13  and  C_16
REMARK    8  A    between atoms: C_14  and  C_15
REMARK    9  A    between atoms: N_21  and  C_22
REMARK                            x       y       z     vdW  Elec       q    Type
REMARK                         _______ _______ _______ _____ _____    ______ ____
ROOT
ATOM      1  C   UNL     1      -1.906  -1.081  -0.805  0.00  0.00    -0.011 C 
ATOM      2  C   UNL     1      -2.838  -1.201  -2.013  0.00  0.00    +0.002 C 
ATOM      3  C   UNL     1      -2.158  -2.036  -3.100  0.00  0.00    -0.015 C 
ATOM      4  C   UNL     1      -1.848  -3.431  -2.553  0.00  0.00    -0.071 C 
ATOM      5  C   UNL     1      -0.916  -3.310  -1.346  0.00  0.00    -0.042 C 
ATOM      6  C   UNL     1      -1.596  -2.475  -0.259  0.00  0.00    +0.003 C 
ENDROOT
BRANCH   4   7
ATOM      7  N   UNL     1      -1.195  -4.232  -3.598  0.00  0.00    +0.379 N 
ATOM      8  C   UNL     1      -2.134  -4.449  -4.707  0.00  0.00    -0.100 C 
ATOM      9  H   UNL     1      -0.381  -3.742  -3.937  0.00  0.00    -0.086 HD
ATOM     10  H   UNL     1      -0.917  -5.122  -3.213  0.00  0.00    -0.086 HD
ENDBRANCH   4   7
BRANCH   1  12
ATOM     11  C   UNL     1      -0.899   1.040  -1.661  0.00  0.00    +0.004 C 
ATOM     12  C   UNL     1      -0.604  -0.399  -1.232  0.00  0.00    +0.000 C 
ENDBRANCH   1  12
BRANCH   5  13
ATOM     13  C   UNL     1      -0.606  -4.705  -0.799  0.00  0.00    -0.077 C 
BRANCH  13  14
ATOM     14  N   UNL     1       0.290  -4.589   0.358  0.00  0.00    +0.382 N 
ATOM     15  H   UNL     1      -0.109  -3.951   1.030  0.00  0.00    -0.081 HD
BRANCH  14  16
ATOM     16  C   UNL     1       0.462  -5.909   0.979  0.00  0.00    -0.069 C 
ATOM     17  C   UNL     1      -0.892  -6.423   1.511  0.00  0.00    -0.015 C 
ATOM     18  C   UNL     1      -0.531  -7.153   2.828  0.00  0.00    -0.002 C 
ATOM     19  C   UNL     1       0.583  -6.255   3.422  0.00  0.00    -0.002 C 
ATOM     20  C   UNL     1       1.399  -5.803   2.195  0.00  0.00    -0.015 C 
ENDBRANCH  14  16
BRANCH  14  21
ATOM     21  C   UNL     1       1.597  -4.082  -0.083  0.00  0.00    -0.082 C 
ATOM     22  C   UNL     1       1.623  -2.558   0.047  0.00  0.00    -0.017 C 
ENDBRANCH  14  21
ENDBRANCH  13  14
ENDBRANCH   5  13
TORSDOF 6
