REMARK  Name = ZINC55024122
REMARK  12 active torsions:
REMARK  status: ('A' for Active; 'I' for Inactive)
REMARK    1  A    between atoms: C_1  and  N_2
REMARK    2  A    between atoms: N_2  and  C_3
REMARK    3  A    between atoms: N_2  and  C_12
REMARK    4  A    between atoms: C_3  and  C_4
REMARK    5  A    between atoms: C_4  and  C_5
REMARK    6  A    between atoms: C_12  and  C_13
REMARK    7  A    between atoms: C_13  and  C_15
REMARK    8  A    between atoms: C_16  and  N_28
REMARK    9  A    between atoms: N_17  and  C_24
REMARK   10  A    between atoms: C_24  and  C_25
REMARK   11  A    between atoms: C_25  and  O_26
REMARK   12  A    between atoms: O_26  and  C_27
REMARK                            x       y       z     vdW  Elec       q    Type
REMARK                         _______ _______ _______ _____ _____    ______ ____
ROOT
ATOM      1  C   UNL     1       0.353  -0.437  -3.711  0.00  0.00    +0.118 A 
ATOM      2  C   UNL     1      -0.416  -0.165  -4.856  0.00  0.00    +0.116 A 
ATOM      3  N   UNL     1       0.077  -0.511  -6.081  0.00  0.00    -0.279 N 
ATOM      4  C   UNL     1       1.276  -1.102  -6.209  0.00  0.00    +0.331 A 
ATOM      5  O   UNL     1       1.671  -1.390  -7.322  0.00  0.00    -0.246 OA
ATOM      6  N   UNL     1       2.055  -1.386  -5.152  0.00  0.00    -0.274 N 
ATOM      7  H   UNL     1       2.914  -1.814  -5.293  0.00  0.00    +0.173 HD
ATOM      8  C   UNL     1       1.660  -1.079  -3.900  0.00  0.00    +0.266 A 
ATOM      9  O   UNL     1       2.371  -1.334  -2.945  0.00  0.00    -0.267 OA
ENDROOT
BRANCH   2  10
ATOM     10  N   UNL     1      -1.634   0.432  -4.745  0.00  0.00    -0.344 N 
ATOM     11  H   UNL     1      -1.943   0.745  -3.880  0.00  0.00    +0.144 HD
ATOM     12  H   UNL     1      -2.192   0.545  -5.530  0.00  0.00    +0.144 HD
ENDBRANCH   2  10
BRANCH   1  13
ATOM     13  C   UNL     1      -0.113  -0.099  -2.423  0.00  0.00    +0.155 C 
ATOM     14  O   UNL     1      -1.144   0.530  -2.296  0.00  0.00    -0.294 OA
BRANCH  13  15
ATOM     15  C   UNL     1       0.668  -0.518  -1.204  0.00  0.00    +0.002 C 
BRANCH  15  17
ATOM     16  C   UNL     1      -0.020   1.421   0.029  0.00  0.00    -0.096 C 
ATOM     17  N   UNL     1      -0.021  -0.048   0.005  0.00  0.00    +0.383 N 
ATOM     18  H   UNL     1      -0.972  -0.384   0.002  0.00  0.00    -0.082 HD
BRANCH  17  19
ATOM     19  C   UNL     1       0.675  -0.558   1.194  0.00  0.00    -0.074 C 
BRANCH  19  20
ATOM     20  C   UNL     1      -0.112  -0.173   2.449  0.00  0.00    +0.016 C 
BRANCH  20  21
ATOM     21  C   UNL     1       0.602  -0.696   3.669  0.00  0.00    -0.049 A 
ATOM     22  C   UNL     1       0.314  -1.960   4.149  0.00  0.00    +0.006 A 
ATOM     23  C   UNL     1       0.968  -2.441   5.268  0.00  0.00    +0.038 A 
ATOM     24  C   UNL     1       1.912  -1.656   5.907  0.00  0.00    +0.123 A 
ATOM     25  C   UNL     1       2.200  -0.391   5.425  0.00  0.00    +0.038 A 
ATOM     26  C   UNL     1       1.549   0.086   4.303  0.00  0.00    +0.006 A 
ATOM     27  F   UNL     1       2.552  -2.125   7.001  0.00  0.00    -0.205 F 
ENDBRANCH  20  21
ENDBRANCH  19  20
ENDBRANCH  17  19
ENDBRANCH  15  17
ENDBRANCH  13  15
ENDBRANCH   1  13
BRANCH   3  28
ATOM     28  C   UNL     1      -0.717  -0.232  -7.280  0.00  0.00    +0.156 C 
BRANCH  28  29
ATOM     29  C   UNL     1      -0.367   1.160  -7.811  0.00  0.00    +0.181 C 
BRANCH  29  30
ATOM     30  O   UNL     1       0.993   1.175  -8.246  0.00  0.00    -0.381 OA
ATOM     31  C   UNL     1       1.423   2.436  -8.763  0.00  0.00    +0.194 C 
ENDBRANCH  29  30
ENDBRANCH  28  29
ENDBRANCH   3  28
TORSDOF 10
