REMARK  Name = ZINC20611693
REMARK  6 active torsions:
REMARK  status: ('A' for Active; 'I' for Inactive)
REMARK    1  A    between atoms: C_1  and  C_2
REMARK    2  A    between atoms: C_2  and  C_3
REMARK    3  A    between atoms: C_2  and  C_4
REMARK    4  A    between atoms: C_4  and  C_5
REMARK    5  A    between atoms: N_13  and  C_16
REMARK    6  A    between atoms: C_16  and  C_17
REMARK                            x       y       z     vdW  Elec       q    Type
REMARK                         _______ _______ _______ _____ _____    ______ ____
ROOT
ATOM      1  C   UNL     1      -1.444  -2.022  -0.050  0.00  0.00    +0.068 C 
ATOM      2  C   UNL     1      -2.859  -2.615  -0.222  0.00  0.00    +0.107 C 
ATOM      3  C   UNL     1      -2.887  -3.858   0.710  0.00  0.00    +0.122 C 
ATOM      4  C   UNL     1      -3.918  -3.488   1.753  0.00  0.00    +0.229 C 
ATOM      5  O   UNL     1      -4.257  -4.189   2.682  0.00  0.00    -0.275 OA
ATOM      6  N   UNL     1      -4.397  -2.266   1.490  0.00  0.00    -0.237 N 
ATOM      7  C   UNL     1      -3.872  -1.676   0.392  0.00  0.00    +0.227 C 
ATOM      8  O   UNL     1      -4.159  -0.578  -0.035  0.00  0.00    -0.275 OA
ATOM      9  C   UNL     1      -1.488  -3.899   1.339  0.00  0.00    +0.136 C 
ATOM     10  N   UNL     1      -0.983  -2.507   1.277  0.00  0.00    -0.295 NA
ATOM     11  C   UNL     1      -0.590  -4.864   0.620  0.00  0.00    +0.003 A 
ATOM     12  C   UNL     1      -0.148  -4.959  -0.681  0.00  0.00    +0.008 A 
ATOM     13  C   UNL     1       0.696  -5.991  -1.052  0.00  0.00    +0.000 A 
ATOM     14  C   UNL     1       1.094  -6.925  -0.113  0.00  0.00    +0.002 A 
ATOM     15  C   UNL     1       0.655  -6.833   1.191  0.00  0.00    +0.023 A 
ATOM     16  C   UNL     1      -0.194  -5.798   1.573  0.00  0.00    +0.039 A 
ATOM     17  N   UNL     1      -0.764  -5.494   2.812  0.00  0.00    -0.283 N 
ATOM     18  C   UNL     1      -1.537  -4.392   2.759  0.00  0.00    +0.243 C 
ATOM     19  O   UNL     1      -2.152  -3.894   3.678  0.00  0.00    -0.273 OA
ATOM     20  H   UNL     1       0.024  -2.488   1.339  0.00  0.00    +0.123 HD
ATOM     21  H   UNL     1      -0.619  -6.016   3.617  0.00  0.00    +0.155 HD
ENDROOT
BRANCH   1  22
ATOM     22  C   UNL     1      -1.503  -0.493  -0.067  0.00  0.00    +0.022 C 
BRANCH  22  24
ATOM     23  C   UNL     1       0.734  -0.304  -1.165  0.00  0.00    +0.007 C 
ATOM     24  C   UNL     1      -0.088   0.073   0.069  0.00  0.00    -0.016 C 
ATOM     25  C   UNL     1      -0.157   1.597   0.190  0.00  0.00    +0.007 C 
ENDBRANCH  22  24
ENDBRANCH   1  22
BRANCH   6  26
ATOM     26  C   UNL     1      -5.415  -1.619   2.322  0.00  0.00    +0.153 C 
BRANCH  26  27
ATOM     27  C   UNL     1      -4.753  -0.960   3.505  0.00  0.00    -0.011 A 
ATOM     28  C   UNL     1      -4.668  -1.629   4.711  0.00  0.00    +0.006 A 
ATOM     29  C   UNL     1      -4.061  -1.025   5.796  0.00  0.00    +0.000 A 
ATOM     30  C   UNL     1      -3.538   0.249   5.675  0.00  0.00    +0.001 A 
ATOM     31  C   UNL     1      -3.622   0.919   4.469  0.00  0.00    +0.020 A 
ATOM     32  C   UNL     1      -4.224   0.312   3.381  0.00  0.00    +0.046 A 
ATOM     33 CL   UNL     1      -4.324   1.150   1.864  0.00  0.00    -0.083 Cl
ENDBRANCH  26  27
ENDBRANCH   6  26
TORSDOF 4
