REMARK  Name = ZINC66482989
REMARK  9 active torsions:
REMARK  status: ('A' for Active; 'I' for Inactive)
REMARK    1  A    between atoms: C_1  and  C_2
REMARK    2  A    between atoms: N_5  and  C_11
REMARK    3  A    between atoms: C_7  and  C_10
REMARK    4  A    between atoms: C_11  and  C_12
REMARK    5  A    between atoms: C_12  and  C_14
REMARK    6  A    between atoms: C_12  and  O_25
REMARK    7  A    between atoms: C_14  and  N_15
REMARK    8  A    between atoms: C_17  and  C_24
REMARK    9  A    between atoms: C_21  and  C_23
REMARK                            x       y       z     vdW  Elec       q    Type
REMARK                         _______ _______ _______ _____ _____    ______ ____
ROOT
ATOM      1  C   UNL     1       4.191   0.244  -2.497  0.00  0.00    +0.142 C 
ENDROOT
BRANCH   1   2
ATOM      2  O   UNL     1       3.970   1.655  -2.535  0.00  0.00    -0.389 OA
ATOM      3  H   UNL     1       3.445   1.950  -3.292  0.00  0.00    +0.210 HD
ENDBRANCH   1   2
BRANCH   1   4
ATOM      4  C   UNL     1       2.846  -0.482  -2.425  0.00  0.00    +0.117 C 
BRANCH   4   8
ATOM      5  C   UNL     1      -0.046   1.479  -0.005  0.00  0.00    +0.039 C 
ATOM      6  C   UNL     1       0.017  -0.049   0.024  0.00  0.00    +0.130 C 
ATOM      7  C   UNL     1       0.743  -0.554  -1.226  0.00  0.00    +0.115 C 
ATOM      8  N   UNL     1       2.129  -0.066  -1.212  0.00  0.00    -0.295 NA
ATOM      9  C   UNL     1       2.830  -0.522  -0.003  0.00  0.00    +0.115 C 
ATOM     10  C   UNL     1       2.084  -0.017   1.234  0.00  0.00    +0.130 C 
ATOM     11  O   UNL     1       0.729  -0.476   1.188  0.00  0.00    -0.371 OA
ATOM     12  C   UNL     1       2.763  -0.554   2.495  0.00  0.00    +0.039 C 
ENDBRANCH   4   8
ENDBRANCH   1   4
BRANCH   1  13
ATOM     13  C   UNL     1       4.938  -0.190  -3.760  0.00  0.00    +0.117 C 
BRANCH  13  14
ATOM     14  N   UNL     1       6.248   0.472  -3.806  0.00  0.00    -0.293 NA
ATOM     15  C   UNL     1       6.799   0.459  -5.169  0.00  0.00    +0.116 C 
ATOM     16  C   UNL     1       8.133   1.209  -5.183  0.00  0.00    +0.129 C 
ATOM     17  O   UNL     1       9.021   0.610  -4.234  0.00  0.00    -0.374 OA
ATOM     18  C   UNL     1       8.517   0.607  -2.896  0.00  0.00    +0.178 C 
ATOM     19  C   UNL     1       7.186  -0.149  -2.859  0.00  0.00    +0.079 C 
ATOM     20  C   UNL     1       7.417  -1.609  -3.254  0.00  0.00    +0.026 C 
ATOM     21  C   UNL     1       8.749   1.130  -6.581  0.00  0.00    +0.039 C 
ENDBRANCH  13  14
ENDBRANCH   1  13
TORSDOF 5
