REMARK  Name = ZINC13278761
REMARK  5 active torsions:
REMARK  status: ('A' for Active; 'I' for Inactive)
REMARK    1  A    between atoms: C_6  and  C_7
REMARK    2  A    between atoms: N_9  and  N_10
REMARK    3  A    between atoms: N_10  and  S_11
REMARK    4  A    between atoms: S_11  and  C_14
REMARK    5  A    between atoms: C_18  and  C_20
REMARK                            x       y       z     vdW  Elec       q    Type
REMARK                         _______ _______ _______ _____ _____    ______ ____
ROOT
ATOM      1  N   UNL     1       4.926  -2.731  -0.073  0.00  0.00    -0.108 NA
ATOM      2  H   UNL     1       5.577  -2.544  -0.768  0.00  0.00    +0.172 HD
ENDROOT
BRANCH   1   5
ATOM      3  C   UNL     1       3.690  -0.696  -0.046  0.00  0.00    +0.259 C 
ATOM      4  O   UNL     1       4.736  -0.076  -0.055  0.00  0.00    -0.269 OA
ATOM      5  N   UNL     1       3.705  -2.044  -0.054  0.00  0.00    -0.228 N 
ATOM      6  H   UNL     1       2.871  -2.538  -0.047  0.00  0.00    +0.171 HD
BRANCH   3  12
ATOM      7  C   UNL     1       1.201  -0.682  -0.016  0.00  0.00    +0.017 A 
ATOM      8  C   UNL     1       0.002  -0.004   0.002  0.00  0.00    +0.050 A 
ATOM      9  C   UNL     1      -0.017   1.385   0.010  0.00  0.00    +0.162 A 
ATOM     10  C   UNL     1       1.179   2.099   0.002  0.00  0.00    +0.163 A 
ATOM     11  C   UNL     1       2.386   1.425  -0.017  0.00  0.00    +0.062 A 
ATOM     12  C   UNL     1       2.404   0.028  -0.026  0.00  0.00    +0.042 A 
ATOM     13  O   UNL     1       1.178   3.461   0.018  0.00  0.00    -0.485 OA
ATOM     14  C   UNL     1      -0.049   4.107  -0.339  0.00  0.00    +0.270 C 
ATOM     15  C   UNL     1      -1.194   3.411   0.409  0.00  0.00    +0.270 C 
ATOM     16  O   UNL     1      -1.212   2.034   0.019  0.00  0.00    -0.485 OA
ENDBRANCH   3  12
ENDBRANCH   1   5
BRANCH   1  17
ATOM     17  S   UNL     1       5.259  -3.860   1.091  0.00  0.00    +0.074 S 
ATOM     18  O   UNL     1       6.487  -4.474   0.722  0.00  0.00    -0.152 OA
ATOM     19  O   UNL     1       5.075  -3.217   2.345  0.00  0.00    -0.152 OA
BRANCH  17  20
ATOM     20  C   UNL     1       4.019  -5.106   0.977  0.00  0.00    +0.108 A 
ATOM     21  C   UNL     1       2.855  -4.992   1.718  0.00  0.00    +0.030 A 
ATOM     22  C   UNL     1       1.874  -5.963   1.631  0.00  0.00    +0.018 A 
ATOM     23  C   UNL     1       2.054  -7.059   0.811  0.00  0.00    +0.032 A 
ATOM     24  C   UNL     1       3.228  -7.183   0.064  0.00  0.00    +0.079 A 
ATOM     25  C   UNL     1       4.212  -6.196   0.154  0.00  0.00    +0.044 A 
ATOM     26 BR   UNL     1       0.714  -8.389   0.698  0.00  0.00    -0.049 Br
BRANCH  24  27
ATOM     27  C   UNL     1       3.428  -8.352  -0.815  0.00  0.00    +0.388 C 
ATOM     28  O   UNL     1       2.571  -9.209  -0.891  0.00  0.00    -0.241 OA
ATOM     29  O   UNL     1       4.562  -8.468  -1.534  0.00  0.00    -0.241 OA
ENDBRANCH  24  27
ENDBRANCH  17  20
ENDBRANCH   1  17
TORSDOF 5
