REMARK  Name = ZINC53474006
REMARK  5 active torsions:
REMARK  status: ('A' for Active; 'I' for Inactive)
REMARK    1  A    between atoms: C_1  and  N_2
REMARK    2  A    between atoms: N_2  and  C_3
REMARK    3  A    between atoms: C_7  and  C_10
REMARK    4  A    between atoms: C_10  and  N_11
REMARK    5  A    between atoms: C_12  and  C_14
REMARK                            x       y       z     vdW  Elec       q    Type
REMARK                         _______ _______ _______ _____ _____    ______ ____
ROOT
ATOM      1  N   UNL     1      -5.295  -3.029   1.416  0.00  0.00    -0.306 N 
ATOM      2  C   UNL     1      -6.459  -3.659   1.670  0.00  0.00    +0.261 C 
ATOM      3  O   UNL     1      -7.160  -4.032   0.751  0.00  0.00    -0.269 OA
ATOM      4  H   UNL     1      -4.735  -2.731   2.150  0.00  0.00    +0.149 HD
ENDROOT
BRANCH   2   5
ATOM      5  C   UNL     1      -6.885  -3.895   3.070  0.00  0.00    +0.106 A 
ATOM      6  C   UNL     1      -6.086  -3.464   4.079  0.00  0.00    +0.082 A 
ATOM      7  C   UNL     1      -6.472  -3.679   5.429  0.00  0.00    +0.190 A 
ATOM      8  O   UNL     1      -5.771  -3.300   6.352  0.00  0.00    -0.287 OA
ATOM      9  C   UNL     1      -7.745  -4.374   5.679  0.00  0.00    +0.045 A 
ATOM     10  C   UNL     1      -8.195  -4.623   6.977  0.00  0.00    +0.014 A 
ATOM     11  C   UNL     1      -9.383  -5.271   7.169  0.00  0.00    +0.001 A 
ATOM     12  C   UNL     1     -10.146  -5.683   6.085  0.00  0.00    +0.002 A 
ATOM     13  C   UNL     1      -9.722  -5.448   4.796  0.00  0.00    +0.026 A 
ATOM     14  C   UNL     1      -8.514  -4.789   4.576  0.00  0.00    +0.051 A 
ATOM     15  N   UNL     1      -8.068  -4.535   3.300  0.00  0.00    -0.350 N 
ATOM     16  H   UNL     1      -8.606  -4.821   2.545  0.00  0.00    +0.166 HD
ENDBRANCH   2   5
BRANCH   1  17
ATOM     17  C   UNL     1      -4.874  -2.795   0.033  0.00  0.00    +0.141 C 
BRANCH  17  24
ATOM     18  C   UNL     1      -0.018   1.461   0.010  0.00  0.00    +0.130 C 
ATOM     19  N   UNL     1       0.002  -0.004   0.002  0.00  0.00    -0.323 N 
ATOM     20  C   UNL     1       1.281  -0.719  -0.014  0.00  0.00    +0.130 C 
ATOM     21  C   UNL     1      -1.192  -0.715   0.010  0.00  0.00    +0.098 A 
ATOM     22  C   UNL     1      -1.166  -2.107   0.008  0.00  0.00    +0.042 A 
ATOM     23  C   UNL     1      -2.362  -2.802   0.015  0.00  0.00    +0.010 A 
ATOM     24  C   UNL     1      -3.548  -2.080   0.025  0.00  0.00    -0.014 A 
ATOM     25  C   UNL     1      -3.500  -0.700   0.026  0.00  0.00    +0.089 A 
ATOM     26  N   UNL     1      -2.344  -0.063   0.024  0.00  0.00    -0.349 N 
ATOM     27  H   UNL     1      -2.339   0.907   0.029  0.00  0.00    +0.167 HD
ENDBRANCH  17  24
ENDBRANCH   1  17
TORSDOF 3
