REMARK  Name = ZINC62085220
REMARK  6 active torsions:
REMARK  status: ('A' for Active; 'I' for Inactive)
REMARK    1  A    between atoms: C_1  and  C_2
REMARK    2  A    between atoms: C_2  and  C_4
REMARK    3  A    between atoms: C_2  and  O_20
REMARK    4  A    between atoms: C_7  and  N_10
REMARK    5  A    between atoms: N_13  and  S_16
REMARK    6  A    between atoms: S_16  and  C_19
REMARK                            x       y       z     vdW  Elec       q    Type
REMARK                         _______ _______ _______ _____ _____    ______ ____
ROOT
ATOM      1  C   UNL     1       0.731  -0.505   1.222  0.00  0.00    -0.019 A 
ATOM      2  C   UNL     1       2.081  -0.793   1.150  0.00  0.00    +0.008 A 
ATOM      3  C   UNL     1       2.752  -1.250   2.267  0.00  0.00    +0.023 A 
ATOM      4  C   UNL     1       2.069  -1.420   3.465  0.00  0.00    +0.030 A 
ATOM      5  C   UNL     1       0.713  -1.130   3.534  0.00  0.00    +0.023 A 
ATOM      6  C   UNL     1       0.049  -0.668   2.414  0.00  0.00    +0.008 A 
ENDROOT
BRANCH   4   7
ATOM      7  N   UNL     1       2.745  -1.882   4.596  0.00  0.00    -0.327 N 
ATOM      8  C   UNL     1       2.065  -1.952   5.897  0.00  0.00    +0.122 C 
ATOM      9  C   UNL     1       2.177  -3.384   6.433  0.00  0.00    +0.128 C 
ATOM     10  N   UNL     1       3.580  -3.810   6.344  0.00  0.00    -0.178 NA
ATOM     11  C   UNL     1       4.261  -3.741   5.043  0.00  0.00    +0.128 C 
ATOM     12  C   UNL     1       4.147  -2.313   4.506  0.00  0.00    +0.122 C 
BRANCH  10  13
ATOM     13  S   UNL     1       4.381  -4.359   7.686  0.00  0.00    +0.029 S 
ATOM     14  O   UNL     1       5.752  -4.090   7.425  0.00  0.00    -0.158 OA
ATOM     15  O   UNL     1       3.719  -3.742   8.781  0.00  0.00    -0.158 OA
ATOM     16  C   UNL     1       4.088  -6.149   7.705  0.00  0.00    +0.215 C 
ENDBRANCH  10  13
ENDBRANCH   4   7
BRANCH   1  18
ATOM     17  C   UNL     1      -0.453  -1.199  -0.843  0.00  0.00    +0.043 C 
ATOM     18  C   UNL     1       0.002  -0.007   0.001  0.00  0.00    +0.141 C 
BRANCH  18  19
ATOM     19  O   UNL     1       0.875   0.819  -0.771  0.00  0.00    -0.387 OA
ATOM     20  H   UNL     1       0.471   1.175  -1.575  0.00  0.00    +0.210 HD
ENDBRANCH  18  19
ENDBRANCH   1  18
TORSDOF 4
