REMARK  Name = ZINC11874585
REMARK  13 active torsions:
REMARK  status: ('A' for Active; 'I' for Inactive)
REMARK    1  A    between atoms: C_1  and  C_2
REMARK    2  A    between atoms: C_2  and  C_26
REMARK    3  A    between atoms: C_4  and  N_9
REMARK    4  A    between atoms: C_6  and  C_7
REMARK    5  A    between atoms: C_6  and  C_8
REMARK    6  A    between atoms: N_9  and  C_10
REMARK    7  A    between atoms: C_11  and  C_13
REMARK    8  A    between atoms: C_13  and  C_14
REMARK    9  A    between atoms: C_21  and  C_22
REMARK   10  A    between atoms: C_21  and  N_68
REMARK   11  A    between atoms: C_22  and  C_23
REMARK   12  A    between atoms: C_22  and  C_24
REMARK   13  A    between atoms: C_22  and  C_25
REMARK                            x       y       z     vdW  Elec       q    Type
REMARK                         _______ _______ _______ _____ _____    ______ ____
ROOT
ATOM      1  N   UNL     1      -0.080   1.402   3.856  0.00  0.00    -0.302 N 
ATOM      2  C   UNL     1      -1.240   2.291   3.768  0.00  0.00    +0.132 C 
ATOM      3  C   UNL     1      -0.015   0.300   3.082  0.00  0.00    +0.214 C 
ATOM      4  O   UNL     1       0.949  -0.433   3.151  0.00  0.00    -0.276 OA
ENDROOT
BRANCH   1   8
ATOM      5  C   UNL     1       3.975   2.555   5.041  0.00  0.00    -0.010 C 
ATOM      6  C   UNL     1       2.753   3.416   5.374  0.00  0.00    -0.072 C 
ATOM      7  C   UNL     1       1.608   3.077   4.420  0.00  0.00    +0.009 C 
ATOM      8  C   UNL     1       1.016   1.714   4.783  0.00  0.00    +0.073 C 
ATOM      9  C   UNL     1       0.464   1.793   6.206  0.00  0.00    +0.009 C 
ATOM     10  C   UNL     1       1.573   2.150   7.192  0.00  0.00    -0.072 C 
ATOM     11  C   UNL     1       2.449   0.917   7.445  0.00  0.00    -0.010 C 
ATOM     12  C   UNL     1       0.902   2.515   8.535  0.00  0.00    -0.010 C 
ATOM     13  C   UNL     1       3.146   4.889   5.123  0.00  0.00    -0.010 C 
ATOM     14  N   UNL     1       2.393   3.332   6.816  0.00  0.00    +0.386 N 
ATOM     15  H   UNL     1       1.865   4.177   7.061  0.00  0.00    -0.084 HD
ATOM     16  H   UNL     1       3.264   3.302   7.360  0.00  0.00    -0.084 HD
ENDBRANCH   1   8
BRANCH   3  17
ATOM     17  C   UNL     1      -1.139  -0.019   2.131  0.00  0.00    +0.090 C 
BRANCH  17  18
ATOM     18  C   UNL     1      -0.759  -1.235   1.283  0.00  0.00    +0.028 C 
ATOM     19  C   UNL     1       0.402  -0.881   0.396  0.00  0.00    +0.200 C 
ATOM     20  O   UNL     1       0.399   0.195  -0.163  0.00  0.00    -0.278 OA
ATOM     21  N   UNL     1       1.437  -1.704   0.198  0.00  0.00    -0.318 N 
ATOM     22  C   UNL     1       1.554  -3.005   0.851  0.00  0.00    +0.085 C 
ATOM     23  C   UNL     1       0.190  -3.450   1.380  0.00  0.00    -0.059 C 
ATOM     24  H   UNL     1       2.143  -1.424  -0.407  0.00  0.00    +0.149 HD
ATOM     25  N   UNL     1      -0.375  -2.343   2.178  0.00  0.00    +0.389 N 
ATOM     26  H   UNL     1       0.336  -2.009   2.839  0.00  0.00    -0.081 HD
BRANCH  25  27
ATOM     27  C   UNL     1      -1.556  -2.814   2.936  0.00  0.00    -0.072 C 
BRANCH  27  28
ATOM     28  C   UNL     1      -2.351  -3.822   2.104  0.00  0.00    -0.052 C 
ATOM     29  C   UNL     1      -1.546  -5.115   1.963  0.00  0.00    +0.009 C 
ATOM     30  C   UNL     1      -3.680  -4.122   2.799  0.00  0.00    +0.009 C 
ATOM     31  C   UNL     1      -2.622  -3.236   0.717  0.00  0.00    +0.009 C 
ENDBRANCH  27  28
ENDBRANCH  25  27
ENDBRANCH  17  18
ENDBRANCH   3  17
TORSDOF 5
