REMARK  Name = ZINC32202586
REMARK  6 active torsions:
REMARK  status: ('A' for Active; 'I' for Inactive)
REMARK    1  A    between atoms: C_6  and  C_7
REMARK    2  A    between atoms: C_7  and  C_9
REMARK    3  A    between atoms: C_7  and  O_12
REMARK    4  A    between atoms: C_9  and  C_10
REMARK    5  A    between atoms: C_10  and  N_11
REMARK    6  A    between atoms: O_12  and  C_13
REMARK                            x       y       z     vdW  Elec       q    Type
REMARK                         _______ _______ _______ _____ _____    ______ ____
ROOT
ATOM      1  C   UNL     1      -0.003   1.081   0.000  0.00  0.00    +0.202 C 
ENDROOT
BRANCH   1   7
ATOM      2  C   UNL     1       1.752   2.785  -0.529  0.00  0.00    +0.008 A 
ATOM      3  C   UNL     1       3.072   3.190  -0.589  0.00  0.00    +0.020 A 
ATOM      4  C   UNL     1       4.079   2.324  -0.201  0.00  0.00    +0.041 A 
ATOM      5  C   UNL     1       3.764   1.055   0.252  0.00  0.00    +0.020 A 
ATOM      6  C   UNL     1       2.443   0.654   0.317  0.00  0.00    +0.008 A 
ATOM      7  C   UNL     1       1.437   1.519  -0.071  0.00  0.00    -0.007 A 
ATOM      8 CL   UNL     1       5.738   2.829  -0.282  0.00  0.00    -0.084 Cl
ENDBRANCH   1   7
BRANCH   1   9
ATOM      9  C   UNL     1      -0.648   1.651   1.265  0.00  0.00    +0.030 C 
BRANCH   9  10
ATOM     10  C   UNL     1      -2.071   1.106   1.402  0.00  0.00    -0.083 C 
BRANCH  10  11
ATOM     11  N   UNL     1      -2.691   1.653   2.616  0.00  0.00    +0.378 N 
ATOM     12  H   UNL     1      -3.714   1.261   2.714  0.00  0.00    -0.090 HD
ATOM     13  H   UNL     1      -2.724   2.751   2.548  0.00  0.00    -0.090 HD
ATOM     14  H   UNL     1      -2.099   1.358   3.495  0.00  0.00    -0.090 HD
ENDBRANCH  10  11
ENDBRANCH   9  10
ENDBRANCH   1   9
BRANCH   1  15
ATOM     15  O   UNL     1      -0.704   1.559  -1.150  0.00  0.00    -0.484 OA
BRANCH  15  16
ATOM     16  C   UNL     1      -1.615   0.720  -1.710  0.00  0.00    +0.125 A 
ATOM     17  C   UNL     1      -1.914  -0.488  -1.099  0.00  0.00    +0.049 A 
ATOM     18  C   UNL     1      -2.840  -1.342  -1.667  0.00  0.00    +0.053 A 
ATOM     19  C   UNL     1      -3.473  -0.994  -2.849  0.00  0.00    +0.166 A 
ATOM     20  C   UNL     1      -3.175   0.219  -3.465  0.00  0.00    +0.170 A 
ATOM     21  C   UNL     1      -2.250   1.076  -2.891  0.00  0.00    +0.095 A 
ATOM     22  O   UNL     1      -3.922   0.326  -4.602  0.00  0.00    -0.452 OA
ATOM     23  C   UNL     1      -4.977  -0.643  -4.462  0.00  0.00    +0.466 C 
ATOM     24  O   UNL     1      -4.407  -1.647  -3.601  0.00  0.00    -0.453 OA
ENDBRANCH  15  16
ENDBRANCH   1  15
TORSDOF 6
