REMARK  Name = ZINC50619405
REMARK  7 active torsions:
REMARK  status: ('A' for Active; 'I' for Inactive)
REMARK    1  A    between atoms: C_1  and  C_2
REMARK    2  A    between atoms: C_2  and  C_3
REMARK    3  A    between atoms: C_3  and  N_4
REMARK    4  A    between atoms: N_4  and  C_5
REMARK    5  A    between atoms: C_5  and  C_7
REMARK    6  A    between atoms: C_5  and  C_8
REMARK    7  A    between atoms: C_11  and  C_13
REMARK                            x       y       z     vdW  Elec       q    Type
REMARK                         _______ _______ _______ _____ _____    ______ ____
ROOT
ATOM      1  C   UNL     1       1.339  -3.943  -2.544  0.00  0.00    +0.204 A 
ATOM      2  N   UNL     1       1.540  -4.772  -1.559  0.00  0.00    -0.114 NA
ATOM      3  N   UNL     1       1.383  -5.980  -1.973  0.00  0.00    -0.107 NA
ATOM      4  C   UNL     1       1.073  -5.963  -3.251  0.00  0.00    +0.255 A 
ATOM      5  O   UNL     1       1.034  -4.670  -3.634  0.00  0.00    -0.421 OA
ENDROOT
BRANCH   4   6
ATOM      6  C   UNL     1       0.812  -7.134  -4.101  0.00  0.00    +0.076 A 
ATOM      7  C   UNL     1       0.825  -8.472  -3.768  0.00  0.00    +0.024 A 
ATOM      8  C   UNL     1       0.545  -9.422  -4.740  0.00  0.00    -0.036 A 
ATOM      9  C   UNL     1       0.269  -8.957  -5.993  0.00  0.00    -0.006 A 
ATOM     10  S   UNL     1       0.386  -7.195  -5.835  0.00  0.00    -0.088 S 
ATOM     11  C   UNL     1      -0.059  -9.761  -7.210  0.00  0.00    +0.043 C 
ATOM     12  C   UNL     1       0.317 -11.225  -6.937  0.00  0.00    +0.005 C 
ATOM     13  C   UNL     1      -0.240 -11.629  -5.569  0.00  0.00    +0.005 C 
ATOM     14  C   UNL     1       0.537 -10.922  -4.458  0.00  0.00    +0.036 C 
ENDBRANCH   4   6
BRANCH   1  15
ATOM     15  C   UNL     1       1.426  -2.440  -2.474  0.00  0.00    +0.015 C 
ATOM     16  C   UNL     1       2.895  -2.016  -2.424  0.00  0.00    -0.004 C 
BRANCH  15  17
ATOM     17  N   UNL     1       0.738  -1.966  -1.265  0.00  0.00    +0.387 N 
ATOM     18  H   UNL     1       1.226  -2.301  -0.447  0.00  0.00    -0.085 HD
ATOM     19  H   UNL     1      -0.208  -2.316  -1.258  0.00  0.00    -0.085 HD
BRANCH  17  20
ATOM     20  C   UNL     1       0.718  -0.497  -1.257  0.00  0.00    -0.082 C 
BRANCH  20  22
ATOM     21  C   UNL     1      -0.019   1.526   0.010  0.00  0.00    +0.002 C 
ATOM     22  C   UNL     1       0.002  -0.004   0.002  0.00  0.00    -0.022 C 
ENDBRANCH  20  22
ENDBRANCH  17  20
ENDBRANCH  15  17
ENDBRANCH   1  15
TORSDOF 5
