REMARK  Name = ZINC06298258
REMARK  9 active torsions:
REMARK  status: ('A' for Active; 'I' for Inactive)
REMARK    1  A    between atoms: C_1  and  O_2
REMARK    2  A    between atoms: O_2  and  C_3
REMARK    3  A    between atoms: C_12  and  C_14
REMARK    4  A    between atoms: N_16  and  C_17
REMARK    5  A    between atoms: C_18  and  C_29
REMARK    6  A    between atoms: C_20  and  C_22
REMARK    7  A    between atoms: C_22  and  C_23
REMARK    8  A    between atoms: C_29  and  O_31
REMARK    9  A    between atoms: O_31  and  C_32
REMARK                            x       y       z     vdW  Elec       q    Type
REMARK                         _______ _______ _______ _____ _____    ______ ____
ROOT
ATOM      1  C   UNL     1      -2.364   2.060   0.026  0.00  0.00    +0.254 C 
ATOM      2  O   UNL     1      -2.526   0.854   0.020  0.00  0.00    -0.270 OA
ATOM      3  N   UNL     1      -1.118   2.573   0.022  0.00  0.00    -0.275 N 
ATOM      4  H   UNL     1      -0.972   3.663   0.026  0.00  0.00    +0.156 HD
ENDROOT
BRANCH   1  14
ATOM      5  C   UNL     1      -6.962   5.392   0.067  0.00  0.00    +0.163 A 
ATOM      6  C   UNL     1      -6.826   6.769   0.072  0.00  0.00    +0.049 A 
ATOM      7  C   UNL     1      -5.569   7.354   0.069  0.00  0.00    +0.004 A 
ATOM      8  C   UNL     1      -4.437   6.571   0.059  0.00  0.00    +0.012 A 
ATOM      9  C   UNL     1      -4.556   5.174   0.053  0.00  0.00    +0.022 A 
ATOM     10  C   UNL     1      -5.829   4.579   0.057  0.00  0.00    +0.179 A 
ATOM     11  O   UNL     1      -5.964   3.235   0.050  0.00  0.00    -0.435 OA
ATOM     12  C   UNL     1      -4.897   2.412   0.035  0.00  0.00    +0.205 A 
ATOM     13  N   UNL     1      -5.078   1.119   0.024  0.00  0.00    -0.369 N 
ATOM     14  C   UNL     1      -3.530   2.958   0.036  0.00  0.00    +0.097 A 
ATOM     15  C   UNL     1      -3.361   4.329   0.042  0.00  0.00    +0.030 A 
ATOM     16  H   UNL     1      -4.211   0.443   0.011  0.00  0.00    +0.159 HD
ATOM     17  H   UNL     1      -6.098   0.706   0.027  0.00  0.00    +0.159 HD
BRANCH   5  19
ATOM     18  C   UNL     1      -9.317   5.724   0.080  0.00  0.00    +0.277 C 
ATOM     19  O   UNL     1      -8.201   4.831   0.070  0.00  0.00    -0.491 OA
ENDBRANCH   5  19
ENDBRANCH   1  14
BRANCH   3  20
ATOM     20  C   UNL     1      -0.021   1.727   0.011  0.00  0.00    +0.086 A 
ATOM     21  C   UNL     1       1.329   2.063   0.001  0.00  0.00    +0.088 A 
ATOM     22  C   UNL     1       2.269   0.967  -0.014  0.00  0.00    +0.028 A 
ATOM     23  C   UNL     1       1.762  -0.278  -0.016  0.00  0.00    -0.003 A 
ATOM     24  S   UNL     1       0.002  -0.004   0.002  0.00  0.00    -0.077 S 
BRANCH  21  25
ATOM     25  C   UNL     1       1.774   3.458   0.003  0.00  0.00    +0.341 C 
ATOM     26  O   UNL     1       0.955   4.357   0.015  0.00  0.00    -0.245 OA
BRANCH  25  27
ATOM     27  O   UNL     1       3.092   3.745  -0.008  0.00  0.00    -0.464 OA
ATOM     28  C   UNL     1       3.460   5.150  -0.004  0.00  0.00    +0.280 C 
ENDBRANCH  25  27
ENDBRANCH  21  25
BRANCH  23  29
ATOM     29  C   UNL     1       2.503  -1.590  -0.030  0.00  0.00    +0.077 C 
BRANCH  29  30
ATOM     30  C   UNL     1       2.764  -2.034   1.386  0.00  0.00    -0.043 A 
ATOM     31  C   UNL     1       3.928  -1.654   2.027  0.00  0.00    +0.004 A 
ATOM     32  C   UNL     1       4.164  -2.058   3.328  0.00  0.00    +0.000 A 
ATOM     33  C   UNL     1       3.242  -2.851   3.984  0.00  0.00    +0.000 A 
ATOM     34  C   UNL     1       2.080  -3.236   3.341  0.00  0.00    +0.000 A 
ATOM     35  C   UNL     1       1.841  -2.828   2.042  0.00  0.00    +0.004 A 
ENDBRANCH  29  30
ENDBRANCH  23  29
ENDBRANCH   3  20
TORSDOF 7
