REMARK  Name = ZINC66401248
REMARK  8 active torsions:
REMARK  status: ('A' for Active; 'I' for Inactive)
REMARK    1  A    between atoms: C_1  and  C_2
REMARK    2  A    between atoms: C_5  and  O_22
REMARK    3  A    between atoms: C_6  and  C_8
REMARK    4  A    between atoms: C_8  and  C_10
REMARK    5  A    between atoms: C_8  and  N_11
REMARK    6  A    between atoms: N_11  and  C_12
REMARK    7  A    between atoms: C_19  and  O_21
REMARK    8  A    between atoms: O_22  and  C_23
REMARK                            x       y       z     vdW  Elec       q    Type
REMARK                         _______ _______ _______ _____ _____    ______ ____
ROOT
ATOM      1  N   UNL     1       0.520  -1.956   3.569  0.00  0.00    +0.388 N 
ATOM      2  H   UNL     1       1.416  -1.567   3.319  0.00  0.00    -0.084 HD
ATOM      3  H   UNL     1      -0.145  -1.210   3.704  0.00  0.00    -0.084 HD
ENDROOT
BRANCH   1   4
ATOM      4  C   UNL     1       0.650  -2.726   4.814  0.00  0.00    -0.019 C 
ATOM      5  C   UNL     1       1.772  -3.789   4.646  0.00  0.00    +0.153 C 
ATOM      6  S   UNL     1       2.147  -4.123   6.423  0.00  0.00    -0.030 S 
ATOM      7  O   UNL     1       1.183  -5.030   6.941  0.00  0.00    -0.174 OA
ATOM      8  O   UNL     1       3.531  -4.414   6.562  0.00  0.00    -0.174 OA
ATOM      9  C   UNL     1       1.811  -2.438   7.084  0.00  0.00    +0.195 C 
ATOM     10  C   UNL     1       0.989  -1.777   5.962  0.00  0.00    +0.123 C 
BRANCH  10  11
ATOM     11  O   UNL     1      -0.229  -1.281   6.521  0.00  0.00    -0.392 OA
ATOM     12  H   UNL     1      -0.103  -0.668   7.258  0.00  0.00    +0.210 HD
ENDBRANCH  10  11
ENDBRANCH   1   4
BRANCH   1  13
ATOM     13  C   UNL     1       0.052  -2.841   2.493  0.00  0.00    -0.040 C 
ATOM     14  C   UNL     1      -1.360  -3.333   2.815  0.00  0.00    -0.009 C 
BRANCH  13  20
ATOM     15  C   UNL     1      -0.018   1.503   0.010  0.00  0.00    +0.044 C 
ATOM     16  C   UNL     1       0.002  -0.004   0.002  0.00  0.00    -0.050 A 
ATOM     17  C   UNL     1       0.006  -0.688  -1.200  0.00  0.00    +0.007 A 
ATOM     18  C   UNL     1       0.024  -2.069  -1.210  0.00  0.00    +0.046 A 
ATOM     19  C   UNL     1       0.039  -2.770  -0.013  0.00  0.00    +0.122 A 
ATOM     20  C   UNL     1       0.036  -2.082   1.191  0.00  0.00    -0.020 A 
ATOM     21  C   UNL     1       0.023  -0.701   1.196  0.00  0.00    +0.009 A 
BRANCH  19  22
ATOM     22  O   UNL     1       0.057  -4.129  -0.021  0.00  0.00    -0.495 OA
ATOM     23  C   UNL     1       0.058  -4.771  -1.298  0.00  0.00    +0.277 C 
ENDBRANCH  19  22
ENDBRANCH  13  20
ENDBRANCH   1  13
TORSDOF 5
