REMARK  Name = ZINC37918135
REMARK  4 active torsions:
REMARK  status: ('A' for Active; 'I' for Inactive)
REMARK    1  A    between atoms: C_1  and  C_2
REMARK    2  A    between atoms: C_2  and  C_4
REMARK    3  A    between atoms: C_2  and  N_10
REMARK    4  A    between atoms: C_14  and  C_17
REMARK                            x       y       z     vdW  Elec       q    Type
REMARK                         _______ _______ _______ _____ _____    ______ ____
ROOT
ATOM      1  N   UNL     1       0.713  -0.491   1.192  0.00  0.00    -0.292 NA
ATOM      2  C   UNL     1       0.063  -0.020   2.422  0.00  0.00    +0.085 C 
ATOM      3  C   UNL     1       0.739  -0.662   3.636  0.00  0.00    +0.016 C 
ATOM      4  C   UNL     1       2.224  -0.286   3.644  0.00  0.00    +0.004 C 
ATOM      5  C   UNL     1       2.866  -0.745   2.332  0.00  0.00    -0.011 C 
ATOM      6  C   UNL     1       2.128  -0.100   1.156  0.00  0.00    +0.087 C 
ENDROOT
BRANCH   5   7
ATOM      7  C   UNL     1       4.336  -0.321   2.308  0.00  0.00    -0.068 C 
ATOM      8  C   UNL     1       5.003  -0.817   1.007  0.00  0.00    -0.017 C 
ATOM      9  C   UNL     1       6.418  -1.241   1.481  0.00  0.00    -0.021 C 
ATOM     10  C   UNL     1       6.118  -1.816   2.888  0.00  0.00    -0.082 C 
ATOM     11  N   UNL     1       5.055  -0.941   3.436  0.00  0.00    +0.381 N 
ATOM     12  H   UNL     1       5.468  -0.222   4.011  0.00  0.00    -0.086 HD
ATOM     13  H   UNL     1       4.413  -1.489   3.988  0.00  0.00    -0.086 HD
ENDBRANCH   5   7
BRANCH   1  15
ATOM     14  C   UNL     1      -0.019   1.526   0.010  0.00  0.00    +0.034 C 
ATOM     15  C   UNL     1       0.002  -0.004   0.002  0.00  0.00    +0.140 C 
BRANCH  15  16
ATOM     16  C   UNL     1      -1.412  -0.526   0.013  0.00  0.00    +0.237 C 
ATOM     17  O   UNL     1      -1.790  -1.233   0.922  0.00  0.00    -0.274 OA
ATOM     18  N   UNL     1      -2.256  -0.206  -0.988  0.00  0.00    -0.239 N 
ATOM     19  C   UNL     1      -3.520  -0.672  -0.979  0.00  0.00    +0.303 C 
ATOM     20  O   UNL     1      -3.899  -1.381  -0.067  0.00  0.00    -0.253 OA
ATOM     21  N   UNL     1      -4.364  -0.353  -1.980  0.00  0.00    -0.313 N 
ATOM     22  H   UNL     1      -1.953   0.360  -1.716  0.00  0.00    +0.159 HD
ATOM     23  H   UNL     1      -4.061   0.213  -2.707  0.00  0.00    +0.146 HD
ATOM     24  H   UNL     1      -5.274  -0.689  -1.973  0.00  0.00    +0.146 HD
ENDBRANCH  15  16
ENDBRANCH   1  15
TORSDOF 3
