REMARK  Name = ZINC13154400
REMARK  9 active torsions:
REMARK  status: ('A' for Active; 'I' for Inactive)
REMARK    1  A    between atoms: C_1  and  C_2
REMARK    2  A    between atoms: C_2  and  C_25
REMARK    3  A    between atoms: N_5  and  O_6
REMARK    4  A    between atoms: C_7  and  C_13
REMARK    5  A    between atoms: C_9  and  C_11
REMARK    6  A    between atoms: C_9  and  C_12
REMARK    7  A    between atoms: C_13  and  C_15
REMARK    8  A    between atoms: C_13  and  O_24
REMARK    9  A    between atoms: C_19  and  N_21
REMARK                            x       y       z     vdW  Elec       q    Type
REMARK                         _______ _______ _______ _____ _____    ______ ____
ROOT
ATOM      1  C   UNL     1      -0.466   1.218   3.947  0.00  0.00    -0.010 C 
ATOM      2  C   UNL     1      -0.299   0.299   2.715  0.00  0.00    -0.068 C 
ATOM      3  C   UNL     1      -1.312  -0.840   2.854  0.00  0.00    +0.041 C 
ATOM      4  C   UNL     1      -0.951  -1.920   1.858  0.00  0.00    +0.061 C 
ATOM      5  N   UNL     1      -1.788  -2.352   0.997  0.00  0.00    -0.096 NA
ATOM      6  C   UNL     1       0.460  -2.461   1.945  0.00  0.00    +0.058 C 
ATOM      7  C   UNL     1       1.438  -1.288   1.845  0.00  0.00    -0.062 C 
ATOM      8  N   UNL     1       1.075  -0.164   2.687  0.00  0.00    +0.387 N 
ATOM      9  C   UNL     1       1.585  -0.871   0.378  0.00  0.00    -0.010 C 
ATOM     10  C   UNL     1       2.820  -1.801   2.311  0.00  0.00    -0.010 C 
ATOM     11  C   UNL     1      -0.641   1.136   1.478  0.00  0.00    -0.010 C 
ATOM     12  H   UNL     1       1.673   0.630   2.431  0.00  0.00    -0.084 HD
ATOM     13  H   UNL     1       1.353  -0.387   3.650  0.00  0.00    -0.084 HD
ENDROOT
BRANCH   5  14
ATOM     14  O   UNL     1      -1.327  -3.001  -0.175  0.00  0.00    -0.409 OA
ATOM     15  H   UNL     1      -2.035  -3.297  -0.764  0.00  0.00    +0.328 HD
ENDBRANCH   5  14
BRANCH   6  16
ATOM     16  C   UNL     1       0.708  -3.441   0.796  0.00  0.00    +0.152 C 
BRANCH  16  17
ATOM     17  C   UNL     1      -0.180  -4.647   0.964  0.00  0.00    -0.016 A 
ATOM     18  C   UNL     1      -0.365  -5.200   2.218  0.00  0.00    +0.006 A 
ATOM     19  C   UNL     1      -1.179  -6.306   2.372  0.00  0.00    +0.003 A 
ATOM     20  C   UNL     1      -1.809  -6.859   1.272  0.00  0.00    +0.033 A 
ATOM     21  C   UNL     1      -1.625  -6.306   0.019  0.00  0.00    +0.127 A 
ATOM     22  C   UNL     1      -0.813  -5.197  -0.134  0.00  0.00    +0.039 A 
BRANCH  21  23
ATOM     23  N   UNL     1      -2.298  -6.899  -1.158  0.00  0.00    +0.056 N 
ATOM     24  O   UNL     1      -3.010  -7.867  -1.023  0.00  0.00    -0.126 OA
ATOM     25  O   UNL     1      -2.137  -6.416  -2.254  0.00  0.00    -0.126 OA
ENDBRANCH  21  23
ENDBRANCH  16  17
BRANCH  16  26
ATOM     26  O   UNL     1       2.077  -3.852   0.807  0.00  0.00    -0.387 OA
ATOM     27  H   UNL     1       2.348  -4.294   1.623  0.00  0.00    +0.210 HD
ENDBRANCH  16  26
ENDBRANCH   6  16
TORSDOF 5
