REMARK  Name = ZINC20275077
REMARK  7 active torsions:
REMARK  status: ('A' for Active; 'I' for Inactive)
REMARK    1  A    between atoms: C_1  and  O_2
REMARK    2  A    between atoms: O_2  and  C_3
REMARK    3  A    between atoms: C_8  and  O_9
REMARK    4  A    between atoms: O_9  and  C_10
REMARK    5  A    between atoms: C_10  and  C_11
REMARK    6  A    between atoms: N_13  and  N_14
REMARK    7  A    between atoms: C_15  and  C_16
REMARK                            x       y       z     vdW  Elec       q    Type
REMARK                         _______ _______ _______ _____ _____    ______ ____
ROOT
ATOM      1  C   UNL     1      -2.545   4.039   0.036  0.00  0.00    +0.270 C 
ATOM      2  O   UNL     1      -3.498   3.289   0.036  0.00  0.00    -0.270 OA
ATOM      3  N   UNL     1      -2.738   5.373   0.044  0.00  0.00    -0.204 N 
ATOM      4  H   UNL     1      -1.874   6.054   0.044  0.00  0.00    +0.177 HD
ENDROOT
BRANCH   3   5
ATOM      5  N   UNL     1      -4.039   5.893   0.053  0.00  0.00    -0.188 NA
ATOM      6  C   UNL     1      -4.225   7.177   0.061  0.00  0.00    +0.142 C 
BRANCH   6   7
ATOM      7  C   UNL     1      -5.594   7.724   0.070  0.00  0.00    +0.043 A 
ATOM      8  C   UNL     1      -5.798   9.106   0.079  0.00  0.00    +0.028 A 
ATOM      9  C   UNL     1      -7.082   9.611   0.088  0.00  0.00    +0.020 A 
ATOM     10  C   UNL     1      -8.170   8.754   0.089  0.00  0.00    +0.034 A 
ATOM     11  C   UNL     1      -7.980   7.384   0.081  0.00  0.00    +0.066 A 
ATOM     12  C   UNL     1      -6.697   6.860   0.065  0.00  0.00    +0.201 A 
ATOM     13  O   UNL     1      -6.510   5.515   0.051  0.00  0.00    -0.286 OA
ATOM     14 BR   UNL     1      -9.474   6.224   0.083  0.00  0.00    -0.046 Br
ATOM     15 BR   UNL     1      -7.357  11.482   0.099  0.00  0.00    -0.050 Br
ENDBRANCH   6   7
ENDBRANCH   3   5
BRANCH   1  16
ATOM     16  C   UNL     1      -1.146   3.481   0.026  0.00  0.00    +0.326 C 
BRANCH  16  17
ATOM     17  O   UNL     1      -1.203   2.053   0.019  0.00  0.00    -0.479 OA
BRANCH  17  23
ATOM     18  C   UNL     1       0.002  -0.004   0.002  0.00  0.00    +0.162 A 
ATOM     19  C   UNL     1       1.213  -0.677  -0.013  0.00  0.00    +0.049 A 
ATOM     20  C   UNL     1       2.399   0.033  -0.021  0.00  0.00    +0.004 A 
ATOM     21  C   UNL     1       2.380   1.415  -0.013  0.00  0.00    +0.004 A 
ATOM     22  C   UNL     1       1.175   2.093   0.002  0.00  0.00    +0.049 A 
ATOM     23  C   UNL     1      -0.017   1.387   0.010  0.00  0.00    +0.163 A 
BRANCH  18  25
ATOM     24  C   UNL     1      -1.069  -2.127   0.000  0.00  0.00    +0.277 C 
ATOM     25  O   UNL     1      -1.165  -0.702   0.009  0.00  0.00    -0.491 OA
ENDBRANCH  18  25
ENDBRANCH  17  23
ENDBRANCH  16  17
ENDBRANCH   1  16
TORSDOF 6
