REMARK  Name = ZINC66892444
REMARK  4 active torsions:
REMARK  status: ('A' for Active; 'I' for Inactive)
REMARK    1  A    between atoms: C_7  and  N_10
REMARK    2  A    between atoms: C_11  and  C_13
REMARK    3  A    between atoms: C_13  and  N_14
REMARK    4  A    between atoms: C_19  and  C_21
REMARK                            x       y       z     vdW  Elec       q    Type
REMARK                         _______ _______ _______ _____ _____    ______ ____
ROOT
ATOM      1  N   UNL     1      -0.493  -4.032  -4.519  0.00  0.00    +0.393 N 
ATOM      2  C   UNL     1       0.887  -3.921  -5.006  0.00  0.00    -0.077 C 
ATOM      3  C   UNL     1       0.915  -4.125  -6.522  0.00  0.00    -0.019 C 
ATOM      4  C   UNL     1       0.365  -5.515  -6.855  0.00  0.00    -0.003 C 
ATOM      5  C   UNL     1      -1.047  -5.646  -6.277  0.00  0.00    -0.006 C 
ATOM      6  C   UNL     1      -1.002  -5.386  -4.770  0.00  0.00    +0.020 C 
ATOM      7  H   UNL     1      -1.073  -3.361  -5.001  0.00  0.00    -0.080 HD
ENDROOT
BRANCH   6   8
ATOM      8  C   UNL     1      -2.390  -5.514  -4.197  0.00  0.00    +0.202 C 
ATOM      9  O   UNL     1      -3.082  -4.527  -4.056  0.00  0.00    -0.277 OA
ATOM     10  N   UNL     1      -2.863  -6.725  -3.842  0.00  0.00    -0.298 N 
ATOM     11  C   UNL     1      -2.005  -7.919  -3.895  0.00  0.00    +0.136 C 
ATOM     12  C   UNL     1      -2.102  -8.645  -2.549  0.00  0.00    +0.179 C 
ATOM     13  O   UNL     1      -3.478  -8.866  -2.231  0.00  0.00    -0.377 OA
ATOM     14  C   UNL     1      -4.240  -7.668  -2.066  0.00  0.00    +0.179 C 
ATOM     15  C   UNL     1      -4.252  -6.891  -3.383  0.00  0.00    +0.136 C 
ENDBRANCH   6   8
BRANCH   1  16
ATOM     16  C   UNL     1      -0.525  -3.758  -3.076  0.00  0.00    +0.020 C 
BRANCH  16  18
ATOM     17  N   UNL     1      -0.133  -1.834  -1.572  0.00  0.00    -0.306 N 
ATOM     18  C   UNL     1      -0.168  -2.315  -2.831  0.00  0.00    +0.197 C 
ATOM     19  O   UNL     1       0.088  -1.586  -3.765  0.00  0.00    -0.278 OA
ATOM     20  H   UNL     1      -0.338  -2.417  -0.824  0.00  0.00    +0.149 HD
BRANCH  17  27
ATOM     21  C   UNL     1      -0.572   1.532   0.016  0.00  0.00    +0.004 C 
ATOM     22  C   UNL     1       0.723   2.322  -0.025  0.00  0.00    +0.019 C 
ATOM     23  C   UNL     1       1.435   2.135  -1.366  0.00  0.00    +0.104 C 
ATOM     24  N   UNL     1       2.276   0.929  -1.288  0.00  0.00    -0.314 N 
ATOM     25  C   UNL     1       1.720  -0.283  -1.275  0.00  0.00    +0.233 C 
ATOM     26  O   UNL     1       2.423  -1.270  -1.215  0.00  0.00    -0.274 OA
ATOM     27  C   UNL     1       0.215  -0.431  -1.333  0.00  0.00    +0.159 C 
ATOM     28  C   UNL     1      -0.371   0.027   0.004  0.00  0.00    +0.032 C 
ATOM     29  H   UNL     1       3.242   1.017  -1.245  0.00  0.00    +0.149 HD
ENDBRANCH  17  27
ENDBRANCH  16  18
ENDBRANCH   1  16
TORSDOF 4
