REMARK  Name = ZINC36914332
REMARK  5 active torsions:
REMARK  status: ('A' for Active; 'I' for Inactive)
REMARK    1  A    between atoms: C_7  and  S_14
REMARK    2  A    between atoms: C_8  and  C_11
REMARK    3  A    between atoms: S_14  and  C_15
REMARK    4  A    between atoms: C_15  and  C_16
REMARK    5  A    between atoms: C_16  and  O_17
REMARK                            x       y       z     vdW  Elec       q    Type
REMARK                         _______ _______ _______ _____ _____    ______ ____
ROOT
ATOM      1  C   UNL     1       0.724   1.643   0.432  0.00  0.00    +0.001 A 
ATOM      2  C   UNL     1       1.994   2.208   0.499  0.00  0.00    +0.002 A 
ATOM      3  C   UNL     1       3.111   1.430   0.446  0.00  0.00    +0.028 A 
ATOM      4  C   UNL     1       2.987   0.036   0.324  0.00  0.00    +0.072 A 
ATOM      5  C   UNL     1       1.694  -0.534   0.256  0.00  0.00    +0.014 A 
ATOM      6  C   UNL     1       0.565   0.294   0.313  0.00  0.00    +0.011 A 
ATOM      7  C   UNL     1       1.567  -1.939   0.133  0.00  0.00    +0.029 A 
ATOM      8  C   UNL     1       2.746  -2.699   0.083  0.00  0.00    +0.044 A 
ATOM      9  C   UNL     1       3.986  -2.048   0.156  0.00  0.00    +0.123 A 
ATOM     10  N   UNL     1       4.074  -0.747   0.271  0.00  0.00    -0.254 NA
ENDROOT
BRANCH   8  11
ATOM     11  C   UNL     1       2.682  -4.166  -0.045  0.00  0.00    +0.097 C 
ATOM     12  N   UNL     1       3.305  -4.775  -1.054  0.00  0.00    -0.387 N 
ATOM     13  N   UNL     1       2.000  -4.884   0.849  0.00  0.00    -0.344 N 
ATOM     14  H   UNL     1       3.326  -5.744  -1.097  0.00  0.00    +0.157 HD
ATOM     15  H   UNL     1       1.546  -4.441   1.583  0.00  0.00    +0.144 HD
ATOM     16  H   UNL     1       1.957  -5.849   0.765  0.00  0.00    +0.144 HD
ATOM     17  H   UNL     1       3.738  -4.250  -1.745  0.00  0.00    +0.157 HD
ENDBRANCH   8  11
BRANCH   7  18
ATOM     18  S   UNL     1      -0.016  -2.707   0.045  0.00  0.00    -0.122 S 
BRANCH  18  19
ATOM     19  C   UNL     1      -0.387  -2.746  -1.731  0.00  0.00    +0.102 C 
BRANCH  19  20
ATOM     20  C   UNL     1      -1.754  -3.397  -1.952  0.00  0.00    +0.167 C 
BRANCH  20  21
ATOM     21  O   UNL     1      -2.046  -3.428  -3.350  0.00  0.00    -0.394 OA
ATOM     22  H   UNL     1      -2.899  -3.828  -3.565  0.00  0.00    +0.209 HD
ENDBRANCH  20  21
ENDBRANCH  19  20
ENDBRANCH  18  19
ENDBRANCH   7  18
TORSDOF 5
