REMARK  Name = ZINC12890117
REMARK  11 active torsions:
REMARK  status: ('A' for Active; 'I' for Inactive)
REMARK    1  A    between atoms: C_1  and  C_2
REMARK    2  A    between atoms: C_2  and  C_3
REMARK    3  A    between atoms: C_3  and  N_4
REMARK    4  A    between atoms: C_5  and  N_28
REMARK    5  A    between atoms: C_6  and  C_13
REMARK    6  A    between atoms: C_13  and  C_15
REMARK    7  A    between atoms: C_15  and  N_50
REMARK    8  A    between atoms: C_16  and  C_17
REMARK    9  A    between atoms: C_16  and  N_50
REMARK   10  A    between atoms: C_22  and  C_23
REMARK   11  A    between atoms: C_22  and  N_50
REMARK                            x       y       z     vdW  Elec       q    Type
REMARK                         _______ _______ _______ _____ _____    ______ ____
ROOT
ATOM      1  C   UNL     1      -0.323  -2.767   2.071  0.00  0.00    +0.155 C 
ATOM      2  O   UNL     1      -0.260  -2.366   3.215  0.00  0.00    -0.294 OA
ENDROOT
BRANCH   1   5
ATOM      3  N   UNL     1      -1.101   0.329   0.227  0.00  0.00    -0.281 N 
ATOM      4  C   UNL     1      -0.786  -0.496   1.269  0.00  0.00    +0.116 A 
ATOM      5  C   UNL     1      -0.647  -1.874   1.027  0.00  0.00    +0.118 A 
ATOM      6  C   UNL     1      -0.849  -2.354  -0.346  0.00  0.00    +0.266 A 
ATOM      7  O   UNL     1      -0.740  -3.536  -0.613  0.00  0.00    -0.267 OA
ATOM      8  N   UNL     1      -1.157  -1.457  -1.305  0.00  0.00    -0.274 N 
ATOM      9  H   UNL     1      -1.294  -1.768  -2.246  0.00  0.00    +0.173 HD
ATOM     10  C   UNL     1      -1.283  -0.152  -1.014  0.00  0.00    +0.331 A 
ATOM     11  O   UNL     1      -1.566   0.623  -1.906  0.00  0.00    -0.246 OA
BRANCH   4  12
ATOM     12  N   UNL     1      -0.611   0.007   2.520  0.00  0.00    -0.344 N 
ATOM     13  H   UNL     1      -0.596   0.967   2.659  0.00  0.00    +0.144 HD
ATOM     14  H   UNL     1      -0.500  -0.593   3.274  0.00  0.00    +0.144 HD
ENDBRANCH   4  12
BRANCH   3  15
ATOM     15  C   UNL     1      -1.250   1.766   0.468  0.00  0.00    +0.128 C 
BRANCH  15  17
ATOM     16  C   UNL     1      -0.053   3.958   0.532  0.00  0.00    +0.005 C 
ATOM     17  C   UNL     1       0.102   2.457   0.279  0.00  0.00    +0.018 C 
ENDBRANCH  15  17
ENDBRANCH   3  15
ENDBRANCH   1   5
BRANCH   1  18
ATOM     18  C   UNL     1      -0.055  -4.218   1.764  0.00  0.00    +0.004 C 
BRANCH  18  19
ATOM     19  N   UNL     1       0.236  -4.926   3.029  0.00  0.00    +0.392 N 
ATOM     20  H   UNL     1      -0.512  -4.726   3.703  0.00  0.00    -0.080 HD
BRANCH  19  21
ATOM     21  C   UNL     1       0.291  -6.384   2.790  0.00  0.00    -0.002 C 
BRANCH  21  22
ATOM     22  C   UNL     1      -1.102  -6.880   2.498  0.00  0.00    +0.089 A 
ATOM     23  C   UNL     1      -1.623  -7.086   1.275  0.00  0.00    +0.042 A 
ATOM     24  C   UNL     1      -2.945  -7.549   1.465  0.00  0.00    +0.041 A 
ATOM     25  C   UNL     1      -3.153  -7.598   2.793  0.00  0.00    +0.195 A 
ATOM     26  O   UNL     1      -2.031  -7.198   3.414  0.00  0.00    -0.470 OA
ENDBRANCH  21  22
ENDBRANCH  19  21
BRANCH  19  27
ATOM     27  C   UNL     1       1.522  -4.457   3.586  0.00  0.00    -0.034 C 
BRANCH  27  28
ATOM     28  C   UNL     1       1.608  -4.883   5.029  0.00  0.00    -0.027 A 
ATOM     29  C   UNL     1       2.216  -5.970   5.564  0.00  0.00    +0.009 A 
ATOM     30  C   UNL     1       2.169  -6.159   6.932  0.00  0.00    +0.008 A 
ATOM     31  C   UNL     1       1.506  -5.258   7.698  0.00  0.00    +0.045 A 
ATOM     32  S   UNL     1       0.928  -4.091   6.477  0.00  0.00    -0.103 S 
ENDBRANCH  27  28
ENDBRANCH  19  27
ENDBRANCH  18  19
ENDBRANCH   1  18
TORSDOF 10
