REMARK  Name = ZINC50928002
REMARK  6 active torsions:
REMARK  status: ('A' for Active; 'I' for Inactive)
REMARK    1  A    between atoms: C_3  and  O_22
REMARK    2  A    between atoms: C_6  and  C_7
REMARK    3  A    between atoms: C_7  and  C_8
REMARK    4  A    between atoms: C_10  and  C_13
REMARK    5  A    between atoms: C_13  and  C_14
REMARK    6  A    between atoms: C_14  and  C_15
REMARK                            x       y       z     vdW  Elec       q    Type
REMARK                         _______ _______ _______ _____ _____    ______ ____
ROOT
ATOM      1  C   UNL     1      -1.739  -1.023  -1.407  0.00  0.00    +0.176 A 
ATOM      2  N   UNL     1      -2.521  -0.213  -2.130  0.00  0.00    -0.196 NA
ATOM      3  C   UNL     1      -2.717  -0.721  -3.316  0.00  0.00    +0.227 A 
ATOM      4  O   UNL     1      -2.058  -1.885  -3.387  0.00  0.00    -0.338 OA
ATOM      5  N   UNL     1      -1.422  -2.059  -2.130  0.00  0.00    -0.061 NA
ENDROOT
BRANCH   1   6
ATOM      6  C   UNL     1      -1.293  -0.774   0.011  0.00  0.00    +0.114 C 
BRANCH   6  12
ATOM      7  C   UNL     1      -0.017   1.378   0.010  0.00  0.00    +0.007 A 
ATOM      8  C   UNL     1       1.169   2.087   0.002  0.00  0.00    +0.045 A 
ATOM      9  C   UNL     1       2.380   1.409  -0.013  0.00  0.00    +0.117 A 
ATOM     10  C   UNL     1       2.396   0.022  -0.021  0.00  0.00    +0.045 A 
ATOM     11  C   UNL     1       1.207  -0.681  -0.013  0.00  0.00    +0.007 A 
ATOM     12  C   UNL     1       0.002  -0.004   0.002  0.00  0.00    -0.040 A 
BRANCH   9  13
ATOM     13  O   UNL     1       3.548   2.104  -0.021  0.00  0.00    -0.507 OA
ATOM     14  H   UNL     1       3.895   2.300   0.860  0.00  0.00    +0.292 HD
ENDBRANCH   9  13
ENDBRANCH   6  12
ENDBRANCH   1   6
BRANCH   3  15
ATOM     15  C   UNL     1      -3.542  -0.104  -4.415  0.00  0.00    +0.097 C 
BRANCH  15  16
ATOM     16  C   UNL     1      -2.653   0.796  -5.276  0.00  0.00    -0.006 C 
BRANCH  16  17
ATOM     17  C   UNL     1      -3.491   1.422  -6.393  0.00  0.00    -0.071 C 
ATOM     18  C   UNL     1      -2.579   2.221  -7.327  0.00  0.00    -0.016 C 
ATOM     19  C   UNL     1      -3.422   2.845  -8.443  0.00  0.00    -0.003 C 
ATOM     20  C   UNL     1      -4.517   3.715  -7.817  0.00  0.00    -0.019 C 
ATOM     21  C   UNL     1      -5.356   2.861  -6.864  0.00  0.00    -0.082 C 
ATOM     22  N   UNL     1      -4.498   2.315  -5.806  0.00  0.00    +0.381 N 
ATOM     23  H   UNL     1      -5.063   1.797  -5.150  0.00  0.00    -0.086 HD
ATOM     24  H   UNL     1      -4.036   3.071  -5.325  0.00  0.00    -0.086 HD
ENDBRANCH  16  17
ENDBRANCH  15  16
ENDBRANCH   3  15
TORSDOF 6
