REMARK  Name = ZINC04974074
REMARK  5 active torsions:
REMARK  status: ('A' for Active; 'I' for Inactive)
REMARK    1  A    between atoms: N_13  and  C1*_14
REMARK    2  A    between atoms: C2*_16  and  O2*_26
REMARK    3  A    between atoms: C3*_18  and  O3*_25
REMARK    4  A    between atoms: C4*_20  and  C5*_23
REMARK    5  A    between atoms: C5*_23  and  O5*_24
REMARK                            x       y       z     vdW  Elec       q    Type
REMARK                         _______ _______ _______ _____ _____    ______ ____
ROOT
ATOM      1  C   UNL     1       0.460   0.647  -1.846  0.00  0.00    +0.003 C 
ATOM      2  C   UNL     1       1.486   1.535  -1.139  0.00  0.00    +0.019 C 
ATOM      3  C   UNL     1       1.649   1.066   0.311  0.00  0.00    +0.107 C 
ATOM      4  N   UNL     1       1.986  -0.364   0.310  0.00  0.00    -0.305 N 
ATOM      5  C   UNL     1       1.113  -1.295  -0.418  0.00  0.00    +0.107 C 
ATOM      6  C   UNL     1       0.957  -0.800  -1.859  0.00  0.00    +0.019 C 
ATOM      7  C   UNL     1       3.097  -0.822   0.978  0.00  0.00    +0.162 C 
ATOM      8  N   UNL     1       4.213  -0.159   1.046  0.00  0.00    -0.348 N 
ATOM      9  C   UNL     1       5.213  -0.970   1.751  0.00  0.00    +0.188 C 
ATOM     10  C   UNL     1       4.573  -2.356   1.832  0.00  0.00    +0.111 C 
ATOM     11  N   UNL     1       3.136  -2.024   1.644  0.00  0.00    -0.271 N 
ATOM     12  C   UNL     1       5.018  -3.284   0.721  0.00  0.00    +0.044 C 
ATOM     13  C   UNL     1       6.517  -3.336   0.528  0.00  0.00    +0.106 C 
ATOM     14  N   UNL     1       7.118  -2.013   0.522  0.00  0.00    -0.314 N 
ATOM     15  C   UNL     1       6.527  -0.966   1.060  0.00  0.00    +0.237 C 
ATOM     16  O   UNL     1       7.134   0.083   1.009  0.00  0.00    -0.273 OA
ATOM     17  H   UNL     1       7.979  -1.897   0.089  0.00  0.00    +0.149 HD
ATOM     18  H   UNL     1       4.361   0.730   0.688  0.00  0.00    +0.163 HD
ENDROOT
BRANCH  11  19
ATOM     19  C1* UNL     1       1.987  -2.821   2.079  0.00  0.00    +0.240 C 
ATOM     20  C2* UNL     1       1.464  -2.311   3.440  0.00  0.00    +0.193 C 
ATOM     21  C3* UNL     1       1.046  -3.597   4.188  0.00  0.00    +0.178 C 
ATOM     22  C4* UNL     1       1.366  -4.732   3.190  0.00  0.00    +0.177 C 
ATOM     23  O4* UNL     1       2.387  -4.187   2.324  0.00  0.00    -0.348 OA
BRANCH  21  24
ATOM     24  O3* UNL     1       1.809  -3.750   5.386  0.00  0.00    -0.386 OA
ATOM     25  H3* UNL     1       1.587  -4.541   5.895  0.00  0.00    +0.210 HD
ENDBRANCH  21  24
BRANCH  20  26
ATOM     26  O2* UNL     1       2.499  -1.629   4.151  0.00  0.00    -0.385 OA
ATOM     27  H2* UNL     1       2.225  -1.288   5.014  0.00  0.00    +0.210 HD
ENDBRANCH  20  26
BRANCH  22  28
ATOM     28  C5* UNL     1       1.894  -5.961   3.933  0.00  0.00    +0.190 C 
BRANCH  28  29
ATOM     29  O5* UNL     1       2.074  -7.035   3.009  0.00  0.00    -0.392 OA
ATOM     30  H5* UNL     1       2.408  -7.849   3.411  0.00  0.00    +0.210 HD
ENDBRANCH  28  29
ENDBRANCH  22  28
ENDBRANCH  11  19
TORSDOF 5
