REMARK  Name = ZINC45510985
REMARK  10 active torsions:
REMARK  status: ('A' for Active; 'I' for Inactive)
REMARK    1  A    between atoms: C_1  and  C_2
REMARK    2  A    between atoms: C_2  and  C_4
REMARK    3  A    between atoms: C_2  and  N_15
REMARK    4  A    between atoms: N_6  and  C_7
REMARK    5  A    between atoms: C_8  and  C_12
REMARK    6  A    between atoms: N_15  and  C_16
REMARK    7  A    between atoms: N_15  and  C_17
REMARK    8  A    between atoms: C_17  and  C_18
REMARK    9  A    between atoms: C_23  and  O_28
REMARK   10  A    between atoms: O_28  and  C_29
REMARK                            x       y       z     vdW  Elec       q    Type
REMARK                         _______ _______ _______ _____ _____    ______ ____
ROOT
ATOM      1  C   UNL     1       0.531   1.375   0.323  0.00  0.00    -0.004 C 
ATOM      2  C   UNL     1       0.148  -0.064  -0.030  0.00  0.00    +0.016 C 
ENDROOT
BRANCH   2   3
ATOM      3  C   UNL     1       0.972  -0.529  -1.202  0.00  0.00    +0.204 C 
ATOM      4  O   UNL     1       2.014  -1.122  -1.014  0.00  0.00    -0.277 OA
ATOM      5  N   UNL     1       0.552  -0.288  -2.460  0.00  0.00    -0.281 N 
ATOM      6  H   UNL     1      -0.281   0.185  -2.610  0.00  0.00    +0.155 HD
BRANCH   5   7
ATOM      7  C   UNL     1       1.311  -0.717  -3.538  0.00  0.00    +0.084 A 
ATOM      8  C   UNL     1       1.040  -0.554  -4.889  0.00  0.00    +0.065 A 
ATOM      9  C   UNL     1       2.007  -1.103  -5.812  0.00  0.00    +0.022 A 
ATOM     10  C   UNL     1       3.068  -1.715  -5.255  0.00  0.00    +0.048 A 
ATOM     11  S   UNL     1       2.769  -1.545  -3.509  0.00  0.00    -0.081 S 
BRANCH   8  12
ATOM     12  C   UNL     1      -0.164   0.139  -5.356  0.00  0.00    +0.244 C 
ATOM     13  O   UNL     1      -0.958   0.589  -4.551  0.00  0.00    -0.270 OA
ATOM     14  N   UNL     1      -0.393   0.277  -6.678  0.00  0.00    -0.325 N 
ATOM     15  H   UNL     1       0.240  -0.082  -7.319  0.00  0.00    +0.145 HD
ATOM     16  H   UNL     1      -1.190   0.736  -6.987  0.00  0.00    +0.145 HD
ENDBRANCH   8  12
ENDBRANCH   5   7
ENDBRANCH   2   3
BRANCH   2  17
ATOM     17  N   UNL     1       0.402  -0.935   1.125  0.00  0.00    +0.388 N 
ATOM     18  C   UNL     1      -0.374  -0.460   2.278  0.00  0.00    -0.095 C 
ATOM     19  H   UNL     1       1.386  -0.916   1.351  0.00  0.00    -0.081 HD
BRANCH  17  20
ATOM     20  C   UNL     1       0.002  -2.310   0.798  0.00  0.00    -0.042 C 
BRANCH  20  21
ATOM     21  C   UNL     1       0.396  -3.230   1.925  0.00  0.00    -0.063 A 
ATOM     22  C   UNL     1       1.653  -3.831   1.913  0.00  0.00    +0.002 A 
ATOM     23  C   UNL     1       2.040  -4.666   2.916  0.00  0.00    +0.009 A 
ATOM     24  C   UNL     1       1.161  -4.928   3.981  0.00  0.00    -0.014 A 
ATOM     25  C   UNL     1       1.526  -5.784   5.033  0.00  0.00    +0.054 A 
ATOM     26  C   UNL     1       0.646  -6.014   6.052  0.00  0.00    +0.121 A 
ATOM     27  C   UNL     1      -0.615  -5.410   6.062  0.00  0.00    +0.046 A 
ATOM     28  C   UNL     1      -0.998  -4.577   5.058  0.00  0.00    +0.012 A 
ATOM     29  C   UNL     1      -0.117  -4.316   3.994  0.00  0.00    -0.017 A 
ATOM     30  C   UNL     1      -0.479  -3.455   2.943  0.00  0.00    +0.010 A 
BRANCH  26  31
ATOM     31  O   UNL     1       1.001  -6.843   7.069  0.00  0.00    -0.495 OA
ATOM     32  C   UNL     1       0.039  -7.045   8.106  0.00  0.00    +0.277 C 
ENDBRANCH  26  31
ENDBRANCH  20  21
ENDBRANCH  17  20
ENDBRANCH   2  17
TORSDOF 7
