REMARK  Name = ZINC51157103
REMARK  5 active torsions:
REMARK  status: ('A' for Active; 'I' for Inactive)
REMARK    1  A    between atoms: C_1  and  C_2
REMARK    2  A    between atoms: C_5  and  S_9
REMARK    3  A    between atoms: C_7  and  C_8
REMARK    4  A    between atoms: S_9  and  N_12
REMARK    5  A    between atoms: N_12  and  C_13
REMARK                            x       y       z     vdW  Elec       q    Type
REMARK                         _______ _______ _______ _____ _____    ______ ____
ROOT
ATOM      1  S   UNL     1       0.063  -4.530  -0.023  0.00  0.00    +0.059 S 
ATOM      2  O   UNL     1      -0.476  -4.950   1.223  0.00  0.00    -0.153 OA
ATOM      3  O   UNL     1      -0.490  -4.937  -1.267  0.00  0.00    -0.153 OA
ENDROOT
BRANCH   1   8
ATOM      4  C   UNL     1      -0.018   1.503   0.010  0.00  0.00    +0.044 C 
ATOM      5  C   UNL     1       0.002  -0.004   0.002  0.00  0.00    -0.047 A 
ATOM      6  C   UNL     1       0.006  -0.689  -1.199  0.00  0.00    +0.005 A 
ATOM      7  C   UNL     1       0.025  -2.071  -1.207  0.00  0.00    +0.029 A 
ATOM      8  C   UNL     1       0.040  -2.768  -0.013  0.00  0.00    +0.106 A 
ATOM      9  C   UNL     1       0.037  -2.084   1.188  0.00  0.00    +0.032 A 
ATOM     10  C   UNL     1       0.023  -0.702   1.195  0.00  0.00    -0.046 A 
ATOM     11  C   UNL     1       0.025   0.045   2.504  0.00  0.00    +0.044 C 
ENDBRANCH   1   8
BRANCH   1  12
ATOM     12  N   UNL     1       1.651  -4.999  -0.034  0.00  0.00    -0.178 NA
ATOM     13  H   UNL     1       2.011  -5.473  -0.800  0.00  0.00    +0.149 HD
BRANCH  12  14
ATOM     14  C   UNL     1       2.512  -4.699   1.113  0.00  0.00    +0.162 C 
ATOM     15  C   UNL     1       3.505  -5.845   1.317  0.00  0.00    +0.031 C 
ATOM     16  C   UNL     1       4.563  -5.395   2.331  0.00  0.00    +0.021 C 
ATOM     17  C   UNL     1       5.404  -4.283   1.701  0.00  0.00    +0.104 C 
ATOM     18  N   UNL     1       4.544  -3.245   1.147  0.00  0.00    -0.314 N 
ATOM     19  C   UNL     1       3.255  -3.420   0.856  0.00  0.00    +0.232 C 
ATOM     20  O   UNL     1       2.651  -2.494   0.359  0.00  0.00    -0.274 OA
ATOM     21  H   UNL     1       4.934  -2.373   0.979  0.00  0.00    +0.149 HD
ENDBRANCH  12  14
ENDBRANCH   1  12
TORSDOF 3
