REMARK  Name = ZINC67041999
REMARK  7 active torsions:
REMARK  status: ('A' for Active; 'I' for Inactive)
REMARK    1  A    between atoms: C_1  and  C_2
REMARK    2  A    between atoms: C_6  and  C_7
REMARK    3  A    between atoms: N_9  and  N_10
REMARK    4  A    between atoms: N_13  and  C_14
REMARK    5  A    between atoms: C_14  and  C_15
REMARK    6  A    between atoms: C_15  and  C_17
REMARK    7  A    between atoms: C_15  and  N_18
REMARK                            x       y       z     vdW  Elec       q    Type
REMARK                         _______ _______ _______ _____ _____    ______ ____
ROOT
ATOM      1  N   UNL     1       0.486  -0.759   4.889  0.00  0.00    -0.218 N 
ATOM      2  C   UNL     1       0.334  -1.639   5.899  0.00  0.00    +0.316 C 
ATOM      3  O   UNL     1       0.225  -1.240   7.042  0.00  0.00    -0.251 OA
ATOM      4  N   UNL     1       0.303  -2.962   5.641  0.00  0.00    -0.300 N 
ATOM      5  H   UNL     1       0.508   0.192   5.075  0.00  0.00    +0.174 HD
ATOM      6  H   UNL     1       0.390  -3.280   4.729  0.00  0.00    +0.150 HD
ENDROOT
BRANCH   1   9
ATOM      7  C   UNL     1       0.763  -0.340   2.562  0.00  0.00    +0.267 C 
ATOM      8  O   UNL     1       0.790   0.855   2.795  0.00  0.00    -0.268 OA
ATOM      9  N   UNL     1       0.611  -1.220   3.572  0.00  0.00    -0.229 N 
ATOM     10  H   UNL     1       0.589  -2.171   3.386  0.00  0.00    +0.173 HD
BRANCH   7  16
ATOM     11  C   UNL     1       1.124   1.413   0.013  0.00  0.00    +0.045 C 
ATOM     12  C   UNL     1       1.056  -0.092   0.016  0.00  0.00    -0.031 A 
ATOM     13  C   UNL     1       1.157  -0.831  -1.139  0.00  0.00    +0.011 A 
ATOM     14  C   UNL     1       1.088  -2.183  -1.065  0.00  0.00    +0.046 A 
ATOM     15  S   UNL     1       0.885  -2.495   0.573  0.00  0.00    -0.092 S 
ATOM     16  C   UNL     1       0.894  -0.821   1.184  0.00  0.00    +0.078 A 
ENDBRANCH   7  16
ENDBRANCH   1   9
BRANCH   4  17
ATOM     17  C   UNL     1       0.139  -3.918   6.738  0.00  0.00    +0.090 C 
BRANCH  17  18
ATOM     18  C   UNL     1       0.007  -5.332   6.168  0.00  0.00    -0.054 C 
ATOM     19  C   UNL     1      -0.261  -6.319   7.306  0.00  0.00    -0.012 C 
BRANCH  18  20
ATOM     20  N   UNL     1      -1.107  -5.372   5.211  0.00  0.00    +0.385 N 
ATOM     21  C   UNL     1      -2.375  -5.152   5.924  0.00  0.00    -0.073 C 
ATOM     22  C   UNL     1      -3.475  -4.892   4.894  0.00  0.00    +0.017 C 
ATOM     23  C   UNL     1      -3.458  -5.974   3.845  0.00  0.00    -0.048 A 
ATOM     24  C   UNL     1      -4.566  -6.125   3.027  0.00  0.00    +0.004 A 
ATOM     25  C   UNL     1      -4.585  -7.104   2.053  0.00  0.00    +0.000 A 
ATOM     26  C   UNL     1      -3.493  -7.936   1.893  0.00  0.00    +0.000 A 
ATOM     27  C   UNL     1      -2.389  -7.787   2.708  0.00  0.00    +0.002 A 
ATOM     28  C   UNL     1      -2.369  -6.806   3.688  0.00  0.00    -0.061 A 
ATOM     29  C   UNL     1      -1.147  -6.684   4.560  0.00  0.00    -0.042 C 
ATOM     30  H   UNL     1      -0.981  -4.653   4.515  0.00  0.00    -0.081 HD
ENDBRANCH  18  20
ENDBRANCH  17  18
ENDBRANCH   4  17
TORSDOF 5
