REMARK  Name = ZINC08923103
REMARK  7 active torsions:
REMARK  status: ('A' for Active; 'I' for Inactive)
REMARK    1  A    between atoms: C_1  and  C_2
REMARK    2  A    between atoms: C_5  and  C_9
REMARK    3  A    between atoms: C_12  and  C_14
REMARK    4  A    between atoms: C_25  and  C_26
REMARK    5  A    between atoms: C_25  and  C_27
REMARK    6  A    between atoms: C_25  and  N_54
REMARK    7  A    between atoms: C_28  and  O_30
REMARK                            x       y       z     vdW  Elec       q    Type
REMARK                         _______ _______ _______ _____ _____    ______ ____
ROOT
ATOM      1  C   UNL     1      -0.082   6.375  -0.534  0.00  0.00    +0.260 C 
ATOM      2  N   UNL     1      -1.018   5.382   0.027  0.00  0.00    -0.311 N 
ATOM      3  C   UNL     1      -0.591   4.077   0.025  0.00  0.00    +0.080 A 
ATOM      4  C   UNL     1       0.768   3.733   0.015  0.00  0.00    +0.067 A 
ATOM      5  C   UNL     1       1.060   2.313   0.004  0.00  0.00    -0.027 A 
ATOM      6  C   UNL     1      -0.018   1.492   0.010  0.00  0.00    -0.021 A 
ATOM      7  S   UNL     1      -1.418   2.579   0.022  0.00  0.00    -0.080 S 
ATOM      8  C   UNL     1       0.002  -0.004   0.002  0.00  0.00    -0.035 C 
ATOM      9  C   UNL     1       2.373   0.256   0.426  0.00  0.00    -0.073 C 
ATOM     10  C   UNL     1       2.465   1.721  -0.010  0.00  0.00    +0.018 C 
ATOM     11  C   UNL     1       1.750   4.848   0.022  0.00  0.00    +0.220 C 
ATOM     12  N   UNL     1       1.301   6.053  -0.207  0.00  0.00    -0.220 NA
ATOM     13  H   UNL     1      -1.886   5.637   0.378  0.00  0.00    +0.149 HD
ATOM     14  N   UNL     1       1.363  -0.438  -0.399  0.00  0.00    +0.384 N 
ATOM     15  H   UNL     1       1.513  -0.197  -1.385  0.00  0.00    -0.081 HD
ENDROOT
BRANCH   1  19
ATOM     16  C   UNL     1      -1.142   6.270  -4.028  0.00  0.00    +0.135 A 
ATOM     17  C   UNL     1       0.160   6.618  -4.202  0.00  0.00    +0.050 A 
ATOM     18  C   UNL     1       0.731   6.709  -2.917  0.00  0.00    +0.049 A 
ATOM     19  C   UNL     1      -0.239   6.407  -2.032  0.00  0.00    +0.148 A 
ATOM     20  O   UNL     1      -1.370   6.146  -2.707  0.00  0.00    -0.456 OA
BRANCH  16  25
ATOM     21  C   UNL     1      -5.010   5.471  -8.214  0.00  0.00    +0.045 C 
ATOM     22  C   UNL     1      -3.998   5.680  -7.118  0.00  0.00    -0.032 A 
ATOM     23  C   UNL     1      -2.699   6.034  -7.438  0.00  0.00    +0.005 A 
ATOM     24  C   UNL     1      -1.768   6.231  -6.439  0.00  0.00    +0.012 A 
ATOM     25  C   UNL     1      -2.136   6.064  -5.103  0.00  0.00    +0.019 A 
ATOM     26  C   UNL     1      -3.447   5.708  -4.786  0.00  0.00    +0.031 A 
ATOM     27  C   UNL     1      -4.371   5.518  -5.795  0.00  0.00    +0.045 A 
ATOM     28 CL   UNL     1      -6.003   5.075  -5.403  0.00  0.00    -0.083 Cl
ENDBRANCH  16  25
ENDBRANCH   1  19
BRANCH  14  29
ATOM     29  C   UNL     1       1.495  -1.902  -0.236  0.00  0.00    -0.074 C 
ATOM     30  C   UNL     1       1.259  -2.301   1.222  0.00  0.00    -0.014 C 
ATOM     31  C   UNL     1       0.465  -2.597  -1.129  0.00  0.00    -0.014 C 
ENDBRANCH  14  29
BRANCH  11  32
ATOM     32  O   UNL     1       3.063   4.623   0.259  0.00  0.00    -0.492 OA
ATOM     33  H   UNL     1       3.608   5.422   0.239  0.00  0.00    +0.294 HD
ENDBRANCH  11  32
TORSDOF 4
