REMARK  Name = ZINC16430150
REMARK  5 active torsions:
REMARK  status: ('A' for Active; 'I' for Inactive)
REMARK    1  A    between atoms: C_3  and  C_6
REMARK    2  A    between atoms: N_8  and  C_9
REMARK    3  A    between atoms: C_9  and  N_11
REMARK    4  A    between atoms: N_11  and  C_12
REMARK    5  A    between atoms: C_17  and  C_18
REMARK                            x       y       z     vdW  Elec       q    Type
REMARK                         _______ _______ _______ _____ _____    ______ ____
ROOT
ATOM      1  N   UNL     1       3.708   3.077   0.169  0.00  0.00    -0.296 N 
ATOM      2  H   UNL     1       3.720   2.110   0.091  0.00  0.00    +0.154 HD
ENDROOT
BRANCH   1   3
ATOM      3  C   UNL     1       2.503   3.767   0.086  0.00  0.00    +0.047 A 
ATOM      4  C   UNL     1       2.408   4.918  -0.686  0.00  0.00    +0.025 A 
ATOM      5  C   UNL     1       1.212   5.601  -0.766  0.00  0.00    +0.016 A 
ATOM      6  C   UNL     1       0.097   5.146  -0.079  0.00  0.00    +0.014 A 
ATOM      7  C   UNL     1       0.170   4.003   0.688  0.00  0.00    +0.031 A 
ATOM      8  C   UNL     1       1.376   3.304   0.783  0.00  0.00    +0.085 A 
ATOM      9  I   UNL     1      -1.710   6.197  -0.214  0.00  0.00    -0.044 I 
BRANCH   8  10
ATOM     10  C   UNL     1       1.463   2.084   1.606  0.00  0.00    +0.388 C 
ATOM     11  O   UNL     1       2.534   1.535   1.767  0.00  0.00    -0.241 OA
ATOM     12  O   UNL     1       0.353   1.578   2.179  0.00  0.00    -0.241 OA
ENDBRANCH   8  10
ENDBRANCH   1   3
BRANCH   1  13
ATOM     13  C   UNL     1       4.860   3.752   0.356  0.00  0.00    +0.141 C 
ATOM     14  S   UNL     1       4.827   5.442   0.627  0.00  0.00    -0.018 S 
BRANCH  13  17
ATOM     15  C   UNL     1       7.189   3.772   0.518  0.00  0.00    +0.285 C 
ATOM     16  O   UNL     1       7.165   4.973   0.710  0.00  0.00    -0.266 OA
ATOM     17  N   UNL     1       6.037   3.097   0.331  0.00  0.00    -0.261 N 
ATOM     18  H   UNL     1       6.056   2.139   0.177  0.00  0.00    +0.157 HD
BRANCH  15  21
ATOM     19  C   UNL     1      10.636   2.576   0.561  0.00  0.00    +0.042 A 
ATOM     20  C   UNL     1       9.703   3.618   0.665  0.00  0.00    +0.054 A 
ATOM     21  C   UNL     1       8.469   3.059   0.490  0.00  0.00    +0.189 A 
ATOM     22  O   UNL     1       8.635   1.735   0.294  0.00  0.00    -0.458 OA
ATOM     23  C   UNL     1       9.941   1.440   0.330  0.00  0.00    +0.196 A 
ENDBRANCH  15  21
ENDBRANCH  13  17
ENDBRANCH   1  13
TORSDOF 5
