REMARK  Name = ZINC48362966
REMARK  6 active torsions:
REMARK  status: ('A' for Active; 'I' for Inactive)
REMARK    1  A    between atoms: C_1  and  N_2
REMARK    2  A    between atoms: C_6  and  C_7
REMARK    3  A    between atoms: C_7  and  N_8
REMARK    4  A    between atoms: N_8  and  C_9
REMARK    5  A    between atoms: C_12  and  C_14
REMARK    6  A    between atoms: C_14  and  C_15
REMARK                            x       y       z     vdW  Elec       q    Type
REMARK                         _______ _______ _______ _____ _____    ______ ____
ROOT
ATOM      1  N   UNL     1       1.433  -0.082   2.943  0.00  0.00    -0.291 N 
ATOM      2  C   UNL     1       2.154  -1.042   3.556  0.00  0.00    +0.218 C 
ATOM      3  O   UNL     1       3.228  -0.771   4.049  0.00  0.00    -0.276 OA
ENDROOT
BRANCH   1   4
ATOM      4  C   UNL     1       1.993   1.261   2.777  0.00  0.00    +0.077 C 
ATOM      5  C   UNL     1       2.639   1.914   4.001  0.00  0.00    +0.024 C 
ATOM      6  C   UNL     1       1.286   2.415   3.491  0.00  0.00    +0.024 C 
ENDBRANCH   1   4
BRANCH   1   7
ATOM      7  C   UNL     1       0.089  -0.382   2.443  0.00  0.00    +0.180 C 
BRANCH   7  13
ATOM      8  C   UNL     1       0.199   1.377  -0.105  0.00  0.00    +0.150 C 
ATOM      9  N   UNL     1       0.227  -0.087  -0.080  0.00  0.00    -0.338 N 
ATOM     10  C   UNL     1       0.310  -0.917  -1.165  0.00  0.00    +0.104 A 
ATOM     11  C   UNL     1       0.307  -2.178  -0.692  0.00  0.00    +0.101 A 
ATOM     12  N   UNL     1       0.224  -2.120   0.645  0.00  0.00    -0.348 N 
ATOM     13  C   UNL     1       0.180  -0.870   1.020  0.00  0.00    +0.104 A 
ATOM     14  H   UNL     1       0.203  -2.885   1.241  0.00  0.00    +0.166 HD
ENDBRANCH   7  13
ENDBRANCH   1   7
BRANCH   2  15
ATOM     15  C   UNL     1       1.625  -2.451   3.628  0.00  0.00    +0.120 C 
BRANCH  15  16
ATOM     16  C   UNL     1       2.572  -3.309   4.470  0.00  0.00    +0.146 C 
ATOM     17  C   UNL     1       1.991  -4.688   4.639  0.00  0.00    +0.231 C 
ATOM     18  O   UNL     1       1.398  -4.943   5.666  0.00  0.00    -0.274 OA
ATOM     19  N   UNL     1       2.095  -5.640   3.717  0.00  0.00    -0.284 N 
ATOM     20  C   UNL     1       2.830  -5.576   2.537  0.00  0.00    +0.047 A 
ATOM     21  C   UNL     1       2.570  -6.495   1.525  0.00  0.00    +0.024 A 
ATOM     22  C   UNL     1       3.278  -6.446   0.341  0.00  0.00    +0.002 A 
ATOM     23  C   UNL     1       4.252  -5.484   0.145  0.00  0.00    +0.001 A 
ATOM     24  C   UNL     1       4.524  -4.567   1.144  0.00  0.00    +0.016 A 
ATOM     25  C   UNL     1       3.819  -4.614   2.335  0.00  0.00    +0.030 A 
ATOM     26  S   UNL     1       4.177  -3.454   3.626  0.00  0.00    -0.110 S 
ATOM     27  H   UNL     1       1.610  -6.463   3.884  0.00  0.00    +0.155 HD
ENDBRANCH  15  16
ENDBRANCH   2  15
TORSDOF 5
