REMARK  Name = ZINC53205702
REMARK  6 active torsions:
REMARK  status: ('A' for Active; 'I' for Inactive)
REMARK    1  A    between atoms: C_1  and  N_2
REMARK    2  A    between atoms: C_6  and  N_9
REMARK    3  A    between atoms: N_9  and  C_10
REMARK    4  A    between atoms: N_9  and  S_11
REMARK    5  A    between atoms: S_11  and  C_14
REMARK    6  A    between atoms: C_15  and  N_22
REMARK                            x       y       z     vdW  Elec       q    Type
REMARK                         _______ _______ _______ _____ _____    ______ ____
ROOT
ATOM      1  S   UNL     1       3.282  -3.724   2.136  0.00  0.00    +0.064 S 
ATOM      2  O   UNL     1       3.482  -4.433   3.351  0.00  0.00    -0.153 OA
ATOM      3  O   UNL     1       3.410  -4.342   0.863  0.00  0.00    -0.153 OA
ENDROOT
BRANCH   1   4
ATOM      4  C   UNL     1       4.407  -2.368   2.153  0.00  0.00    +0.144 A 
ATOM      5  C   UNL     1       4.752  -1.736   0.965  0.00  0.00    +0.054 A 
ATOM      6  C   UNL     1       5.639  -0.668   0.982  0.00  0.00    +0.044 A 
ATOM      7  C   UNL     1       6.177  -0.236   2.181  0.00  0.00    +0.044 A 
ATOM      8  C   UNL     1       5.831  -0.867   3.362  0.00  0.00    +0.042 A 
ATOM      9  C   UNL     1       4.943  -1.929   3.349  0.00  0.00    +0.070 A 
ATOM     10 CL   UNL     1       4.507  -2.714   4.835  0.00  0.00    -0.081 Cl
ATOM     11 CL   UNL     1       7.286   1.099   2.203  0.00  0.00    -0.083 Cl
BRANCH   5  12
ATOM     12  N   UNL     1       4.209  -2.175  -0.244  0.00  0.00    -0.356 N 
ATOM     13  H   UNL     1       3.430  -2.754  -0.244  0.00  0.00    +0.142 HD
ATOM     14  H   UNL     1       4.609  -1.900  -1.084  0.00  0.00    +0.142 HD
ENDBRANCH   5  12
ENDBRANCH   1   4
BRANCH   1  15
ATOM     15  N   UNL     1       1.753  -3.091   2.203  0.00  0.00    -0.178 NA
ATOM     16  C   UNL     1       1.113  -2.858   3.500  0.00  0.00    +0.132 C 
BRANCH  15  22
ATOM     17  C   UNL     1      -0.274   0.500  -0.337  0.00  0.00    -0.096 C 
ATOM     18  N   UNL     1      -0.017  -0.946  -0.290  0.00  0.00    +0.379 N 
ATOM     19  C   UNL     1      -1.294  -1.670  -0.334  0.00  0.00    -0.079 C 
ATOM     20  C   UNL     1      -1.029  -3.176  -0.367  0.00  0.00    -0.017 C 
ATOM     21  C   UNL     1      -0.254  -3.581   0.891  0.00  0.00    +0.017 C 
ATOM     22  C   UNL     1       1.040  -2.765   0.965  0.00  0.00    +0.063 C 
ATOM     23  C   UNL     1       0.699  -1.274   0.949  0.00  0.00    -0.058 C 
ATOM     24  H   UNL     1       0.546  -1.213  -1.083  0.00  0.00    -0.082 HD
ENDBRANCH  15  22
ENDBRANCH   1  15
TORSDOF 4
