REMARK  Name = ZINC54352854
REMARK  8 active torsions:
REMARK  status: ('A' for Active; 'I' for Inactive)
REMARK    1  A    between atoms: C_1  and  C_2
REMARK    2  A    between atoms: C_5  and  O_9
REMARK    3  A    between atoms: O_9  and  C_10
REMARK    4  A    between atoms: C_13  and  C_16
REMARK    5  A    between atoms: C_16  and  N_17
REMARK    6  A    between atoms: N_17  and  C_18
REMARK    7  A    between atoms: C_18  and  C_19
REMARK    8  A    between atoms: C_18  and  C_20
REMARK                            x       y       z     vdW  Elec       q    Type
REMARK                         _______ _______ _______ _____ _____    ______ ____
ROOT
ATOM      1  C   UNL     1      -0.043  -4.761  -1.220  0.00  0.00    +0.240 A 
ATOM      2  C   UNL     1      -0.139  -6.150  -1.272  0.00  0.00    +0.071 A 
ATOM      3  C   UNL     1      -0.241  -6.747  -2.519  0.00  0.00    +0.028 A 
ATOM      4  C   UNL     1      -0.241  -5.925  -3.637  0.00  0.00    +0.047 A 
ATOM      5  N   UNL     1      -0.146  -4.618  -3.494  0.00  0.00    -0.153 NA
ATOM      6  N   UNL     1      -0.057  -4.060  -2.342  0.00  0.00    -0.111 NA
ENDROOT
BRANCH   1   7
ATOM      7  O   UNL     1       0.059  -4.130  -0.023  0.00  0.00    -0.435 OA
BRANCH   7  12
ATOM      8  C   UNL     1       0.175   1.502  -0.005  0.00  0.00    +0.044 C 
ATOM      9  C   UNL     1       0.144  -0.004  -0.010  0.00  0.00    -0.049 A 
ATOM     10  C   UNL     1       1.327  -0.720  -0.012  0.00  0.00    +0.007 A 
ATOM     11  C   UNL     1       1.302  -2.101  -0.016  0.00  0.00    +0.048 A 
ATOM     12  C   UNL     1       0.087  -2.771  -0.018  0.00  0.00    +0.149 A 
ATOM     13  C   UNL     1      -1.100  -2.051  -0.017  0.00  0.00    +0.083 A 
ATOM     14  C   UNL     1      -1.069  -0.669  -0.007  0.00  0.00    +0.027 A 
ATOM     15 CL   UNL     1      -2.623  -2.885  -0.019  0.00  0.00    -0.080 Cl
ENDBRANCH   7  12
ENDBRANCH   1   7
BRANCH   4  16
ATOM     16  C   UNL     1      -0.349  -6.526  -5.015  0.00  0.00    -0.024 C 
BRANCH  16  17
ATOM     17  N   UNL     1      -1.754  -6.519  -5.444  0.00  0.00    +0.384 N 
ATOM     18  H   UNL     1      -2.307  -7.061  -4.796  0.00  0.00    -0.085 HD
ATOM     19  H   UNL     1      -2.095  -5.569  -5.463  0.00  0.00    -0.085 HD
BRANCH  17  20
ATOM     20  C   UNL     1      -1.860  -7.105  -6.786  0.00  0.00    -0.078 C 
ATOM     21  C   UNL     1      -3.334  -7.212  -7.182  0.00  0.00    -0.014 C 
ATOM     22  C   UNL     1      -1.126  -6.215  -7.791  0.00  0.00    -0.014 C 
ENDBRANCH  17  20
ENDBRANCH  16  17
ENDBRANCH   4  16
TORSDOF 5
