REMARK  Name = ZINC44625619
REMARK  6 active torsions:
REMARK  status: ('A' for Active; 'I' for Inactive)
REMARK    1  A    between atoms: C_1  and  C_2
REMARK    2  A    between atoms: C_2  and  C_3
REMARK    3  A    between atoms: C_3  and  C_5
REMARK    4  A    between atoms: C_3  and  N_19
REMARK    5  A    between atoms: C_11  and  C_15
REMARK    6  A    between atoms: N_19  and  C_20
REMARK                            x       y       z     vdW  Elec       q    Type
REMARK                         _______ _______ _______ _____ _____    ______ ____
ROOT
ATOM      1  C   UNL     1      -1.405  -1.801  -0.182  0.00  0.00    +0.124 A 
ATOM      2  N   UNL     1      -0.893  -2.671   0.650  0.00  0.00    -0.135 NA
ATOM      3  N   UNL     1      -0.953  -3.856   0.151  0.00  0.00    -0.128 NA
ATOM      4  C   UNL     1      -1.516  -3.802  -1.045  0.00  0.00    +0.180 A 
ATOM      5  N   UNL     1      -1.822  -2.484  -1.282  0.00  0.00    -0.286 N 
ATOM      6  C   UNL     1      -2.424  -2.112  -2.449  0.00  0.00    +0.106 A 
ATOM      7  C   UNL     1      -2.730  -3.034  -3.386  0.00  0.00    +0.073 A 
ATOM      8  C   UNL     1      -2.433  -4.391  -3.172  0.00  0.00    +0.037 A 
ATOM      9  C   UNL     1      -1.825  -4.775  -2.016  0.00  0.00    +0.086 A 
ATOM     10 CL   UNL     1      -1.452  -6.447  -1.734  0.00  0.00    -0.080 Cl
ENDROOT
BRANCH   7  11
ATOM     11  C   UNL     1      -3.395  -2.606  -4.668  0.00  0.00    +0.419 C 
ATOM     12  F   UNL     1      -2.423  -2.411  -5.655  0.00  0.00    -0.166 F 
ATOM     13  F   UNL     1      -4.289  -3.598  -5.084  0.00  0.00    -0.166 F 
ATOM     14  F   UNL     1      -4.090  -1.410  -4.457  0.00  0.00    -0.166 F 
ENDBRANCH   7  11
BRANCH   1  15
ATOM     15  C   UNL     1      -1.517  -0.315   0.041  0.00  0.00    -0.003 C 
BRANCH  15  16
ATOM     16  N   UNL     1      -2.006  -0.059   1.402  0.00  0.00    +0.384 N 
ATOM     17  C   UNL     1      -3.378  -0.568   1.533  0.00  0.00    -0.099 C 
ATOM     18  H   UNL     1      -1.409  -0.527   2.067  0.00  0.00    -0.085 HD
ATOM     19  H   UNL     1      -1.998   0.933   1.581  0.00  0.00    -0.085 HD
ENDBRANCH  15  16
BRANCH  15  21
ATOM     20  C   UNL     1      -0.280   1.854  -0.042  0.00  0.00    +0.002 C 
ATOM     21  C   UNL     1      -0.143   0.333  -0.138  0.00  0.00    -0.012 C 
ENDBRANCH  15  21
ENDBRANCH   1  15
TORSDOF 4
