REMARK  Name = ZINC64430508
REMARK  4 active torsions:
REMARK  status: ('A' for Active; 'I' for Inactive)
REMARK    1  A    between atoms: C_6  and  C_7
REMARK    2  A    between atoms: C_7  and  O_8
REMARK    3  A    between atoms: O_8  and  N_9
REMARK    4  A    between atoms: C_10  and  C_11
REMARK                            x       y       z     vdW  Elec       q    Type
REMARK                         _______ _______ _______ _____ _____    ______ ____
ROOT
ATOM      1  N   UNL     1      -3.130  -1.469  -1.477  0.00  0.00    -0.069 NA
ATOM      2  C   UNL     1      -3.404  -2.041  -2.612  0.00  0.00    +0.163 C 
ATOM      3  N   UNL     1      -4.265  -3.124  -2.651  0.00  0.00    -0.340 N 
ATOM      4  H   UNL     1      -4.663  -3.457  -1.831  0.00  0.00    +0.144 HD
ATOM      5  H   UNL     1      -4.470  -3.551  -3.497  0.00  0.00    +0.144 HD
ENDROOT
BRANCH   2   6
ATOM      6  C   UNL     1      -2.795  -1.533  -3.864  0.00  0.00    +0.022 A 
ATOM      7  C   UNL     1      -1.595  -0.812  -3.838  0.00  0.00    +0.029 A 
ATOM      8  C   UNL     1      -1.059  -0.356  -5.024  0.00  0.00    +0.085 A 
ATOM      9  N   UNL     1      -1.660  -0.590  -6.175  0.00  0.00    -0.350 N 
ATOM     10  C   UNL     1      -2.796  -1.268  -6.248  0.00  0.00    +0.099 A 
ATOM     11  C   UNL     1      -3.399  -1.766  -5.099  0.00  0.00    +0.053 A 
ATOM     12  N   UNL     1      -3.388  -1.486  -7.487  0.00  0.00    -0.317 N 
ATOM     13  C   UNL     1      -2.702  -1.091  -8.724  0.00  0.00    +0.106 C 
ATOM     14  C   UNL     1      -2.630  -2.304  -9.657  0.00  0.00    +0.019 C 
ATOM     15  C   UNL     1      -4.039  -2.863  -9.870  0.00  0.00    +0.003 C 
ATOM     16  C   UNL     1      -4.617  -3.319  -8.528  0.00  0.00    +0.019 C 
ATOM     17  C   UNL     1      -4.708  -2.123  -7.583  0.00  0.00    +0.106 C 
ATOM     18  H   UNL     1      -1.258  -0.256  -6.992  0.00  0.00    +0.166 HD
ENDBRANCH   2   6
BRANCH   1  19
ATOM     19  O   UNL     1      -2.368  -0.275  -1.452  0.00  0.00    -0.388 OA
BRANCH  19  20
ATOM     20  C   UNL     1      -2.143   0.243  -0.139  0.00  0.00    +0.298 C 
BRANCH  20  26
ATOM     21  C   UNL     1      -1.960   2.730  -0.354  0.00  0.00    +0.010 A 
ATOM     22  C   UNL     1      -1.213   3.889  -0.439  0.00  0.00    +0.039 A 
ATOM     23  C   UNL     1       0.170   3.826  -0.400  0.00  0.00    +0.123 A 
ATOM     24  C   UNL     1       0.802   2.600  -0.276  0.00  0.00    +0.039 A 
ATOM     25  C   UNL     1       0.053   1.442  -0.192  0.00  0.00    +0.010 A 
ATOM     26  C   UNL     1      -1.327   1.507  -0.231  0.00  0.00    -0.008 A 
ATOM     27  F   UNL     1       0.901   4.959  -0.482  0.00  0.00    -0.205 F 
ENDBRANCH  20  26
ENDBRANCH  19  20
ENDBRANCH   1  19
TORSDOF 4
