REMARK  Name = ZINC40635837
REMARK  6 active torsions:
REMARK  status: ('A' for Active; 'I' for Inactive)
REMARK    1  A    between atoms: C_1  and  O_2
REMARK    2  A    between atoms: O_2  and  C_3
REMARK    3  A    between atoms: C_3  and  C_4
REMARK    4  A    between atoms: C_12  and  C_14
REMARK    5  A    between atoms: C_17  and  O_21
REMARK    6  A    between atoms: O_21  and  C_22
REMARK                            x       y       z     vdW  Elec       q    Type
REMARK                         _______ _______ _______ _____ _____    ______ ____
ROOT
ATOM      1  C   UNL     1       0.614  -2.074  -1.042  0.00  0.00    +0.241 C 
ATOM      2  O   UNL     1       0.082  -2.608  -0.092  0.00  0.00    -0.273 OA
ATOM      3  N   UNL     1       1.170  -2.825  -2.014  0.00  0.00    -0.297 N 
ATOM      4  C   UNL     1       1.823  -2.191  -3.168  0.00  0.00    +0.127 C 
ATOM      5  C   UNL     1       3.258  -2.722  -3.271  0.00  0.00    +0.126 C 
ATOM      6  N   UNL     1       3.223  -4.189  -3.195  0.00  0.00    -0.300 N 
ATOM      7  C   UNL     1       2.571  -4.822  -2.040  0.00  0.00    +0.126 C 
ATOM      8  C   UNL     1       1.140  -4.292  -1.934  0.00  0.00    +0.127 C 
ATOM      9  C   UNL     1       3.780  -4.940  -4.165  0.00  0.00    +0.202 C 
ATOM     10  O   UNL     1       4.315  -4.406  -5.114  0.00  0.00    -0.277 OA
ENDROOT
BRANCH   9  11
ATOM     11  C   UNL     1       3.736  -6.444  -4.073  0.00  0.00    +0.019 C 
ATOM     12  C   UNL     1       4.843  -6.943  -3.126  0.00  0.00    +0.023 C 
ATOM     13  C   UNL     1       5.724  -7.875  -3.990  0.00  0.00    +0.100 C 
ATOM     14  C   UNL     1       4.771  -8.281  -5.143  0.00  0.00    -0.050 C 
ATOM     15  N   UNL     1       3.996  -7.038  -5.402  0.00  0.00    +0.388 N 
ATOM     16  H   UNL     1       3.124  -7.257  -5.862  0.00  0.00    -0.085 HD
ATOM     17  H   UNL     1       4.538  -6.402  -5.968  0.00  0.00    -0.085 HD
BRANCH  13  18
ATOM     18  O   UNL     1       6.135  -9.020  -3.241  0.00  0.00    -0.382 OA
ATOM     19  C   UNL     1       7.401  -9.551  -3.639  0.00  0.00    +0.194 C 
ENDBRANCH  13  18
ENDBRANCH   9  11
BRANCH   1  20
ATOM     20  C   UNL     1       0.652  -0.570  -1.138  0.00  0.00    +0.255 C 
BRANCH  20  22
ATOM     21  C   UNL     1      -0.017   1.425   0.010  0.00  0.00    +0.194 C 
ATOM     22  O   UNL     1       0.002  -0.004   0.002  0.00  0.00    -0.374 OA
ENDBRANCH  20  22
ENDBRANCH   1  20
TORSDOF 4
