REMARK  Name = ZINC22735285
REMARK  10 active torsions:
REMARK  status: ('A' for Active; 'I' for Inactive)
REMARK    1  A    between atoms: C_1  and  C_2
REMARK    2  A    between atoms: C_5  and  N_9
REMARK    3  A    between atoms: C_7  and  C_8
REMARK    4  A    between atoms: C_10  and  C_12
REMARK    5  A    between atoms: N_14  and  C_15
REMARK    6  A    between atoms: C_15  and  C_16
REMARK    7  A    between atoms: C_16  and  C_18
REMARK    8  A    between atoms: C_16  and  N_29
REMARK    9  A    between atoms: N_27  and  C_28
REMARK   10  A    between atoms: N_32  and  C_35
REMARK                            x       y       z     vdW  Elec       q    Type
REMARK                         _______ _______ _______ _____ _____    ______ ____
ROOT
ATOM      1  C   UNL     1       2.496  -0.952   4.776  0.00  0.00    +0.104 C 
ENDROOT
BRANCH   1   2
ATOM      2  C   UNL     1       1.906  -0.115   3.671  0.00  0.00    -0.028 A 
ATOM      3  C   UNL     1       0.915  -0.637   2.859  0.00  0.00    +0.007 A 
ATOM      4  C   UNL     1       0.380   0.129   1.846  0.00  0.00    +0.024 A 
ATOM      5  C   UNL     1       0.832   1.432   1.632  0.00  0.00    +0.033 A 
ATOM      6  C   UNL     1       1.819   1.952   2.450  0.00  0.00    -0.026 A 
ATOM      7  C   UNL     1       2.355   1.175   3.465  0.00  0.00    +0.010 A 
ATOM      8  C   UNL     1       2.338   3.358   2.283  0.00  0.00    +0.038 C 
ATOM      9  C   UNL     1       1.921   3.901   0.914  0.00  0.00    +0.024 C 
ATOM     10  C   UNL     1       0.429   3.601   0.722  0.00  0.00    +0.105 C 
ATOM     11  N   UNL     1       0.256   2.153   0.587  0.00  0.00    -0.333 N 
ATOM     12  C   UNL     1      -1.162   1.805   0.426  0.00  0.00    +0.129 C 
ENDBRANCH   1   2
BRANCH   1  13
ATOM     13  N   UNL     1       1.429  -1.723   5.429  0.00  0.00    -0.297 NA
ATOM     14  C   UNL     1       0.391  -0.834   5.969  0.00  0.00    +0.066 C 
ATOM     15  C   UNL     1      -0.737  -1.676   6.568  0.00  0.00    -0.064 C 
ATOM     16  N   UNL     1      -0.192  -2.544   7.621  0.00  0.00    +0.379 N 
ATOM     17  C   UNL     1       0.846  -3.433   7.081  0.00  0.00    -0.064 C 
ATOM     18  C   UNL     1       1.975  -2.591   6.481  0.00  0.00    +0.066 C 
ATOM     19  C   UNL     1      -1.258  -3.315   8.273  0.00  0.00    -0.096 C 
ATOM     20  H   UNL     1       0.275  -1.902   8.383  0.00  0.00    -0.082 HD
ENDBRANCH   1  13
BRANCH   1  21
ATOM     21  C   UNL     1       3.534  -1.912   4.192  0.00  0.00    +0.128 C 
BRANCH  21  24
ATOM     22  C   UNL     1       5.716  -1.781   3.116  0.00  0.00    +0.299 C 
ATOM     23  O   UNL     1       5.770  -2.994   3.144  0.00  0.00    -0.265 OA
ATOM     24  N   UNL     1       4.640  -1.143   3.615  0.00  0.00    -0.306 N 
ATOM     25  H   UNL     1       4.591  -0.044   3.589  0.00  0.00    +0.149 HD
BRANCH  22  27
ATOM     26  N   UNL     1       7.921  -1.636   2.030  0.00  0.00    -0.278 N 
ATOM     27  C   UNL     1       6.844  -0.998   2.529  0.00  0.00    +0.303 C 
ATOM     28  O   UNL     1       6.790   0.215   2.500  0.00  0.00    -0.265 OA
ATOM     29  H   UNL     1       7.937  -2.735   1.986  0.00  0.00    +0.155 HD
BRANCH  26  34
ATOM     30  C   UNL     1      12.367   1.342   0.153  0.00  0.00    +0.044 C 
ATOM     31  C   UNL     1      11.186   0.551   0.652  0.00  0.00    -0.047 A 
ATOM     32  C   UNL     1       9.904   1.037   0.471  0.00  0.00    +0.005 A 
ATOM     33  C   UNL     1       8.819   0.312   0.922  0.00  0.00    +0.023 A 
ATOM     34  C   UNL     1       9.016  -0.902   1.568  0.00  0.00    +0.034 A 
ATOM     35  C   UNL     1      10.305  -1.388   1.748  0.00  0.00    +0.027 A 
ATOM     36  C   UNL     1      11.386  -0.660   1.289  0.00  0.00    -0.046 A 
ATOM     37  C   UNL     1      12.785  -1.186   1.484  0.00  0.00    +0.044 C 
ENDBRANCH  26  34
ENDBRANCH  22  27
ENDBRANCH  21  24
ENDBRANCH   1  21
TORSDOF 6
