REMARK  Name = ZINC61594828
REMARK  10 active torsions:
REMARK  status: ('A' for Active; 'I' for Inactive)
REMARK    1  A    between atoms: C_1  and  C_2
REMARK    2  A    between atoms: C_2  and  C_3
REMARK    3  A    between atoms: C_3  and  N_4
REMARK    4  A    between atoms: C_10  and  S_11
REMARK    5  A    between atoms: S_11  and  C_12
REMARK    6  A    between atoms: C_12  and  C_14
REMARK    7  A    between atoms: C_12  and  C_20
REMARK    8  A    between atoms: C_20  and  C_22
REMARK    9  A    between atoms: C_20  and  N_24
REMARK   10  A    between atoms: C_22  and  C_23
REMARK                            x       y       z     vdW  Elec       q    Type
REMARK                         _______ _______ _______ _____ _____    ______ ____
ROOT
ATOM      1  C   UNL     1      -2.632  -3.798  -3.184  0.00  0.00    +0.076 C 
ENDROOT
BRANCH   1   2
ATOM      2  C   UNL     1      -3.764  -3.552  -4.148  0.00  0.00    +0.003 A 
ATOM      3  C   UNL     1      -3.957  -4.068  -5.386  0.00  0.00    +0.014 A 
ATOM      4  C   UNL     1      -5.081  -3.696  -6.100  0.00  0.00    +0.028 A 
ATOM      5  C   UNL     1      -5.957  -2.825  -5.539  0.00  0.00    +0.078 A 
ATOM      6  S   UNL     1      -5.201  -2.511  -3.953  0.00  0.00    -0.081 S 
ATOM      7 CL   UNL     1      -7.434  -2.187  -6.191  0.00  0.00    -0.076 Cl
ENDBRANCH   1   2
BRANCH   1   8
ATOM      8  S   UNL     1      -1.798  -2.230  -2.817  0.00  0.00    -0.079 S 
BRANCH   8  15
ATOM      9  N   UNL     1      -0.347  -0.621  -4.588  0.00  0.00    -0.271 N 
ATOM     10  C   UNL     1       0.110  -0.656  -5.856  0.00  0.00    +0.345 A 
ATOM     11  O   UNL     1       0.755   0.215  -6.413  0.00  0.00    -0.245 OA
ATOM     12  N   UNL     1      -0.277  -1.830  -6.396  0.00  0.00    -0.226 N 
ATOM     13  H   UNL     1      -0.092  -2.136  -7.297  0.00  0.00    +0.194 HD
ATOM     14  N   UNL     1      -0.993  -2.528  -5.413  0.00  0.00    -0.145 NA
ATOM     15  C   UNL     1      -1.022  -1.794  -4.338  0.00  0.00    +0.193 A 
BRANCH   9  16
ATOM     16  C   UNL     1      -0.154   0.477  -3.637  0.00  0.00    +0.129 C 
BRANCH  16  18
ATOM     17  C   UNL     1       1.343   1.396  -1.860  0.00  0.00    +0.005 C 
ATOM     18  C   UNL     1       1.141   0.250  -2.853  0.00  0.00    +0.018 C 
ENDBRANCH  16  18
ENDBRANCH   9  16
ENDBRANCH   8  15
ENDBRANCH   1   8
BRANCH   1  19
ATOM     19  C   UNL     1      -3.187  -4.396  -1.889  0.00  0.00    -0.057 C 
BRANCH  19  20
ATOM     20  N   UNL     1      -3.928  -5.626  -2.196  0.00  0.00    +0.381 N 
ATOM     21  H   UNL     1      -3.310  -6.291  -2.635  0.00  0.00    -0.090 HD
ATOM     22  H   UNL     1      -4.294  -6.020  -1.342  0.00  0.00    -0.090 HD
ATOM     23  H   UNL     1      -4.691  -5.412  -2.821  0.00  0.00    -0.090 HD
ENDBRANCH  19  20
BRANCH  19  24
ATOM     24  C   UNL     1      -2.031  -4.720  -0.941  0.00  0.00    -0.018 C 
ATOM     25  C   UNL     1      -2.590  -5.192   0.403  0.00  0.00    +0.002 C 
ENDBRANCH  19  24
ENDBRANCH   1  19
TORSDOF 8
