REMARK  Name = ZINC64788300
REMARK  6 active torsions:
REMARK  status: ('A' for Active; 'I' for Inactive)
REMARK    1  A    between atoms: C_1  and  N_2
REMARK    2  A    between atoms: N_7  and  C_10
REMARK    3  A    between atoms: C_14  and  C_17
REMARK    4  A    between atoms: C_20  and  N_23
REMARK    5  A    between atoms: N_23  and  C_24
REMARK    6  A    between atoms: N_23  and  C_25
REMARK                            x       y       z     vdW  Elec       q    Type
REMARK                         _______ _______ _______ _____ _____    ______ ____
ROOT
ATOM      1  C   UNL     1      -0.018   1.461   0.010  0.00  0.00    +0.143 C 
ATOM      2  N   UNL     1       0.002  -0.004   0.002  0.00  0.00    -0.224 N 
ATOM      3  C   UNL     1      -1.166  -0.679   0.004  0.00  0.00    +0.260 C 
ATOM      4  C   UNL     1      -1.119  -2.152  -0.005  0.00  0.00    +0.117 C 
ATOM      5  C   UNL     1       0.213  -2.781  -0.015  0.00  0.00    +0.260 C 
ATOM      6  O   UNL     1       0.333  -3.992  -0.023  0.00  0.00    -0.269 OA
ATOM      7  N   UNL     1       1.298  -1.978  -0.016  0.00  0.00    -0.224 N 
ATOM      8  C   UNL     1       1.180  -0.643  -0.013  0.00  0.00    +0.317 C 
ATOM      9  O   UNL     1       2.196   0.024  -0.018  0.00  0.00    -0.252 OA
ATOM     10  C   UNL     1       2.633  -2.579  -0.026  0.00  0.00    +0.143 C 
ATOM     11  C   UNL     1      -2.275  -2.910  -0.003  0.00  0.00    +0.038 C 
ATOM     12  N   UNL     1      -3.534  -2.435   0.001  0.00  0.00    -0.283 N 
ATOM     13  N   UNL     1      -4.475  -3.421  -0.033  0.00  0.00    -0.235 NA
ATOM     14  C   UNL     1      -3.824  -4.684   0.386  0.00  0.00    +0.108 C 
ATOM     15  C   UNL     1      -2.348  -4.427  -0.011  0.00  0.00    +0.077 C 
ATOM     16  O   UNL     1      -2.229  -0.088   0.013  0.00  0.00    -0.269 OA
ATOM     17  H   UNL     1      -5.254  -3.199   0.569  0.00  0.00    +0.145 HD
ATOM     18  H   UNL     1      -3.750  -1.490   0.025  0.00  0.00    +0.166 HD
ENDROOT
BRANCH  14  19
ATOM     19  C   UNL     1      -4.386  -5.858  -0.374  0.00  0.00    -0.028 A 
ATOM     20  C   UNL     1      -4.693  -5.728  -1.716  0.00  0.00    +0.007 A 
ATOM     21  C   UNL     1      -5.209  -6.802  -2.415  0.00  0.00    +0.023 A 
ATOM     22  C   UNL     1      -5.418  -8.013  -1.769  0.00  0.00    +0.029 A 
ATOM     23  C   UNL     1      -5.109  -8.140  -0.421  0.00  0.00    +0.023 A 
ATOM     24  C   UNL     1      -4.588  -7.064   0.271  0.00  0.00    +0.007 A 
BRANCH  22  25
ATOM     25  N   UNL     1      -5.940  -9.101  -2.473  0.00  0.00    -0.336 N 
ATOM     26  C   UNL     1      -6.266  -8.965  -3.895  0.00  0.00    +0.129 C 
ATOM     27  C   UNL     1      -6.160 -10.378  -1.790  0.00  0.00    +0.129 C 
ENDBRANCH  22  25
ENDBRANCH  14  19
TORSDOF 2
