REMARK  Name = ZINC62744731
REMARK  13 active torsions:
REMARK  status: ('A' for Active; 'I' for Inactive)
REMARK    1  A    between atoms: C_1  and  C_2
REMARK    2  A    between atoms: C_2  and  C_4
REMARK    3  A    between atoms: C_2  and  N_12
REMARK    4  A    between atoms: C_9  and  O_10
REMARK    5  A    between atoms: N_12  and  C_13
REMARK    6  A    between atoms: C_13  and  C_14
REMARK    7  A    between atoms: C_14  and  N_15
REMARK    8  A    between atoms: N_15  and  C_16
REMARK    9  A    between atoms: N_15  and  C_19
REMARK   10  A    between atoms: C_16  and  C_17
REMARK   11  A    between atoms: C_16  and  C_18
REMARK   12  A    between atoms: C_19  and  C_20
REMARK   13  A    between atoms: C_19  and  C_21
REMARK                            x       y       z     vdW  Elec       q    Type
REMARK                         _______ _______ _______ _____ _____    ______ ____
ROOT
ATOM      1  N   UNL     1       0.848  -0.988   0.494  0.00  0.00    +0.382 N 
ATOM      2  H   UNL     1       0.277  -0.504   1.171  0.00  0.00    -0.085 HD
ATOM      3  H   UNL     1       0.779  -1.983   0.646  0.00  0.00    -0.085 HD
ENDROOT
BRANCH   1   5
ATOM      4  C   UNL     1       0.366   0.852  -1.049  0.00  0.00    -0.009 C 
ATOM      5  C   UNL     1       0.380  -0.666  -0.861  0.00  0.00    -0.041 C 
BRANCH   5   6
ATOM      6  C   UNL     1      -1.013  -1.209  -1.054  0.00  0.00    -0.020 A 
ATOM      7  C   UNL     1      -1.834  -1.407   0.039  0.00  0.00    +0.008 A 
ATOM      8  C   UNL     1      -3.112  -1.904  -0.136  0.00  0.00    +0.039 A 
ATOM      9  C   UNL     1      -3.572  -2.205  -1.407  0.00  0.00    +0.127 A 
ATOM     10  C   UNL     1      -2.752  -2.008  -2.504  0.00  0.00    +0.084 A 
ATOM     11  C   UNL     1      -1.472  -1.504  -2.329  0.00  0.00    +0.121 A 
ATOM     12  F   UNL     1      -4.821  -2.692  -1.576  0.00  0.00    -0.205 F 
BRANCH  11  13
ATOM     13  O   UNL     1      -0.666  -1.305  -3.405  0.00  0.00    -0.506 OA
ATOM     14  H   UNL     1      -0.123  -2.071  -3.637  0.00  0.00    +0.292 HD
ENDBRANCH  11  13
ENDBRANCH   5   6
ENDBRANCH   1   5
BRANCH   1  15
ATOM     15  C   UNL     1       2.247  -0.566   0.642  0.00  0.00    -0.101 C 
BRANCH  15  16
ATOM     16  C   UNL     1       2.734  -0.900   2.053  0.00  0.00    -0.098 C 
BRANCH  16  17
ATOM     17  N   UNL     1       4.170  -0.610   2.157  0.00  0.00    +0.382 N 
ATOM     18  H   UNL     1       4.666  -1.098   1.427  0.00  0.00    -0.081 HD
BRANCH  17  19
ATOM     19  C   UNL     1       4.388   0.836   2.016  0.00  0.00    -0.075 C 
ATOM     20  C   UNL     1       4.184   1.518   3.370  0.00  0.00    -0.014 C 
ATOM     21  C   UNL     1       5.816   1.091   1.526  0.00  0.00    -0.014 C 
ENDBRANCH  17  19
BRANCH  17  22
ATOM     22  C   UNL     1       4.666  -1.054   3.467  0.00  0.00    -0.075 C 
ATOM     23  C   UNL     1       4.309  -2.527   3.674  0.00  0.00    -0.014 C 
ATOM     24  C   UNL     1       6.186  -0.884   3.521  0.00  0.00    -0.014 C 
ENDBRANCH  17  22
ENDBRANCH  16  17
ENDBRANCH  15  16
ENDBRANCH   1  15
TORSDOF 8
