REMARK  Name = ZINC20693789
REMARK  7 active torsions:
REMARK  status: ('A' for Active; 'I' for Inactive)
REMARK    1  A    between atoms: C_1  and  O_2
REMARK    2  A    between atoms: O_2  and  C_3
REMARK    3  A    between atoms: C_7  and  C_10
REMARK    4  A    between atoms: C_8  and  O_9
REMARK    5  A    between atoms: C_21  and  S_26
REMARK    6  A    between atoms: S_26  and  N_29
REMARK    7  A    between atoms: N_29  and  C_30
REMARK                            x       y       z     vdW  Elec       q    Type
REMARK                         _______ _______ _______ _____ _____    ______ ____
ROOT
ATOM      1  C   UNL     1       4.166  -2.038   5.013  0.00  0.00    +0.109 C 
ATOM      2  C   UNL     1       4.650  -2.702   3.737  0.00  0.00    +0.029 C 
ATOM      3  C   UNL     1       4.302  -2.010   2.412  0.00  0.00    +0.033 C 
ATOM      4  C   UNL     1       4.233  -3.200   1.452  0.00  0.00    -0.030 C 
ATOM      5  C   UNL     1       3.935  -4.307   2.122  0.00  0.00    -0.023 C 
ATOM      6  C   UNL     1       3.767  -3.975   3.570  0.00  0.00    +0.049 C 
ATOM      7  C   UNL     1       4.117  -4.915   4.658  0.00  0.00    -0.018 A 
ATOM      8  C   UNL     1       4.120  -6.281   4.482  0.00  0.00    +0.034 A 
ATOM      9  C   UNL     1       4.442  -7.119   5.534  0.00  0.00    +0.109 A 
ATOM     10  C   UNL     1       4.760  -6.585   6.770  0.00  0.00    +0.030 A 
ATOM     11  C   UNL     1       4.765  -5.218   6.954  0.00  0.00    +0.025 A 
ATOM     12  C   UNL     1       4.450  -4.367   5.902  0.00  0.00    +0.031 A 
ATOM     13  N   UNL     1       4.493  -2.981   6.105  0.00  0.00    -0.336 N 
ATOM     14  H   UNL     1       4.745  -2.634   6.975  0.00  0.00    +0.147 HD
ENDROOT
BRANCH   1  19
ATOM     15  C   UNL     1       5.058   1.637   4.841  0.00  0.00    +0.162 A 
ATOM     16  C   UNL     1       6.207   1.673   5.613  0.00  0.00    +0.049 A 
ATOM     17  C   UNL     1       6.691   0.513   6.188  0.00  0.00    +0.004 A 
ATOM     18  C   UNL     1       6.031  -0.686   5.994  0.00  0.00    +0.009 A 
ATOM     19  C   UNL     1       4.883  -0.729   5.223  0.00  0.00    +0.018 A 
ATOM     20  C   UNL     1       4.390   0.431   4.650  0.00  0.00    +0.163 A 
BRANCH  15  22
ATOM     21  C   UNL     1       5.318   3.978   4.514  0.00  0.00    +0.277 C 
ATOM     22  O   UNL     1       4.580   2.778   4.275  0.00  0.00    -0.491 OA
ENDBRANCH  15  22
BRANCH  20  23
ATOM     23  O   UNL     1       3.258   0.391   3.897  0.00  0.00    -0.503 OA
ATOM     24  H   UNL     1       3.416   0.225   2.958  0.00  0.00    +0.292 HD
ENDBRANCH  20  23
ENDBRANCH   1  19
BRANCH   9  25
ATOM     25  S   UNL     1       4.446  -8.865   5.301  0.00  0.00    +0.072 S 
ATOM     26  O   UNL     1       4.123  -9.444   6.558  0.00  0.00    -0.150 OA
ATOM     27  O   UNL     1       3.686  -9.120   4.127  0.00  0.00    -0.150 OA
BRANCH  25  28
ATOM     28  N   UNL     1       6.004  -9.310   4.961  0.00  0.00    -0.216 N 
ATOM     29  H   UNL     1       6.480  -9.906   5.561  0.00  0.00    +0.174 HD
BRANCH  28  30
ATOM     30  C   UNL     1       6.634  -8.827   3.812  0.00  0.00    +0.048 A 
ATOM     31  C   UNL     1       6.299  -9.342   2.566  0.00  0.00    +0.024 A 
ATOM     32  C   UNL     1       6.924  -8.862   1.432  0.00  0.00    +0.002 A 
ATOM     33  C   UNL     1       7.881  -7.870   1.535  0.00  0.00    +0.000 A 
ATOM     34  C   UNL     1       8.217  -7.355   2.774  0.00  0.00    +0.002 A 
ATOM     35  C   UNL     1       7.592  -7.827   3.912  0.00  0.00    +0.024 A 
ENDBRANCH  28  30
ENDBRANCH  25  28
ENDBRANCH   9  25
TORSDOF 6
