REMARK  Name = ZINC21917911
REMARK  10 active torsions:
REMARK  status: ('A' for Active; 'I' for Inactive)
REMARK    1  A    between atoms: C_1  and  O_2
REMARK    2  A    between atoms: O_2  and  C_3
REMARK    3  A    between atoms: C_6  and  C_9
REMARK    4  A    between atoms: C_9  and  C_11
REMARK    5  A    between atoms: C_9  and  N_28
REMARK    6  A    between atoms: C_11  and  N_12
REMARK    7  A    between atoms: C_13  and  C_15
REMARK    8  A    between atoms: C_15  and  C_16
REMARK    9  A    between atoms: C_16  and  C_17
REMARK   10  A    between atoms: C_17  and  N_18
REMARK                            x       y       z     vdW  Elec       q    Type
REMARK                         _______ _______ _______ _____ _____    ______ ____
ROOT
ATOM      1  C   UNL     1       8.037  -0.208  -4.444  0.00  0.00    +0.093 C 
ENDROOT
BRANCH   1   2
ATOM      2  N   UNL     1       7.644  -0.246  -3.033  0.00  0.00    -0.317 N 
ATOM      3  C   UNL     1       6.463  -0.790  -2.677  0.00  0.00    +0.213 C 
ATOM      4  O   UNL     1       5.726  -1.248  -3.525  0.00  0.00    -0.276 OA
ATOM      5  H   UNL     1       8.312   0.169  -2.264  0.00  0.00    +0.149 HD
BRANCH   3   6
ATOM      6  C   UNL     1       6.058  -0.829  -1.226  0.00  0.00    +0.097 C 
BRANCH   6   7
ATOM      7  C   UNL     1       4.686  -1.493  -1.097  0.00  0.00    +0.031 C 
BRANCH   7   8
ATOM      8  C   UNL     1       4.275  -1.533   0.376  0.00  0.00    +0.129 C 
BRANCH   8   9
ATOM      9  N   UNL     1       2.961  -2.169   0.499  0.00  0.00    -0.274 N 
ATOM     10  C   UNL     1       1.726  -1.524   0.458  0.00  0.00    +0.090 A 
ATOM     11  C   UNL     1       1.348  -0.199   0.302  0.00  0.00    +0.030 A 
ATOM     12  C   UNL     1       0.009   0.139   0.303  0.00  0.00    +0.002 A 
ATOM     13  C   UNL     1      -0.956  -0.841   0.460  0.00  0.00    +0.004 A 
ATOM     14  C   UNL     1      -0.587  -2.163   0.621  0.00  0.00    +0.048 A 
ATOM     15  C   UNL     1       0.754  -2.512   0.616  0.00  0.00    +0.157 A 
ATOM     16  O   UNL     1       1.402  -3.696   0.745  0.00  0.00    -0.407 OA
ATOM     17  C   UNL     1       2.725  -3.484   0.674  0.00  0.00    +0.421 A 
ATOM     18  O   UNL     1       3.579  -4.346   0.756  0.00  0.00    -0.223 OA
ENDBRANCH   8   9
ENDBRANCH   7   8
ENDBRANCH   6   7
ENDBRANCH   3   6
ENDBRANCH   1   2
BRANCH   1  19
ATOM     19  C   UNL     1       9.410   0.456  -4.573  0.00  0.00    -0.020 C 
BRANCH  19  20
ATOM     20  N   UNL     1       9.374   1.781  -3.938  0.00  0.00    +0.385 N 
ATOM     21  C   UNL     1       8.404   2.658  -4.605  0.00  0.00    -0.078 C 
ATOM     22  C   UNL     1       8.288   3.974  -3.833  0.00  0.00    -0.019 C 
ATOM     23  C   UNL     1       9.660   4.650  -3.776  0.00  0.00    -0.004 C 
ATOM     24  C   UNL     1      10.664   3.697  -3.121  0.00  0.00    -0.019 C 
ATOM     25  C   UNL     1      10.711   2.389  -3.915  0.00  0.00    -0.078 C 
ATOM     26  H   UNL     1       9.047   1.650  -2.897  0.00  0.00    -0.081 HD
ENDBRANCH  19  20
BRANCH  19  30
ATOM     27  C   UNL     1      10.403   0.882  -8.707  0.00  0.00    +0.120 A 
ATOM     28  C   UNL     1      11.310   0.306  -7.830  0.00  0.00    +0.046 A 
ATOM     29  C   UNL     1      10.987   0.169  -6.494  0.00  0.00    +0.005 A 
ATOM     30  C   UNL     1       9.760   0.607  -6.031  0.00  0.00    -0.059 A 
ATOM     31  C   UNL     1       8.852   1.177  -6.904  0.00  0.00    +0.005 A 
ATOM     32  C   UNL     1       9.173   1.321  -8.239  0.00  0.00    +0.046 A 
BRANCH  27  34
ATOM     33  C   UNL     1       9.736   1.620 -10.867  0.00  0.00    +0.277 C 
ATOM     34  O   UNL     1      10.718   1.017 -10.022  0.00  0.00    -0.495 OA
ENDBRANCH  27  34
ENDBRANCH  19  30
ENDBRANCH   1  19
TORSDOF 9
