REMARK  Name = ZINC54376081
REMARK  7 active torsions:
REMARK  status: ('A' for Active; 'I' for Inactive)
REMARK    1  A    between atoms: C_1  and  C_2
REMARK    2  A    between atoms: C_2  and  C_4
REMARK    3  A    between atoms: C_2  and  N_14
REMARK    4  A    between atoms: N_14  and  C_15
REMARK    5  A    between atoms: C_15  and  C_16
REMARK    6  A    between atoms: C_19  and  O_23
REMARK    7  A    between atoms: C_21  and  O_22
REMARK                            x       y       z     vdW  Elec       q    Type
REMARK                         _______ _______ _______ _____ _____    ______ ____
ROOT
ATOM      1  N   UNL     1       0.713  -0.491   1.192  0.00  0.00    +0.388 N 
ATOM      2  H   UNL     1       0.290  -0.099   2.020  0.00  0.00    -0.084 HD
ATOM      3  H   UNL     1       0.655  -1.497   1.230  0.00  0.00    -0.084 HD
ENDROOT
BRANCH   1   5
ATOM      4  C   UNL     1      -0.019   1.526   0.010  0.00  0.00    -0.006 C 
ATOM      5  C   UNL     1       0.002  -0.004   0.002  0.00  0.00    -0.007 C 
BRANCH   5   6
ATOM      6  C   UNL     1      -1.412  -0.526   0.013  0.00  0.00    +0.094 A 
ATOM      7  N   UNL     1      -2.185  -0.703  -1.092  0.00  0.00    -0.343 N 
ATOM      8  H   UNL     1      -1.928  -0.520  -2.009  0.00  0.00    +0.167 HD
ATOM      9  C   UNL     1      -3.404  -1.193  -0.666  0.00  0.00    +0.066 A 
ATOM     10  C   UNL     1      -4.576  -1.562  -1.311  0.00  0.00    +0.028 A 
ATOM     11  C   UNL     1      -5.644  -2.027  -0.573  0.00  0.00    +0.002 A 
ATOM     12  C   UNL     1      -5.554  -2.127   0.808  0.00  0.00    +0.002 A 
ATOM     13  C   UNL     1      -4.408  -1.769   1.460  0.00  0.00    +0.030 A 
ATOM     14  C   UNL     1      -3.313  -1.296   0.732  0.00  0.00    +0.089 A 
ATOM     15  N   UNL     1      -2.068  -0.877   1.079  0.00  0.00    -0.234 NA
ENDBRANCH   5   6
ENDBRANCH   1   5
BRANCH   1  16
ATOM     16  C   UNL     1       2.122  -0.083   1.122  0.00  0.00    -0.042 C 
BRANCH  16  17
ATOM     17  C   UNL     1       2.851  -0.582   2.343  0.00  0.00    -0.023 A 
ATOM     18  C   UNL     1       3.094   0.275   3.400  0.00  0.00    +0.009 A 
ATOM     19  C   UNL     1       3.762  -0.180   4.521  0.00  0.00    +0.046 A 
ATOM     20  C   UNL     1       4.191  -1.499   4.587  0.00  0.00    +0.120 A 
ATOM     21  C   UNL     1       3.948  -2.359   3.528  0.00  0.00    +0.091 A 
ATOM     22  C   UNL     1       3.272  -1.902   2.407  0.00  0.00    +0.122 A 
BRANCH  22  23
ATOM     23  O   UNL     1       3.027  -2.745   1.370  0.00  0.00    -0.506 OA
ATOM     24  H   UNL     1       3.727  -2.761   0.702  0.00  0.00    +0.292 HD
ENDBRANCH  22  23
BRANCH  20  25
ATOM     25  O   UNL     1       4.848  -1.945   5.690  0.00  0.00    -0.507 OA
ATOM     26  H   UNL     1       4.268  -2.306   6.374  0.00  0.00    +0.292 HD
ENDBRANCH  20  25
ENDBRANCH  16  17
ENDBRANCH   1  16
TORSDOF 6
