REMARK  Name = ZINC36976858
REMARK  6 active torsions:
REMARK  status: ('A' for Active; 'I' for Inactive)
REMARK    1  A    between atoms: C_1  and  C_2
REMARK    2  A    between atoms: C_6  and  C_21
REMARK    3  A    between atoms: C_8  and  N_11
REMARK    4  A    between atoms: N_11  and  C_12
REMARK    5  A    between atoms: C_21  and  C_22
REMARK    6  A    between atoms: C_21  and  C_23
REMARK                            x       y       z     vdW  Elec       q    Type
REMARK                         _______ _______ _______ _____ _____    ______ ____
ROOT
ATOM      1  N   UNL     1       1.830  -2.430   2.026  0.00  0.00    +0.389 N 
ATOM      2  H   UNL     1       1.710  -2.536   3.022  0.00  0.00    -0.084 HD
ATOM      3  H   UNL     1       1.772  -3.334   1.582  0.00  0.00    -0.084 HD
ENDROOT
BRANCH   1   4
ATOM      4  C   UNL     1       3.145  -1.834   1.751  0.00  0.00    +0.016 C 
ATOM      5  C   UNL     1       3.646  -2.302   0.383  0.00  0.00    -0.007 C 
ATOM      6  C   UNL     1       3.212  -3.731   0.111  0.00  0.00    +0.000 C 
ATOM      7  C   UNL     1       3.860  -4.753   1.028  0.00  0.00    +0.019 C 
ATOM      8  C   UNL     1       3.382  -4.573   2.470  0.00  0.00    +0.104 C 
ATOM      9  N   UNL     1       4.236  -3.572   3.128  0.00  0.00    -0.317 N 
ATOM     10  C   UNL     1       4.135  -2.277   2.808  0.00  0.00    +0.199 C 
ATOM     11  O   UNL     1       4.839  -1.458   3.358  0.00  0.00    -0.278 OA
ATOM     12  H   UNL     1       4.876  -3.852   3.801  0.00  0.00    +0.149 HD
ENDBRANCH   1   4
BRANCH   1  18
ATOM     13  C   UNL     1      -0.363   1.976   2.522  0.00  0.00    +0.007 C 
ATOM     14  C   UNL     1      -0.343   0.666   1.733  0.00  0.00    -0.016 C 
ATOM     15  C   UNL     1      -1.698  -0.031   1.867  0.00  0.00    +0.003 C 
ATOM     16  C   UNL     1      -1.678  -1.341   1.077  0.00  0.00    +0.002 C 
ATOM     17  C   UNL     1      -0.580  -2.252   1.629  0.00  0.00    -0.022 C 
ATOM     18  C   UNL     1       0.776  -1.555   1.496  0.00  0.00    -0.067 C 
ATOM     19  C   UNL     1       0.756  -0.245   2.285  0.00  0.00    -0.012 C 
BRANCH  17  20
ATOM     20  C   UNL     1      -0.559  -3.563   0.840  0.00  0.00    -0.016 C 
ATOM     21  C   UNL     1      -1.867  -4.321   1.076  0.00  0.00    +0.007 C 
ATOM     22  C   UNL     1      -0.410  -3.257  -0.652  0.00  0.00    +0.007 C 
ENDBRANCH  17  20
ENDBRANCH   1  18
TORSDOF 3
