REMARK  Name = ZINC00000677
REMARK  10 active torsions:
REMARK  status: ('A' for Active; 'I' for Inactive)
REMARK    1  A    between atoms: C_1  and  C_2
REMARK    2  A    between atoms: C_2  and  C_4
REMARK    3  A    between atoms: C_2  and  N_44
REMARK    4  A    between atoms: C_4  and  C_5
REMARK    5  A    between atoms: C_14  and  C_15
REMARK    6  A    between atoms: C_14  and  N_44
REMARK    7  A    between atoms: C_15  and  C_17
REMARK    8  A    between atoms: C_15  and  O_25
REMARK    9  A    between atoms: C_20  and  O_24
REMARK   10  A    between atoms: C_21  and  O_23
REMARK                            x       y       z     vdW  Elec       q    Type
REMARK                         _______ _______ _______ _____ _____    ______ ____
ROOT
ATOM      1  N   UNL     1       1.331   1.536   2.446  0.00  0.00    +0.383 N 
ATOM      2  H   UNL     1       1.236   2.559   2.445  0.00  0.00    -0.085 HD
ATOM      3  H   UNL     1       0.399   1.106   2.445  0.00  0.00    -0.085 HD
ENDROOT
BRANCH   1   5
ATOM      4  C   UNL     1       3.116   2.167   4.009  0.00  0.00    -0.013 C 
ATOM      5  C   UNL     1       2.059   1.117   3.659  0.00  0.00    -0.071 C 
BRANCH   5   6
ATOM      6  C   UNL     1       1.069   0.984   4.818  0.00  0.00    +0.019 C 
BRANCH   6   7
ATOM      7  C   UNL     1       0.101  -0.134   4.527  0.00  0.00    -0.045 A 
ATOM      8  C   UNL     1       0.394  -1.423   4.932  0.00  0.00    +0.007 A 
ATOM      9  C   UNL     1      -0.490  -2.452   4.667  0.00  0.00    +0.050 A 
ATOM     10  C   UNL     1      -1.673  -2.193   3.993  0.00  0.00    +0.166 A 
ATOM     11  C   UNL     1      -1.968  -0.895   3.584  0.00  0.00    +0.166 A 
ATOM     12  C   UNL     1      -1.080   0.132   3.859  0.00  0.00    +0.053 A 
ATOM     13  O   UNL     1      -3.176  -0.902   2.949  0.00  0.00    -0.453 OA
ATOM     14  C   UNL     1      -3.805  -2.139   3.332  0.00  0.00    +0.466 C 
ATOM     15  O   UNL     1      -2.696  -3.013   3.614  0.00  0.00    -0.453 OA
ENDBRANCH   6   7
ENDBRANCH   5   6
ENDBRANCH   1   5
BRANCH   1  16
ATOM     16  C   UNL     1       2.064   1.114   1.238  0.00  0.00    -0.046 C 
BRANCH  16  17
ATOM     17  C   UNL     1       1.286   1.562  -0.002  0.00  0.00    +0.128 C 
BRANCH  17  18
ATOM     18  C   UNL     1       2.028   1.134  -1.242  0.00  0.00    -0.017 A 
ATOM     19  C   UNL     1       1.851  -0.141  -1.746  0.00  0.00    +0.010 A 
ATOM     20  C   UNL     1       2.525  -0.536  -2.887  0.00  0.00    +0.049 A 
ATOM     21  C   UNL     1       3.389   0.342  -3.520  0.00  0.00    +0.158 A 
ATOM     22  C   UNL     1       3.573   1.623  -3.009  0.00  0.00    +0.159 A 
ATOM     23  C   UNL     1       2.889   2.015  -1.869  0.00  0.00    +0.055 A 
BRANCH  22  24
ATOM     24  O   UNL     1       4.420   2.489  -3.627  0.00  0.00    -0.503 OA
ATOM     25  H   UNL     1       5.331   2.445  -3.306  0.00  0.00    +0.292 HD
ENDBRANCH  22  24
BRANCH  21  26
ATOM     26  O   UNL     1       4.058  -0.047  -4.639  0.00  0.00    -0.503 OA
ATOM     27  H   UNL     1       4.917  -0.455  -4.462  0.00  0.00    +0.292 HD
ENDBRANCH  21  26
ENDBRANCH  17  18
BRANCH  17  28
ATOM     28  O   UNL     1      -0.011   0.963   0.007  0.00  0.00    -0.389 OA
ATOM     29  H   UNL     1       0.002  -0.004   0.002  0.00  0.00    +0.210 HD
ENDBRANCH  17  28
ENDBRANCH  16  17
ENDBRANCH   1  16
TORSDOF 9
