REMARK  Name = ZINC12532287
REMARK  10 active torsions:
REMARK  status: ('A' for Active; 'I' for Inactive)
REMARK    1  A    between atoms: C_1  and  C_2
REMARK    2  A    between atoms: C_7  and  C_8
REMARK    3  A    between atoms: C_7  and  N_53
REMARK    4  A    between atoms: N_12  and  C_13
REMARK    5  A    between atoms: C_13  and  C_14
REMARK    6  A    between atoms: C_14  and  C_16
REMARK    7  A    between atoms: C_14  and  O_18
REMARK    8  A    between atoms: C_16  and  O_17
REMARK    9  A    between atoms: N_21  and  C_26
REMARK   10  A    between atoms: N_24  and  C_25
REMARK                            x       y       z     vdW  Elec       q    Type
REMARK                         _______ _______ _______ _____ _____    ______ ____
ROOT
ATOM      1  C   UNL     1       1.655   2.809   3.046  0.00  0.00    +0.096 A 
ATOM      2  N   UNL     1       0.878   2.942   4.090  0.00  0.00    -0.216 NA
ATOM      3  C   UNL     1       0.102   1.863   4.216  0.00  0.00    +0.168 A 
ATOM      4  C   UNL     1       0.417   1.004   3.171  0.00  0.00    +0.152 A 
ATOM      5  N   UNL     1       1.406   1.632   2.440  0.00  0.00    -0.321 N 
ATOM      6  C   UNL     1      -0.263  -0.228   3.063  0.00  0.00    +0.282 A 
ATOM      7  O   UNL     1      -0.004  -0.998   2.155  0.00  0.00    -0.265 OA
ATOM      8  N   UNL     1      -1.205  -0.542   3.977  0.00  0.00    -0.262 N 
ATOM      9  C   UNL     1      -1.501   0.298   4.983  0.00  0.00    +0.333 A 
ATOM     10  O   UNL     1      -2.355  -0.019   5.788  0.00  0.00    -0.246 OA
ATOM     11  N   UNL     1      -0.875   1.482   5.122  0.00  0.00    -0.280 N 
ATOM     12  C   UNL     1      -1.226   2.369   6.234  0.00  0.00    +0.155 C 
ATOM     13  C   UNL     1      -1.915  -1.819   3.871  0.00  0.00    +0.157 C 
ENDROOT
BRANCH   1  14
ATOM     14  C   UNL     1       2.672   3.823   2.587  0.00  0.00    -0.003 C 
BRANCH  14  21
ATOM     15  C   UNL     1       0.277   8.104  -0.346  0.00  0.00    +0.007 C 
ATOM     16  C   UNL     1       0.936   7.276   0.759  0.00  0.00    -0.018 C 
ATOM     17  C   UNL     1       2.300   6.774   0.279  0.00  0.00    -0.016 C 
ATOM     18  C   UNL     1       2.927   5.897   1.365  0.00  0.00    -0.078 C 
ATOM     19  C   UNL     1       0.740   5.217   2.158  0.00  0.00    -0.078 C 
ATOM     20  C   UNL     1       0.049   6.074   1.096  0.00  0.00    -0.016 C 
ATOM     21  N   UNL     1       2.037   4.746   1.625  0.00  0.00    +0.384 N 
ATOM     22  H   UNL     1       1.872   4.246   0.743  0.00  0.00    -0.081 HD
ENDBRANCH  14  21
ENDBRANCH   1  14
BRANCH   5  23
ATOM     23  C   UNL     1       2.064   1.114   1.238  0.00  0.00    +0.157 C 
BRANCH  23  24
ATOM     24  C   UNL     1       1.286   1.562  -0.002  0.00  0.00    +0.159 C 
BRANCH  24  25
ATOM     25  O   UNL     1      -0.011   0.963   0.007  0.00  0.00    -0.388 OA
ATOM     26  H   UNL     1       0.002  -0.004   0.002  0.00  0.00    +0.210 HD
ENDBRANCH  24  25
BRANCH  24  27
ATOM     27  C   UNL     1       2.040   1.127  -1.261  0.00  0.00    +0.188 C 
BRANCH  27  28
ATOM     28  O   UNL     1       1.376   1.645  -2.415  0.00  0.00    -0.392 OA
ATOM     29  H   UNL     1       1.800   1.409  -3.252  0.00  0.00    +0.210 HD
ENDBRANCH  27  28
ENDBRANCH  24  27
ENDBRANCH  23  24
ENDBRANCH   5  23
TORSDOF 7
