REMARK  Name = ZINC12455740
REMARK  5 active torsions:
REMARK  status: ('A' for Active; 'I' for Inactive)
REMARK    1  A    between atoms: C_1  and  S_2
REMARK    2  A    between atoms: S_2  and  N_5
REMARK    3  A    between atoms: N_5  and  C_6
REMARK    4  A    between atoms: N_11  and  C_13
REMARK    5  A    between atoms: C_13  and  C_14
REMARK                            x       y       z     vdW  Elec       q    Type
REMARK                         _______ _______ _______ _____ _____    ______ ____
ROOT
ATOM      1  C   UNL     1       2.736   0.501   3.385  0.00  0.00    +0.102 C 
ATOM      2  C   UNL     1       3.491  -0.416   2.396  0.00  0.00    +0.118 C 
ATOM      3  C   UNL     1       2.859  -0.115   1.055  0.00  0.00    +0.217 C 
ATOM      4  O   UNL     1       2.964  -0.809   0.066  0.00  0.00    -0.276 OA
ATOM      5  N   UNL     1       2.166   1.035   1.118  0.00  0.00    -0.300 N 
ATOM      6  C   UNL     1       2.254   1.637   2.454  0.00  0.00    +0.128 C 
ENDROOT
BRANCH   1   7
ATOM      7  N   UNL     1       3.641   1.019   4.415  0.00  0.00    -0.190 NA
ATOM      8  H   UNL     1       4.182   1.804   4.234  0.00  0.00    +0.148 HD
BRANCH   7  10
ATOM      9  C   UNL     1       4.427  -1.373   5.525  0.00  0.00    +0.214 C 
ATOM     10  S   UNL     1       3.739   0.266   5.886  0.00  0.00    +0.027 S 
ATOM     11  O   UNL     1       4.675   1.037   6.627  0.00  0.00    -0.158 OA
ATOM     12  O   UNL     1       2.393   0.146   6.323  0.00  0.00    -0.158 OA
ENDBRANCH   7  10
ENDBRANCH   1   7
BRANCH   5  13
ATOM     13  C   UNL     1       1.423   1.615  -0.003  0.00  0.00    +0.111 C 
BRANCH  13  14
ATOM     14  C   UNL     1      -0.013   1.086   0.008  0.00  0.00    +0.006 C 
ATOM     15  C   UNL     1      -0.729   1.579   1.267  0.00  0.00    +0.005 C 
ATOM     16  C   UNL     1      -2.164   1.050   1.278  0.00  0.00    +0.000 C 
ATOM     17  C   UNL     1      -2.904   1.556   0.038  0.00  0.00    +0.000 C 
ATOM     18  C   UNL     1      -2.188   1.063  -1.221  0.00  0.00    +0.000 C 
ATOM     19  C   UNL     1      -0.753   1.593  -1.232  0.00  0.00    +0.005 C 
ENDBRANCH  13  14
ENDBRANCH   5  13
TORSDOF 4
