REMARK  Name = ZINC49529089
REMARK  6 active torsions:
REMARK  status: ('A' for Active; 'I' for Inactive)
REMARK    1  A    between atoms: C_1  and  C_2
REMARK    2  A    between atoms: C_2  and  C_3
REMARK    3  A    between atoms: C_3  and  C_5
REMARK    4  A    between atoms: C_3  and  N_10
REMARK    5  A    between atoms: N_10  and  C_11
REMARK    6  A    between atoms: C_19  and  O_21
REMARK                            x       y       z     vdW  Elec       q    Type
REMARK                         _______ _______ _______ _____ _____    ______ ____
ROOT
ATOM      1  N   UNL     1      -0.153  -0.227  -2.541  0.00  0.00    +0.391 N 
ATOM      2  H   UNL     1       0.194  -0.750  -3.332  0.00  0.00    -0.084 HD
ATOM      3  H   UNL     1      -1.108  -0.495  -2.354  0.00  0.00    -0.084 HD
ENDROOT
BRANCH   1   4
ATOM      4  C   UNL     1      -0.099   1.210  -2.842  0.00  0.00    +0.002 C 
ATOM      5  C   UNL     1      -0.917   2.022  -1.811  0.00  0.00    +0.218 C 
ATOM      6  O   UNL     1      -2.208   2.122  -2.436  0.00  0.00    -0.493 OA
ATOM      7  C   UNL     1      -2.059   2.063  -3.788  0.00  0.00    +0.126 A 
ATOM      8  C   UNL     1      -0.826   1.520  -4.136  0.00  0.00    -0.016 A 
ATOM      9  C   UNL     1      -0.472   1.358  -5.457  0.00  0.00    +0.009 A 
ATOM     10  C   UNL     1      -1.343   1.743  -6.460  0.00  0.00    +0.046 A 
ATOM     11  C   UNL     1      -2.574   2.292  -6.129  0.00  0.00    +0.120 A 
ATOM     12  C   UNL     1      -2.932   2.453  -4.799  0.00  0.00    +0.091 A 
BRANCH  11  13
ATOM     13  O   UNL     1      -3.431   2.675  -7.111  0.00  0.00    -0.507 OA
ATOM     14  H   UNL     1      -4.040   1.979  -7.395  0.00  0.00    +0.292 HD
ENDBRANCH  11  13
ENDBRANCH   1   4
BRANCH   1  15
ATOM     15  C   UNL     1       0.676  -0.513  -1.363  0.00  0.00    -0.033 C 
BRANCH  15  16
ATOM     16  C   UNL     1       2.122  -0.245  -1.690  0.00  0.00    -0.024 A 
ATOM     17  C   UNL     1       3.080   0.325  -0.918  0.00  0.00    +0.009 A 
ATOM     18  C   UNL     1       4.355   0.471  -1.432  0.00  0.00    +0.008 A 
ATOM     19  C   UNL     1       4.610   0.039  -2.691  0.00  0.00    +0.045 A 
ATOM     20  S   UNL     1       3.021  -0.604  -3.190  0.00  0.00    -0.103 S 
ENDBRANCH  15  16
BRANCH  15  22
ATOM     21  C   UNL     1      -0.930  -2.218  -0.493  0.00  0.00    +0.002 C 
ATOM     22  C   UNL     1       0.506  -1.980  -0.963  0.00  0.00    -0.014 C 
ENDBRANCH  15  22
ENDBRANCH   1  15
TORSDOF 5
