REMARK  Name = ZINC62063939
REMARK  6 active torsions:
REMARK  status: ('A' for Active; 'I' for Inactive)
REMARK    1  A    between atoms: C_1  and  C_2
REMARK    2  A    between atoms: C_8  and  S_10
REMARK    3  A    between atoms: S_10  and  N_13
REMARK    4  A    between atoms: N_13  and  C_14
REMARK    5  A    between atoms: C_14  and  C_15
REMARK    6  A    between atoms: N_20  and  C_23
REMARK                            x       y       z     vdW  Elec       q    Type
REMARK                         _______ _______ _______ _____ _____    ______ ____
ROOT
ATOM      1  S   UNL     1      -1.981  -6.349  -0.018  0.00  0.00    +0.084 S 
ATOM      2  O   UNL     1      -1.957  -6.787   1.333  0.00  0.00    -0.151 OA
ATOM      3  O   UNL     1      -3.155  -6.407  -0.818  0.00  0.00    -0.151 OA
ENDROOT
BRANCH   1  11
ATOM      4  C   UNL     1      -0.018   1.503   0.010  0.00  0.00    +0.109 C 
ATOM      5  C   UNL     1       0.002  -0.004   0.002  0.00  0.00    +0.216 C 
ATOM      6  O   UNL     1       1.060  -0.596  -0.011  0.00  0.00    -0.276 OA
ATOM      7  N   UNL     1      -1.156  -0.694   0.009  0.00  0.00    -0.263 N 
ATOM      8  C   UNL     1      -1.137  -2.084   0.002  0.00  0.00    +0.189 A 
ATOM      9  N   UNL     1      -0.103  -2.902  -0.007  0.00  0.00    -0.124 NA
ATOM     10  N   UNL     1      -0.244  -4.157  -0.013  0.00  0.00    -0.119 NA
ATOM     11  C   UNL     1      -1.460  -4.666  -0.011  0.00  0.00    +0.256 A 
ATOM     12  S   UNL     1      -2.431  -3.165   0.008  0.00  0.00    -0.011 S 
ATOM     13  H   UNL     1      -2.002  -0.220   0.020  0.00  0.00    +0.157 HD
ENDBRANCH   1  11
BRANCH   1  14
ATOM     14  N   UNL     1      -0.820  -7.218  -0.818  0.00  0.00    -0.179 NA
ATOM     15  H   UNL     1      -1.033  -7.653  -1.658  0.00  0.00    +0.149 HD
BRANCH  14  16
ATOM     16  C   UNL     1       0.529  -7.328  -0.256  0.00  0.00    +0.201 C 
BRANCH  16  17
ATOM     17  C   UNL     1       1.272  -8.441  -0.950  0.00  0.00    +0.231 C 
ATOM     18  O   UNL     1       0.729  -9.078  -1.827  0.00  0.00    -0.274 OA
ATOM     19  N   UNL     1       2.541  -8.727  -0.596  0.00  0.00    -0.304 N 
ATOM     20  C   UNL     1       3.217  -7.971   0.469  0.00  0.00    +0.089 C 
ATOM     21  C   UNL     1       3.824  -8.968   1.462  0.00  0.00    -0.060 C 
ATOM     22  N   UNL     1       4.691  -9.908   0.742  0.00  0.00    +0.380 N 
ATOM     23  C   UNL     1       3.891 -10.715  -0.189  0.00  0.00    -0.060 C 
ATOM     24  C   UNL     1       3.286  -9.808  -1.259  0.00  0.00    +0.089 C 
ATOM     25  C   UNL     1       5.358 -10.794   1.706  0.00  0.00    -0.096 C 
ATOM     26  H   UNL     1       5.388  -9.393   0.225  0.00  0.00    -0.082 HD
ENDBRANCH  16  17
ENDBRANCH  14  16
ENDBRANCH   1  14
TORSDOF 4
