REMARK  Name = ZINC62248180
REMARK  5 active torsions:
REMARK  status: ('A' for Active; 'I' for Inactive)
REMARK    1  A    between atoms: C_1  and  C_2
REMARK    2  A    between atoms: C_5  and  N_8
REMARK    3  A    between atoms: C_9  and  C_15
REMARK    4  A    between atoms: C_10  and  C_13
REMARK    5  A    between atoms: C_13  and  N_14
REMARK                            x       y       z     vdW  Elec       q    Type
REMARK                         _______ _______ _______ _____ _____    ______ ____
ROOT
ATOM      1  N   UNL     1       0.059  -4.172  -0.021  0.00  0.00    -0.212 N 
ATOM      2  C   UNL     1       0.698  -4.991   0.872  0.00  0.00    +0.099 A 
ATOM      3  C   UNL     1       0.441  -6.270   0.474  0.00  0.00    +0.074 A 
ATOM      4  N   UNL     1      -0.322  -6.236  -0.615  0.00  0.00    -0.135 NA
ATOM      5  N   UNL     1      -0.579  -5.018  -0.941  0.00  0.00    -0.060 NA
ENDROOT
BRANCH   1  10
ATOM      6  C   UNL     1      -0.018   1.503   0.010  0.00  0.00    +0.044 C 
ATOM      7  C   UNL     1       0.002  -0.004   0.002  0.00  0.00    -0.050 A 
ATOM      8  C   UNL     1       0.006  -0.688  -1.200  0.00  0.00    +0.005 A 
ATOM      9  C   UNL     1       0.025  -2.068  -1.211  0.00  0.00    +0.028 A 
ATOM     10  C   UNL     1       0.040  -2.771  -0.013  0.00  0.00    +0.068 A 
ATOM     11  C   UNL     1       0.037  -2.082   1.192  0.00  0.00    +0.028 A 
ATOM     12  C   UNL     1       0.023  -0.700   1.196  0.00  0.00    +0.005 A 
ENDBRANCH   1  10
BRANCH   2  13
ATOM     13  C   UNL     1       1.508  -4.572   2.037  0.00  0.00    +0.037 A 
ATOM     14  C   UNL     1       0.904  -4.395   3.282  0.00  0.00    +0.013 A 
ATOM     15  C   UNL     1       1.665  -4.004   4.365  0.00  0.00    +0.001 A 
ATOM     16  C   UNL     1       3.023  -3.786   4.219  0.00  0.00    +0.003 A 
ATOM     17  C   UNL     1       3.629  -3.959   2.988  0.00  0.00    +0.039 A 
ATOM     18  C   UNL     1       2.881  -4.355   1.896  0.00  0.00    +0.133 A 
ATOM     19  F   UNL     1       3.474  -4.529   0.695  0.00  0.00    -0.205 F 
ENDBRANCH   2  13
BRANCH   3  20
ATOM     20  C   UNL     1       0.941  -7.518   1.156  0.00  0.00    -0.026 C 
BRANCH  20  21
ATOM     21  N   UNL     1      -0.030  -7.942   2.173  0.00  0.00    +0.382 N 
ATOM     22  H   UNL     1       0.304  -8.778   2.630  0.00  0.00    -0.090 HD
ATOM     23  H   UNL     1      -0.145  -7.209   2.856  0.00  0.00    -0.090 HD
ATOM     24  H   UNL     1      -0.917  -8.133   1.732  0.00  0.00    -0.090 HD
ENDBRANCH  20  21
ENDBRANCH   3  20
TORSDOF 4
