REMARK  Name = ZINC62944729
REMARK  6 active torsions:
REMARK  status: ('A' for Active; 'I' for Inactive)
REMARK    1  A    between atoms: C_1  and  C_2
REMARK    2  A    between atoms: C_2  and  C_3
REMARK    3  A    between atoms: C_3  and  C_5
REMARK    4  A    between atoms: C_3  and  N_10
REMARK    5  A    between atoms: C_5  and  C_6
REMARK    6  A    between atoms: N_7  and  O_8
REMARK                            x       y       z     vdW  Elec       q    Type
REMARK                         _______ _______ _______ _____ _____    ______ ____
ROOT
ATOM      1  N   UNL     1       2.082   0.255  -0.921  0.00  0.00    +0.385 N 
ATOM      2  C   UNL     1       1.896   1.689  -0.768  0.00  0.00    -0.078 C 
ATOM      3  C   UNL     1       3.099   2.438  -0.235  0.00  0.00    -0.014 C 
ATOM      4  C   UNL     1       4.233   2.450  -1.266  0.00  0.00    +0.033 C 
ATOM      5  C   UNL     1       5.008   1.155  -1.124  0.00  0.00    -0.046 A 
ATOM      6  C   UNL     1       6.301   1.177  -0.634  0.00  0.00    +0.004 A 
ATOM      7  C   UNL     1       7.002  -0.008  -0.507  0.00  0.00    +0.000 A 
ATOM      8  C   UNL     1       6.411  -1.204  -0.869  0.00  0.00    +0.000 A 
ATOM      9  C   UNL     1       5.119  -1.219  -1.359  0.00  0.00    +0.002 A 
ATOM     10  C   UNL     1       4.420  -0.031  -1.485  0.00  0.00    -0.061 A 
ATOM     11  C   UNL     1       3.005  -0.048  -2.023  0.00  0.00    -0.042 C 
ATOM     12  H   UNL     1       2.456  -0.122  -0.064  0.00  0.00    -0.081 HD
ENDROOT
BRANCH   1  13
ATOM     13  C   UNL     1       0.782  -0.372  -1.196  0.00  0.00    -0.061 C 
BRANCH  13  15
ATOM     14  C   UNL     1       0.890  -0.121  -3.679  0.00  0.00    +0.002 C 
ATOM     15  C   UNL     1       0.140   0.297  -2.413  0.00  0.00    -0.018 C 
ENDBRANCH  13  15
BRANCH  13  16
ATOM     16  C   UNL     1      -0.132  -0.204   0.020  0.00  0.00    +0.059 C 
BRANCH  16  17
ATOM     17  C   UNL     1       0.463  -0.929   1.199  0.00  0.00    +0.130 C 
ATOM     18  N   UNL     1       1.522  -1.652   1.046  0.00  0.00    -0.077 NA
ATOM     19  N   UNL     1      -0.123  -0.821   2.441  0.00  0.00    -0.344 N 
ATOM     20  H   UNL     1      -0.919  -0.278   2.556  0.00  0.00    +0.143 HD
ATOM     21  H   UNL     1       0.259  -1.288   3.200  0.00  0.00    +0.143 HD
BRANCH  18  22
ATOM     22  O   UNL     1       2.081  -2.334   2.154  0.00  0.00    -0.408 OA
ATOM     23  H   UNL     1       2.872  -2.848   1.942  0.00  0.00    +0.328 HD
ENDBRANCH  18  22
ENDBRANCH  16  17
ENDBRANCH  13  16
ENDBRANCH   1  13
TORSDOF 5
