REMARK  Name = ZINC63294453
REMARK  7 active torsions:
REMARK  status: ('A' for Active; 'I' for Inactive)
REMARK    1  A    between atoms: C_1  and  C_2
REMARK    2  A    between atoms: C_3  and  C_8
REMARK    3  A    between atoms: C_4  and  C_7
REMARK    4  A    between atoms: C_8  and  N_9
REMARK    5  A    between atoms: C_10  and  C_12
REMARK    6  A    between atoms: C_15  and  C_18
REMARK    7  A    between atoms: C_18  and  C_19
REMARK                            x       y       z     vdW  Elec       q    Type
REMARK                         _______ _______ _______ _____ _____    ______ ____
ROOT
ATOM      1  C   UNL     1       3.022   0.426  -4.782  0.00  0.00    +0.329 C 
ATOM      2  N   UNL     1       3.636   1.595  -4.140  0.00  0.00    -0.339 N 
ATOM      3  C   UNL     1       3.959   2.445  -5.051  0.00  0.00    +0.107 C 
ATOM      4  N   UNL     1       3.635   1.998  -6.299  0.00  0.00    -0.251 N 
ATOM      5  O   UNL     1       3.036   0.715  -6.189  0.00  0.00    -0.239 OA
ATOM      6  H   UNL     1       3.790   2.479  -7.127  0.00  0.00    +0.195 HD
ATOM      7  H   UNL     1       3.774   1.708  -3.187  0.00  0.00    +0.164 HD
ENDROOT
BRANCH   1   9
ATOM      8  N   UNL     1       1.371  -0.174  -3.041  0.00  0.00    -0.307 N 
ATOM      9  C   UNL     1       1.606   0.247  -4.299  0.00  0.00    +0.265 C 
ATOM     10  O   UNL     1       0.677   0.483  -5.042  0.00  0.00    -0.271 OA
ATOM     11  H   UNL     1       2.114  -0.363  -2.446  0.00  0.00    +0.149 HD
BRANCH   8  12
ATOM     12  C   UNL     1      -0.005  -0.348  -2.571  0.00  0.00    +0.145 C 
BRANCH  12  15
ATOM     13  C   UNL     1      -0.018   1.503   0.010  0.00  0.00    +0.069 C 
ATOM     14  C   UNL     1       0.002  -0.004   0.002  0.00  0.00    +0.085 A 
ATOM     15  C   UNL     1       0.008  -0.824  -1.141  0.00  0.00    +0.034 A 
ATOM     16  C   UNL     1       0.027  -2.108  -0.735  0.00  0.00    +0.139 A 
ATOM     17  O   UNL     1       0.034  -2.119   0.606  0.00  0.00    -0.359 OA
ATOM     18  N   UNL     1       0.023  -0.775   1.052  0.00  0.00    -0.083 NA
ATOM     19  C   UNL     1       0.039  -3.320  -1.631  0.00  0.00    +0.089 C 
ENDBRANCH  12  15
ENDBRANCH   8  12
ENDBRANCH   1   9
BRANCH   3  20
ATOM     20  C   UNL     1       4.616   3.773  -4.772  0.00  0.00    +0.107 C 
BRANCH  20  21
ATOM     21  C   UNL     1       3.557   4.824  -4.566  0.00  0.00    -0.034 C 
ATOM     22  C   UNL     1       3.046   5.243  -3.385  0.00  0.00    -0.001 A 
ATOM     23  C   UNL     1       3.314   4.860  -1.994  0.00  0.00    +0.010 A 
ATOM     24  C   UNL     1       2.628   5.471  -1.001  0.00  0.00    +0.001 A 
ATOM     25  C   UNL     1       1.670   6.458  -1.267  0.00  0.00    +0.002 A 
ATOM     26  C   UNL     1       1.369   6.864  -2.519  0.00  0.00    +0.026 A 
ATOM     27  C   UNL     1       2.030   6.289  -3.639  0.00  0.00    +0.043 A 
ATOM     28  N   UNL     1       1.916   6.507  -4.927  0.00  0.00    -0.380 N 
ATOM     29  C   UNL     1       2.853   5.628  -5.636  0.00  0.00    +0.145 C 
ATOM     30  H   UNL     1       1.315   7.146  -5.342  0.00  0.00    +0.160 HD
ENDBRANCH  20  21
ENDBRANCH   3  20
TORSDOF 5
