REMARK  Name = ZINC58296077
REMARK  6 active torsions:
REMARK  status: ('A' for Active; 'I' for Inactive)
REMARK    1  A    between atoms: C_1  and  C_2
REMARK    2  A    between atoms: C_2  and  C_4
REMARK    3  A    between atoms: C_2  and  N_14
REMARK    4  A    between atoms: C_9  and  C_10
REMARK    5  A    between atoms: N_14  and  C_15
REMARK    6  A    between atoms: C_15  and  C_16
REMARK                            x       y       z     vdW  Elec       q    Type
REMARK                         _______ _______ _______ _____ _____    ______ ____
ROOT
ATOM      1  N   UNL     1       0.954   0.440   0.894  0.00  0.00    +0.384 N 
ATOM      2  H   UNL     1       1.437  -0.427   1.076  0.00  0.00    -0.085 HD
ATOM      3  H   UNL     1       1.613   1.130   0.567  0.00  0.00    -0.085 HD
ENDROOT
BRANCH   1   5
ATOM      4  C   UNL     1      -0.722   1.557  -0.500  0.00  0.00    -0.009 C 
ATOM      5  C   UNL     1      -0.074   0.220  -0.132  0.00  0.00    -0.044 C 
BRANCH   5   6
ATOM      6  C   UNL     1       0.560  -0.384  -1.358  0.00  0.00    -0.050 A 
ATOM      7  C   UNL     1       1.884  -0.117  -1.654  0.00  0.00    +0.002 A 
ATOM      8  C   UNL     1       2.467  -0.671  -2.778  0.00  0.00    +0.000 A 
ATOM      9  C   UNL     1       1.725  -1.493  -3.607  0.00  0.00    +0.001 A 
ATOM     10  C   UNL     1       0.402  -1.760  -3.311  0.00  0.00    +0.012 A 
ATOM     11  C   UNL     1      -0.179  -1.209  -2.184  0.00  0.00    +0.056 A 
BRANCH  11  12
ATOM     12  C   UNL     1      -1.621  -1.505  -1.859  0.00  0.00    +0.418 C 
ATOM     13  F   UNL     1      -2.162  -2.333  -2.847  0.00  0.00    -0.166 F 
ATOM     14  F   UNL     1      -1.696  -2.148  -0.618  0.00  0.00    -0.166 F 
ATOM     15  F   UNL     1      -2.342  -0.307  -1.807  0.00  0.00    -0.166 F 
ENDBRANCH  11  12
ENDBRANCH   5   6
ENDBRANCH   1   5
BRANCH   1  16
ATOM     16  C   UNL     1       0.319   0.916   2.129  0.00  0.00    -0.075 C 
BRANCH  16  17
ATOM     17  C   UNL     1       1.389   1.145   3.198  0.00  0.00    +0.010 C 
ATOM     18  C   UNL     1       2.040  -0.194   3.562  0.00  0.00    +0.106 C 
ATOM     19  N   UNL     1       3.116   0.058   4.541  0.00  0.00    -0.329 N 
ATOM     20  C   UNL     1       2.816   0.960   5.565  0.00  0.00    +0.117 A 
ATOM     21  C   UNL     1       3.488   1.216   6.708  0.00  0.00    +0.064 A 
ATOM     22  C   UNL     1       2.778   2.203   7.405  0.00  0.00    +0.136 A 
ATOM     23  N   UNL     1       1.719   2.525   6.701  0.00  0.00    -0.178 NA
ATOM     24  N   UNL     1       1.718   1.759   5.536  0.00  0.00    -0.251 N 
ATOM     25  C   UNL     1       0.743   1.764   4.443  0.00  0.00    +0.148 C 
ATOM     26  H   UNL     1       3.981  -0.377   4.477  0.00  0.00    +0.147 HD
ENDBRANCH  16  17
ENDBRANCH   1  16
TORSDOF 5
