REMARK  Name = ZINC15947064
REMARK  11 active torsions:
REMARK  status: ('A' for Active; 'I' for Inactive)
REMARK    1  A    between atoms: C_1  and  C_2
REMARK    2  A    between atoms: C_2  and  O_3
REMARK    3  A    between atoms: O_3  and  C_4
REMARK    4  A    between atoms: C_6  and  C_18
REMARK    5  A    between atoms: C_9  and  O_10
REMARK    6  A    between atoms: O_10  and  C_11
REMARK    7  A    between atoms: C_11  and  C_12
REMARK    8  A    between atoms: N_27  and  C_30
REMARK    9  A    between atoms: C_30  and  C_31
REMARK   10  A    between atoms: C_30  and  C_32
REMARK   11  A    between atoms: C_33  and  O_35
REMARK                            x       y       z     vdW  Elec       q    Type
REMARK                         _______ _______ _______ _____ _____    ______ ____
ROOT
ATOM      1  C   UNL     1       0.711  -5.087  -0.040  0.00  0.00    +0.224 C 
ATOM      2  N   UNL     1       0.365  -6.344   0.649  0.00  0.00    -0.313 N 
ATOM      3  C   UNL     1       0.442  -6.327   2.023  0.00  0.00    +0.080 A 
ATOM      4  C   UNL     1       1.272  -5.430   2.707  0.00  0.00    +0.067 A 
ATOM      5  C   UNL     1       1.236  -5.523   4.152  0.00  0.00    -0.027 A 
ATOM      6  C   UNL     1       0.405  -6.477   4.637  0.00  0.00    -0.021 A 
ATOM      7  S   UNL     1      -0.309  -7.224   3.199  0.00  0.00    -0.080 S 
ATOM      8  C   UNL     1       0.172  -6.798   6.079  0.00  0.00    -0.035 C 
ATOM      9  N   UNL     1       1.256  -6.187   6.871  0.00  0.00    +0.384 N 
ATOM     10  C   UNL     1       1.400  -4.773   6.500  0.00  0.00    -0.073 C 
ATOM     11  C   UNL     1       2.036  -4.652   5.112  0.00  0.00    +0.018 C 
ATOM     12  C   UNL     1       2.094  -4.500   1.891  0.00  0.00    +0.220 C 
ATOM     13  N   UNL     1       1.813  -4.399   0.621  0.00  0.00    -0.223 NA
ATOM     14  H   UNL     1       0.098  -7.138   0.161  0.00  0.00    +0.149 HD
ATOM     15  H   UNL     1       2.121  -6.672   6.687  0.00  0.00    -0.081 HD
ENDROOT
BRANCH   1  18
ATOM     16  C   UNL     1      -1.439  -1.981  -0.080  0.00  0.00    +0.162 A 
ATOM     17  C   UNL     1      -0.331  -2.812  -0.068  0.00  0.00    +0.056 A 
ATOM     18  C   UNL     1      -0.496  -4.185  -0.053  0.00  0.00    -0.002 A 
ATOM     19  C   UNL     1      -1.766  -4.731  -0.049  0.00  0.00    +0.011 A 
ATOM     20  C   UNL     1      -2.876  -3.908  -0.061  0.00  0.00    +0.050 A 
ATOM     21  C   UNL     1      -2.717  -2.531  -0.070  0.00  0.00    +0.162 A 
BRANCH  16  22
ATOM     22  O   UNL     1      -1.278  -0.631  -0.095  0.00  0.00    -0.489 OA
BRANCH  22  24
ATOM     23  C   UNL     1       0.043   1.393  -0.120  0.00  0.00    +0.048 C 
ATOM     24  C   UNL     1       0.063  -0.137  -0.104  0.00  0.00    +0.226 C 
ENDBRANCH  22  24
ENDBRANCH  16  22
BRANCH  21  25
ATOM     25  O   UNL     1      -3.808  -1.719  -0.076  0.00  0.00    -0.484 OA
BRANCH  25  26
ATOM     26  C   UNL     1      -5.089  -2.353  -0.066  0.00  0.00    +0.264 C 
BRANCH  26  27
ATOM     27  C   UNL     1      -6.170  -1.303  -0.074  0.00  0.00    -0.010 A 
ATOM     28  C   UNL     1      -6.658  -0.805   1.119  0.00  0.00    +0.007 A 
ATOM     29  C   UNL     1      -7.649   0.159   1.112  0.00  0.00    +0.000 A 
ATOM     30  C   UNL     1      -8.152   0.624  -0.089  0.00  0.00    +0.000 A 
ATOM     31  C   UNL     1      -7.663   0.126  -1.282  0.00  0.00    +0.000 A 
ATOM     32  C   UNL     1      -6.669  -0.834  -1.275  0.00  0.00    +0.007 A 
ENDBRANCH  26  27
ENDBRANCH  25  26
ENDBRANCH  21  25
ENDBRANCH   1  18
BRANCH   9  33
ATOM     33  C   UNL     1       0.934  -6.288   8.300  0.00  0.00    -0.074 C 
ATOM     34  C   UNL     1       0.651  -7.749   8.658  0.00  0.00    -0.014 C 
ATOM     35  C   UNL     1       2.117  -5.780   9.127  0.00  0.00    -0.014 C 
ENDBRANCH   9  33
BRANCH  12  36
ATOM     36  O   UNL     1       3.097  -3.781   2.445  0.00  0.00    -0.492 OA
ATOM     37  H   UNL     1       3.563  -3.209   1.820  0.00  0.00    +0.294 HD
ENDBRANCH  12  36
TORSDOF 8
