REMARK  Name = ZINC45107170
REMARK  10 active torsions:
REMARK  status: ('A' for Active; 'I' for Inactive)
REMARK    1  A    between atoms: C_1  and  C_2
REMARK    2  A    between atoms: C_2  and  N_3
REMARK    3  A    between atoms: C_7  and  C_9
REMARK    4  A    between atoms: C_9  and  C_11
REMARK    5  A    between atoms: C_9  and  N_12
REMARK    6  A    between atoms: N_12  and  C_13
REMARK    7  A    between atoms: C_13  and  C_14
REMARK    8  A    between atoms: C_14  and  C_15
REMARK    9  A    between atoms: C_15  and  C_16
REMARK   10  A    between atoms: C_16  and  N_17
REMARK                            x       y       z     vdW  Elec       q    Type
REMARK                         _______ _______ _______ _____ _____    ______ ____
ROOT
ATOM      1  N   UNL     1       2.397  -5.553   3.903  0.00  0.00    +0.386 N 
ATOM      2  H   UNL     1       1.454  -5.901   3.827  0.00  0.00    -0.085 HD
ATOM      3  H   UNL     1       2.940  -5.877   3.117  0.00  0.00    -0.085 HD
ENDROOT
BRANCH   1   4
ATOM      4  C   UNL     1       2.378  -4.084   3.911  0.00  0.00    +0.013 C 
ATOM      5  C   UNL     1       3.813  -3.554   3.900  0.00  0.00    -0.004 C 
BRANCH   4  10
ATOM      6  N   UNL     1       0.711  -0.489   1.189  0.00  0.00    -0.299 N 
ATOM      7  C   UNL     1       0.854  -1.814   1.394  0.00  0.00    +0.306 C 
ATOM      8  O   UNL     1       0.395  -2.606   0.594  0.00  0.00    -0.252 OA
ATOM      9  N   UNL     1       1.506  -2.260   2.486  0.00  0.00    -0.242 N 
ATOM     10  C   UNL     1       1.649  -3.585   2.690  0.00  0.00    +0.206 C 
ATOM     11  O   UNL     1       1.191  -4.374   1.893  0.00  0.00    -0.277 OA
ATOM     12  H   UNL     1       1.077   0.142   1.827  0.00  0.00    +0.150 HD
ATOM     13  H   UNL     1       1.872  -1.628   3.124  0.00  0.00    +0.159 HD
BRANCH   6  15
ATOM     14  C   UNL     1      -0.019   1.526   0.010  0.00  0.00    +0.024 C 
ATOM     15  C   UNL     1       0.002  -0.004   0.002  0.00  0.00    +0.102 C 
ENDBRANCH   6  15
ENDBRANCH   4  10
ENDBRANCH   1   4
BRANCH   1  16
ATOM     16  C   UNL     1       3.001  -6.041   5.150  0.00  0.00    -0.082 C 
BRANCH  16  17
ATOM     17  C   UNL     1       3.022  -7.571   5.142  0.00  0.00    -0.017 C 
BRANCH  17  18
ATOM     18  C   UNL     1       3.651  -8.080   6.440  0.00  0.00    +0.020 C 
BRANCH  18  19
ATOM     19  C   UNL     1       3.672  -9.609   6.432  0.00  0.00    +0.122 C 
BRANCH  19  20
ATOM     20  N   UNL     1       4.274 -10.097   7.676  0.00  0.00    -0.338 N 
ATOM     21  C   UNL     1       5.603 -10.345   7.892  0.00  0.00    +0.104 A 
ATOM     22  C   UNL     1       5.717 -10.775   9.163  0.00  0.00    +0.101 A 
ATOM     23  N   UNL     1       4.492 -10.789   9.708  0.00  0.00    -0.352 N 
ATOM     24  C   UNL     1       3.623 -10.379   8.824  0.00  0.00    +0.173 A 
ATOM     25  H   UNL     1       4.284 -11.057  10.617  0.00  0.00    +0.166 HD
ENDBRANCH  19  20
ENDBRANCH  18  19
ENDBRANCH  17  18
ENDBRANCH  16  17
ENDBRANCH   1  16
TORSDOF 8
