REMARK  Name = ZINC37572196
REMARK  5 active torsions:
REMARK  status: ('A' for Active; 'I' for Inactive)
REMARK    1  A    between atoms: C_3  and  C_19
REMARK    2  A    between atoms: C_4  and  C_8
REMARK    3  A    between atoms: C_14  and  C_16
REMARK    4  A    between atoms: C_20  and  C_21
REMARK    5  A    between atoms: C_21  and  N_22
REMARK                            x       y       z     vdW  Elec       q    Type
REMARK                         _______ _______ _______ _____ _____    ______ ____
ROOT
ATOM      1  C   UNL     1      -0.017   1.383   0.019  0.00  0.00    +0.039 A 
ATOM      2  C   UNL     1       0.997   1.825  -0.806  0.00  0.00    +0.020 A 
ATOM      3  C   UNL     1       2.217   1.151  -0.835  0.00  0.00    +0.037 A 
ATOM      4  C   UNL     1       2.406   0.019  -0.018  0.00  0.00    +0.055 A 
ATOM      5  C   UNL     1       1.370  -0.413   0.809  0.00  0.00    +0.052 A 
ATOM      6  C   UNL     1       0.168   0.268   0.824  0.00  0.00    +0.124 A 
ATOM      7  F   UNL     1      -0.833  -0.154   1.627  0.00  0.00    -0.205 F 
ENDROOT
BRANCH   4   8
ATOM      8  C   UNL     1       3.692  -0.705  -0.038  0.00  0.00    +0.249 C 
ATOM      9  O   UNL     1       4.735  -0.088  -0.140  0.00  0.00    -0.270 OA
ATOM     10  N   UNL     1       3.710  -2.049   0.056  0.00  0.00    -0.286 N 
ATOM     11  C   UNL     1       2.525  -2.925   0.070  0.00  0.00    +0.109 C 
ATOM     12  C   UNL     1       3.041  -4.298  -0.429  0.00  0.00    +0.021 C 
ATOM     13  C   UNL     1       4.450  -4.355   0.217  0.00  0.00    +0.033 C 
ATOM     14  C   UNL     1       4.915  -2.885   0.156  0.00  0.00    +0.162 C 
BRANCH  14  15
ATOM     15  C   UNL     1       5.789  -2.671  -1.054  0.00  0.00    +0.231 C 
ATOM     16  O   UNL     1       5.444  -1.897  -1.921  0.00  0.00    -0.274 OA
ATOM     17  N   UNL     1       6.952  -3.341  -1.172  0.00  0.00    -0.328 N 
ATOM     18  H   UNL     1       7.228  -3.961  -0.478  0.00  0.00    +0.145 HD
ATOM     19  H   UNL     1       7.514  -3.204  -1.950  0.00  0.00    +0.145 HD
ENDBRANCH  14  15
ENDBRANCH   4   8
BRANCH   3  20
ATOM     20  C   UNL     1       3.271   1.606  -1.690  0.00  0.00    -0.067 C 
ATOM     21  C   UNL     1       4.136   1.980  -2.391  0.00  0.00    -0.117 C 
BRANCH  21  22
ATOM     22  C   UNL     1       5.220   2.448  -3.270  0.00  0.00    +0.005 C 
BRANCH  22  23
ATOM     23  N   UNL     1       6.389   1.572  -3.114  0.00  0.00    +0.385 N 
ATOM     24  H   UNL     1       6.701   1.595  -2.155  0.00  0.00    -0.089 HD
ATOM     25  H   UNL     1       6.138   0.628  -3.364  0.00  0.00    -0.089 HD
ATOM     26  H   UNL     1       7.132   1.893  -3.717  0.00  0.00    -0.089 HD
ENDBRANCH  22  23
ENDBRANCH  21  22
ENDBRANCH   3  20
TORSDOF 5
