REMARK  Name = ZINC02216000
REMARK  8 active torsions:
REMARK  status: ('A' for Active; 'I' for Inactive)
REMARK    1  A    between atoms: C_1  and  O_2
REMARK    2  A    between atoms: O_2  and  C_3
REMARK    3  A    between atoms: C_5  and  C_10
REMARK    4  A    between atoms: C_8  and  O_9
REMARK    5  A    between atoms: C_12  and  C_32
REMARK    6  A    between atoms: C_13  and  S_22
REMARK    7  A    between atoms: S_22  and  C_23
REMARK    8  A    between atoms: C_23  and  C_24
REMARK                            x       y       z     vdW  Elec       q    Type
REMARK                         _______ _______ _______ _____ _____    ______ ____
ROOT
ATOM      1  C   UNL     1      -4.871   0.257   0.037  0.00  0.00    +0.097 C 
ATOM      2  C   UNL     1      -5.665  -0.064  -1.195  0.00  0.00    +0.069 C 
ATOM      3  C   UNL     1      -6.742  -0.892  -1.140  0.00  0.00    +0.080 C 
ATOM      4  N   UNL     1      -7.126  -1.446   0.060  0.00  0.00    -0.311 N 
ATOM      5  C   UNL     1      -6.718  -0.894   1.244  0.00  0.00    +0.016 C 
ATOM      6  C   UNL     1      -5.651  -0.069   1.286  0.00  0.00    +0.024 C 
ATOM      7  C   UNL     1      -5.236   0.514   2.496  0.00  0.00    +0.162 C 
ATOM      8  O   UNL     1      -4.268   1.248   2.502  0.00  0.00    -0.292 OA
ATOM      9  C   UNL     1      -5.967   0.246   3.783  0.00  0.00    +0.080 C 
ATOM     10  C   UNL     1      -7.436  -0.060   3.468  0.00  0.00    +0.014 C 
ATOM     11  C   UNL     1      -7.487  -1.236   2.496  0.00  0.00    +0.051 C 
ATOM     12  H   UNL     1      -7.691  -2.234   0.066  0.00  0.00    +0.152 HD
ENDROOT
BRANCH   1  15
ATOM     13  C   UNL     1      -1.201  -0.638   0.010  0.00  0.00    +0.162 A 
ATOM     14  C   UNL     1      -2.374   0.099   0.019  0.00  0.00    +0.054 A 
ATOM     15  C   UNL     1      -3.596  -0.546   0.027  0.00  0.00    -0.031 A 
ATOM     16  C   UNL     1      -3.652  -1.928   0.026  0.00  0.00    +0.008 A 
ATOM     17  C   UNL     1      -2.485  -2.669   0.017  0.00  0.00    +0.049 A 
ATOM     18  C   UNL     1      -1.257  -2.028   0.003  0.00  0.00    +0.158 A 
BRANCH  13  20
ATOM     19  C   UNL     1      -0.017   1.425   0.010  0.00  0.00    +0.277 C 
ATOM     20  O   UNL     1       0.002  -0.004   0.002  0.00  0.00    -0.491 OA
ENDBRANCH  13  20
BRANCH  18  21
ATOM     21  O   UNL     1      -0.108  -2.756  -0.012  0.00  0.00    -0.503 OA
ATOM     22  H   UNL     1       0.232  -2.972   0.867  0.00  0.00    +0.292 HD
ENDBRANCH  18  21
ENDBRANCH   1  15
BRANCH   2  23
ATOM     23  C   UNL     1      -5.282   0.511  -2.449  0.00  0.00    +0.098 C 
ATOM     24  N   UNL     1      -4.979   0.968  -3.444  0.00  0.00    -0.191 NA
ENDBRANCH   2  23
BRANCH   3  25
ATOM     25  S   UNL     1      -7.648  -1.256  -2.606  0.00  0.00    -0.100 S 
BRANCH  25  26
ATOM     26  C   UNL     1      -8.962  -2.374  -2.045  0.00  0.00    +0.171 C 
BRANCH  26  27
ATOM     27  C   UNL     1      -9.822  -2.768  -3.218  0.00  0.00    +0.229 C 
ATOM     28  O   UNL     1      -9.573  -2.336  -4.324  0.00  0.00    -0.275 OA
ATOM     29  N   UNL     1     -10.867  -3.599  -3.038  0.00  0.00    -0.264 N 
ATOM     30  C   UNL     1     -11.661  -3.962  -4.120  0.00  0.00    +0.164 A 
ATOM     31  N   UNL     1     -11.540  -3.602  -5.380  0.00  0.00    -0.233 NA
ATOM     32  C   UNL     1     -12.383  -4.037  -6.298  0.00  0.00    +0.120 A 
ATOM     33  C   UNL     1     -13.371  -4.867  -5.883  0.00  0.00    +0.068 A 
ATOM     34  S   UNL     1     -13.004  -4.976  -4.139  0.00  0.00    -0.061 S 
ATOM     35  H   UNL     1     -11.066  -3.944  -2.154  0.00  0.00    +0.157 HD
ENDBRANCH  26  27
ENDBRANCH  25  26
ENDBRANCH   3  25
TORSDOF 7
