REMARK  Name = ZINC39479792
REMARK  4 active torsions:
REMARK  status: ('A' for Active; 'I' for Inactive)
REMARK    1  A    between atoms: C_1  and  N_2
REMARK    2  A    between atoms: C_6  and  O_16
REMARK    3  A    between atoms: C_8  and  C_9
REMARK    4  A    between atoms: C_14  and  O_15
REMARK                            x       y       z     vdW  Elec       q    Type
REMARK                         _______ _______ _______ _____ _____    ______ ____
ROOT
ATOM      1  C   UNL     1      -0.027   1.434   0.097  0.00  0.00    +0.137 C 
ATOM      2  N   UNL     1      -0.014  -0.031   0.062  0.00  0.00    -0.286 N 
ATOM      3  C   UNL     1      -1.262  -0.605   0.026  0.00  0.00    +0.047 A 
ATOM      4  C   UNL     1      -2.283   0.096   0.635  0.00  0.00    -0.016 A 
ATOM      5  C   UNL     1      -3.587   0.017   0.310  0.00  0.00    +0.051 A 
ATOM      6  C   UNL     1      -3.955  -1.083  -0.483  0.00  0.00    +0.118 A 
ATOM      7  C   UNL     1      -2.987  -1.991  -0.883  0.00  0.00    +0.056 A 
ATOM      8  C   UNL     1      -1.628  -1.773  -0.645  0.00  0.00    +0.011 A 
ATOM      9  C   UNL     1      -1.824   0.533   2.064  0.00  0.00    +0.100 C 
ATOM     10  C   UNL     1      -0.434  -0.094   2.046  0.00  0.00    +0.089 C 
ATOM     11  N   UNL     1       0.697   0.518   1.993  0.00  0.00    -0.238 NA
ATOM     12  C   UNL     1       1.704  -0.197   1.419  0.00  0.00    +0.142 A 
ATOM     13  C   UNL     1       1.237  -0.581   0.065  0.00  0.00    +0.156 A 
ATOM     14  N   UNL     1       2.012  -1.258  -0.693  0.00  0.00    -0.218 NA
ATOM     15  C   UNL     1       3.221  -1.619  -0.277  0.00  0.00    +0.225 A 
ATOM     16  N   UNL     1       3.680  -1.304   0.920  0.00  0.00    -0.222 NA
ATOM     17  C   UNL     1       2.941  -0.596   1.795  0.00  0.00    +0.160 A 
ATOM     18 CL   UNL     1       3.562  -0.195   3.366  0.00  0.00    -0.060 Cl
ATOM     19 BR   UNL     1      -0.364  -1.983   2.110  0.00  0.00    -0.033 Br
ENDROOT
BRANCH   8  20
ATOM     20  C   UNL     1      -0.607  -2.751  -1.090  0.00  0.00    +0.025 A 
ATOM     21  C   UNL     1      -0.488  -3.981  -0.446  0.00  0.00    +0.012 A 
ATOM     22  C   UNL     1       0.464  -4.888  -0.865  0.00  0.00    +0.001 A 
ATOM     23  C   UNL     1       1.302  -4.581  -1.923  0.00  0.00    +0.004 A 
ATOM     24  C   UNL     1       1.193  -3.363  -2.568  0.00  0.00    +0.046 A 
ATOM     25  C   UNL     1       0.238  -2.446  -2.162  0.00  0.00    +0.125 A 
BRANCH  25  26
ATOM     26  O   UNL     1       0.126  -1.251  -2.799  0.00  0.00    -0.506 OA
ATOM     27  H   UNL     1       0.736  -0.574  -2.476  0.00  0.00    +0.292 HD
ENDBRANCH  25  26
ENDBRANCH   8  20
BRANCH   6  28
ATOM     28  O   UNL     1      -5.252  -1.255  -0.855  0.00  0.00    -0.507 OA
ATOM     29  H   UNL     1      -5.482  -0.828  -1.691  0.00  0.00    +0.292 HD
ENDBRANCH   6  28
TORSDOF 3
