REMARK  Name = ZINC62771014
REMARK  6 active torsions:
REMARK  status: ('A' for Active; 'I' for Inactive)
REMARK    1  A    between atoms: C_1  and  C_2
REMARK    2  A    between atoms: C_2  and  C_4
REMARK    3  A    between atoms: C_2  and  N_20
REMARK    4  A    between atoms: C_4  and  C_5
REMARK    5  A    between atoms: C_8  and  C_10
REMARK    6  A    between atoms: C_12  and  N_17
REMARK                            x       y       z     vdW  Elec       q    Type
REMARK                         _______ _______ _______ _____ _____    ______ ____
ROOT
ATOM      1  C   UNL     1       0.657  -2.014   1.298  0.00  0.00    +0.104 A 
ATOM      2  C   UNL     1       1.539  -2.872   0.750  0.00  0.00    +0.045 A 
ATOM      3  C   UNL     1       1.083  -4.174   1.037  0.00  0.00    +0.050 A 
ATOM      4  C   UNL     1      -0.066  -4.037   1.753  0.00  0.00    +0.137 A 
ATOM      5  O   UNL     1      -0.309  -2.722   1.908  0.00  0.00    -0.460 OA
ENDROOT
BRANCH   4   6
ATOM      6  C   UNL     1      -0.899  -5.141   2.275  0.00  0.00    +0.038 A 
ATOM      7  C   UNL     1      -1.302  -5.143   3.611  0.00  0.00    +0.045 A 
ATOM      8  C   UNL     1      -2.080  -6.175   4.092  0.00  0.00    +0.127 A 
ATOM      9  C   UNL     1      -2.461  -7.208   3.254  0.00  0.00    +0.034 A 
ATOM     10  C   UNL     1      -2.065  -7.213   1.928  0.00  0.00    +0.023 A 
ATOM     11  C   UNL     1      -1.291  -6.183   1.432  0.00  0.00    +0.052 A 
ATOM     12 CL   UNL     1      -0.801  -6.187  -0.234  0.00  0.00    -0.083 Cl
BRANCH   8  13
ATOM     13  N   UNL     1      -2.508  -6.179   5.509  0.00  0.00    +0.056 N 
ATOM     14  O   UNL     1      -2.175  -5.278   6.244  0.00  0.00    -0.126 OA
ATOM     15  O   UNL     1      -3.190  -7.083   5.933  0.00  0.00    -0.126 OA
ENDBRANCH   8  13
ENDBRANCH   4   6
BRANCH   1  16
ATOM     16  C   UNL     1       0.742  -0.511   1.242  0.00  0.00    +0.058 C 
BRANCH  16  18
ATOM     17  C   UNL     1      -0.019   1.526   0.010  0.00  0.00    -0.014 C 
ATOM     18  C   UNL     1       0.002  -0.004   0.002  0.00  0.00    -0.071 C 
BRANCH  18  19
ATOM     19  N   UNL     1       0.690  -0.478  -1.207  0.00  0.00    +0.380 N 
ATOM     20  H   UNL     1       1.636  -0.129  -1.214  0.00  0.00    -0.090 HD
ATOM     21  H   UNL     1       0.703  -1.487  -1.212  0.00  0.00    -0.090 HD
ATOM     22  H   UNL     1       0.202  -0.144  -2.024  0.00  0.00    -0.090 HD
ENDBRANCH  18  19
ENDBRANCH  16  18
ENDBRANCH   1  16
TORSDOF 5
