REMARK  Name = ZINC08856426
REMARK  6 active torsions:
REMARK  status: ('A' for Active; 'I' for Inactive)
REMARK    1  A    between atoms: C_1  and  O_2
REMARK    2  A    between atoms: O_2  and  C_3
REMARK    3  A    between atoms: C_8  and  N_9
REMARK    4  A    between atoms: C_12  and  C_18
REMARK    5  A    between atoms: C_13  and  O_17
REMARK    6  A    between atoms: C_15  and  O_16
REMARK                            x       y       z     vdW  Elec       q    Type
REMARK                         _______ _______ _______ _____ _____    ______ ____
ROOT
ATOM      1  N   UNL     1       1.138   1.919   0.002  0.00  0.00    -0.227 N 
ATOM      2  C   UNL     1      -0.015   1.217   0.009  0.00  0.00    +0.267 A 
ATOM      3  O   UNL     1       0.002  -0.004   0.002  0.00  0.00    -0.267 OA
ATOM      4  C   UNL     1      -1.230   1.913   0.018  0.00  0.00    +0.069 A 
ATOM      5  C   UNL     1      -1.203   3.296   0.031  0.00  0.00    +0.224 A 
ATOM      6  N   UNL     1      -0.029   3.938   0.024  0.00  0.00    -0.161 NA
ATOM      7  C   UNL     1       1.107   3.279   0.010  0.00  0.00    +0.306 A 
ENDROOT
BRANCH   4   8
ATOM      8  C   UNL     1      -2.541   1.170   0.020  0.00  0.00    +0.001 C 
ATOM      9  C   UNL     1      -2.688   0.419  -1.278  0.00  0.00    -0.054 A 
ATOM     10  C   UNL     1      -2.320   1.055  -2.454  0.00  0.00    +0.002 A 
ATOM     11  C   UNL     1      -2.442   0.406  -3.666  0.00  0.00    +0.000 A 
ATOM     12  C   UNL     1      -2.933  -0.885  -3.709  0.00  0.00    +0.000 A 
ATOM     13  C   UNL     1      -3.299  -1.520  -2.539  0.00  0.00    +0.004 A 
ATOM     14  C   UNL     1      -3.176  -0.869  -1.321  0.00  0.00    -0.047 A 
ATOM     15  C   UNL     1      -3.578  -1.605  -0.069  0.00  0.00    +0.016 C 
ATOM     16  C   UNL     1      -3.763  -0.615   1.082  0.00  0.00    -0.077 C 
ATOM     17  N   UNL     1      -2.566   0.242   1.159  0.00  0.00    +0.387 N 
ATOM     18  H   UNL     1      -2.588   0.779   2.034  0.00  0.00    -0.085 HD
ATOM     19  H   UNL     1      -1.724  -0.345   1.139  0.00  0.00    -0.085 HD
ENDBRANCH   4   8
BRANCH   1  25
ATOM     20  C   UNL     1       2.995   0.910   1.183  0.00  0.00    +0.144 A 
ATOM     21  C   UNL     1       4.208   0.239   1.162  0.00  0.00    +0.048 A 
ATOM     22  C   UNL     1       4.798  -0.083  -0.045  0.00  0.00    +0.004 A 
ATOM     23  C   UNL     1       4.179   0.256  -1.234  0.00  0.00    +0.002 A 
ATOM     24  C   UNL     1       2.967   0.919  -1.222  0.00  0.00    +0.030 A 
ATOM     25  C   UNL     1       2.368   1.246  -0.014  0.00  0.00    +0.096 A 
BRANCH  20  27
ATOM     26  C   UNL     1       3.116   0.856   3.558  0.00  0.00    +0.277 C 
ATOM     27  O   UNL     1       2.416   1.233   2.370  0.00  0.00    -0.493 OA
ENDBRANCH  20  27
ENDBRANCH   1  25
BRANCH   7  28
ATOM     28  O   UNL     1       2.269   3.966   0.002  0.00  0.00    -0.479 OA
ATOM     29  H   UNL     1       2.158   4.926   0.009  0.00  0.00    +0.295 HD
ENDBRANCH   7  28
BRANCH   5  30
ATOM     30  O   UNL     1      -2.360   3.998   0.046  0.00  0.00    -0.492 OA
ATOM     31  H   UNL     1      -2.238   4.957   0.051  0.00  0.00    +0.294 HD
ENDBRANCH   5  30
TORSDOF 5
