REMARK  Name = ZINC43018910
REMARK  7 active torsions:
REMARK  status: ('A' for Active; 'I' for Inactive)
REMARK    1  A    between atoms: C_1  and  C_2
REMARK    2  A    between atoms: C_5  and  C_11
REMARK    3  A    between atoms: C_6  and  C_10
REMARK    4  A    between atoms: C_7  and  O_8
REMARK    5  A    between atoms: O_8  and  C_9
REMARK    6  A    between atoms: C_11  and  N_12
REMARK    7  A    between atoms: C_24  and  C_26
REMARK                            x       y       z     vdW  Elec       q    Type
REMARK                         _______ _______ _______ _____ _____    ______ ____
ROOT
ATOM      1  N   UNL     1      -1.488  -4.666  -0.432  0.00  0.00    -0.296 N 
ATOM      2  C   UNL     1      -1.985  -5.031   0.811  0.00  0.00    +0.150 A 
ATOM      3  C   UNL     1      -2.991  -6.003   0.876  0.00  0.00    +0.111 A 
ATOM      4  C   UNL     1      -3.489  -6.359   2.117  0.00  0.00    +0.157 A 
ATOM      5  N   UNL     1      -2.992  -5.768   3.198  0.00  0.00    -0.201 NA
ATOM      6  C   UNL     1      -2.038  -4.855   3.102  0.00  0.00    +0.216 A 
ATOM      7  N   UNL     1      -1.536  -4.485   1.931  0.00  0.00    -0.198 NA
ATOM      8  N   UNL     1      -1.550  -4.268   4.259  0.00  0.00    -0.327 N 
ATOM      9 CL   UNL     1      -4.740  -7.554   2.258  0.00  0.00    -0.060 Cl
ATOM     10  N   UNL     1      -3.464  -6.593  -0.303  0.00  0.00    -0.279 N 
ATOM     11  C   UNL     1      -3.172  -6.049  -1.502  0.00  0.00    +0.238 C 
ATOM     12  O   UNL     1      -3.546  -6.597  -2.517  0.00  0.00    -0.273 OA
ATOM     13  C   UNL     1      -2.388  -4.761  -1.591  0.00  0.00    +0.158 C 
ATOM     14  C   UNL     1      -3.349  -3.570  -1.591  0.00  0.00    +0.038 C 
ATOM     15  H   UNL     1      -1.907  -4.528   5.122  0.00  0.00    +0.145 HD
ATOM     16  H   UNL     1      -0.851  -3.598   4.205  0.00  0.00    +0.145 HD
ATOM     17  H   UNL     1      -4.004  -7.397  -0.257  0.00  0.00    +0.155 HD
ENDROOT
BRANCH   1  18
ATOM     18  C   UNL     1      -0.109  -4.196  -0.585  0.00  0.00    +0.160 C 
BRANCH  18  23
ATOM     19  C   UNL     1       0.006   1.439   0.490  0.00  0.00    +0.049 C 
ATOM     20  C   UNL     1       0.014  -0.040   0.197  0.00  0.00    +0.007 A 
ATOM     21  C   UNL     1      -1.126  -0.795   0.379  0.00  0.00    +0.089 A 
ATOM     22  N   UNL     1      -1.128  -2.090   0.124  0.00  0.00    -0.362 N 
ATOM     23  C   UNL     1      -0.050  -2.715  -0.311  0.00  0.00    +0.040 A 
ATOM     24  C   UNL     1       1.130  -2.030  -0.518  0.00  0.00    +0.012 A 
ATOM     25  C   UNL     1       1.171  -0.661  -0.266  0.00  0.00    +0.129 A 
ATOM     26  C   UNL     1       2.355  -2.753  -1.015  0.00  0.00    +0.049 C 
ATOM     27  H   UNL     1      -1.944  -2.596   0.261  0.00  0.00    +0.165 HD
BRANCH  25  28
ATOM     28  O   UNL     1       2.311   0.049  -0.463  0.00  0.00    -0.494 OA
ATOM     29  C   UNL     1       3.210   0.152   0.644  0.00  0.00    +0.277 C 
ENDBRANCH  25  28
ENDBRANCH  18  23
ENDBRANCH   1  18
TORSDOF 3
