REMARK  Name = ZINC52879233
REMARK  4 active torsions:
REMARK  status: ('A' for Active; 'I' for Inactive)
REMARK    1  A    between atoms: C_1  and  C_2
REMARK    2  A    between atoms: C_2  and  C_3
REMARK    3  A    between atoms: C_2  and  C_9
REMARK    4  A    between atoms: C_2  and  N_19
REMARK                            x       y       z     vdW  Elec       q    Type
REMARK                         _______ _______ _______ _____ _____    ______ ____
ROOT
ATOM      1  C   UNL     1       0.444   1.459  -0.061  0.00  0.00    +0.002 C 
ATOM      2  C   UNL     1       0.002  -0.004   0.002  0.00  0.00    +0.011 C 
ENDROOT
BRANCH   2   3
ATOM      3  C   UNL     1       0.510  -0.735  -1.214  0.00  0.00    +0.102 A 
ATOM      4  N   UNL     1       0.140  -0.466  -2.496  0.00  0.00    -0.328 N 
ATOM      5  C   UNL     1       0.819  -1.343  -3.315  0.00  0.00    +0.158 A 
ATOM      6  C   UNL     1       1.602  -2.138  -2.459  0.00  0.00    +0.109 A 
ATOM      7  N   UNL     1       1.370  -1.710  -1.192  0.00  0.00    -0.232 NA
ATOM      8  C   UNL     1       2.413  -3.134  -3.012  0.00  0.00    +0.048 A 
ATOM      9  C   UNL     1       2.406  -3.292  -4.386  0.00  0.00    +0.038 A 
ATOM     10  C   UNL     1       1.606  -2.470  -5.165  0.00  0.00    +0.128 A 
ATOM     11  N   UNL     1       0.850  -1.537  -4.623  0.00  0.00    -0.235 NA
ATOM     12 BR   UNL     1       3.480  -4.621  -5.197  0.00  0.00    -0.049 Br
ATOM     13  H   UNL     1      -0.486   0.218  -2.782  0.00  0.00    +0.168 HD
ENDBRANCH   2   3
BRANCH   2  14
ATOM     14  C   UNL     1       0.564  -0.646   1.244  0.00  0.00    -0.052 A 
ATOM     15  C   UNL     1       1.918  -0.563   1.513  0.00  0.00    +0.002 A 
ATOM     16  C   UNL     1       2.433  -1.151   2.653  0.00  0.00    +0.000 A 
ATOM     17  C   UNL     1       1.595  -1.822   3.524  0.00  0.00    +0.000 A 
ATOM     18  C   UNL     1       0.242  -1.904   3.256  0.00  0.00    +0.000 A 
ATOM     19  C   UNL     1      -0.275  -1.312   2.118  0.00  0.00    +0.002 A 
ENDBRANCH   2  14
BRANCH   2  20
ATOM     20  N   UNL     1      -1.465  -0.072   0.037  0.00  0.00    +0.389 N 
ATOM     21  H   UNL     1      -1.841   0.358  -0.795  0.00  0.00    -0.088 HD
ATOM     22  H   UNL     1      -1.756  -1.037   0.078  0.00  0.00    -0.088 HD
ATOM     23  H   UNL     1      -1.805   0.417   0.851  0.00  0.00    -0.088 HD
ENDBRANCH   2  20
TORSDOF 3
