REMARK  Name = ZINC39795294
REMARK  6 active torsions:
REMARK  status: ('A' for Active; 'I' for Inactive)
REMARK    1  A    between atoms: C_2  and  C_3
REMARK    2  A    between atoms: C_3  and  N_4
REMARK    3  A    between atoms: C_5  and  C_7
REMARK    4  A    between atoms: C_10  and  N_13
REMARK    5  A    between atoms: N_13  and  S_14
REMARK    6  A    between atoms: S_14  and  C_17
REMARK                            x       y       z     vdW  Elec       q    Type
REMARK                         _______ _______ _______ _____ _____    ______ ____
ROOT
ATOM      1  N   UNL     1       6.876   5.253  -0.036  0.00  0.00    -0.216 N 
ATOM      2  H   UNL     1       7.533   4.892   0.581  0.00  0.00    +0.174 HD
ENDROOT
BRANCH   1   6
ATOM      3  C   UNL     1       2.950   3.878   0.065  0.00  0.00    +0.037 A 
ATOM      4  C   UNL     1       4.011   2.969   0.094  0.00  0.00    +0.015 A 
ATOM      5  C   UNL     1       5.309   3.426   0.060  0.00  0.00    +0.025 A 
ATOM      6  C   UNL     1       5.564   4.793  -0.002  0.00  0.00    +0.048 A 
ATOM      7  C   UNL     1       4.510   5.702  -0.031  0.00  0.00    +0.025 A 
ATOM      8  C   UNL     1       3.210   5.250  -0.004  0.00  0.00    +0.015 A 
BRANCH   3  10
ATOM      9  N   UNL     1       1.309   2.067   0.167  0.00  0.00    -0.301 N 
ATOM     10  C   UNL     1       1.558   3.390   0.101  0.00  0.00    +0.245 C 
ATOM     11  O   UNL     1       0.635   4.182   0.070  0.00  0.00    -0.270 OA
ATOM     12  H   UNL     1       2.045   1.436   0.191  0.00  0.00    +0.150 HD
BRANCH   9  13
ATOM     13  C   UNL     1      -0.074   1.583   0.202  0.00  0.00    +0.193 C 
BRANCH  13  15
ATOM     14  C   UNL     1      -0.080  -1.060   0.330  0.00  0.00    +0.005 C 
ATOM     15  C   UNL     1      -0.077   0.113   0.273  0.00  0.00    -0.087 C 
ENDBRANCH  13  15
ENDBRANCH   9  13
ENDBRANCH   3  10
ENDBRANCH   1   6
BRANCH   1  16
ATOM     16  S   UNL     1       7.319   6.417  -1.128  0.00  0.00    +0.072 S 
ATOM     17  O   UNL     1       6.397   7.487  -0.976  0.00  0.00    -0.150 OA
ATOM     18  O   UNL     1       8.722   6.593  -0.988  0.00  0.00    -0.150 OA
BRANCH  16  19
ATOM     19  C   UNL     1       7.053   5.748  -2.737  0.00  0.00    +0.110 A 
ATOM     20  C   UNL     1       8.093   4.922  -3.339  0.00  0.00    +0.031 A 
ATOM     21  C   UNL     1       7.953   4.380  -4.568  0.00  0.00    +0.027 A 
ATOM     22  C   UNL     1       6.728   4.620  -5.328  0.00  0.00    +0.056 A 
ATOM     23  N   UNL     1       6.285   4.257  -6.505  0.00  0.00    -0.268 N 
ATOM     24  C   UNL     1       5.035   4.800  -6.685  0.00  0.00    +0.308 C 
ATOM     25  O   UNL     1       4.347   4.655  -7.673  0.00  0.00    -0.252 OA
ATOM     26  N   UNL     1       4.681   5.532  -5.576  0.00  0.00    -0.267 N 
ATOM     27  C   UNL     1       5.660   5.469  -4.709  0.00  0.00    +0.058 A 
ATOM     28  C   UNL     1       5.891   6.013  -3.372  0.00  0.00    +0.054 A 
ATOM     29  H   UNL     1       3.848   6.013  -5.456  0.00  0.00    +0.156 HD
ATOM     30  H   UNL     1       6.759   3.700  -7.143  0.00  0.00    +0.156 HD
ENDBRANCH  16  19
ENDBRANCH   1  16
TORSDOF 6
