REMARK  Name = ZINC09305966
REMARK  7 active torsions:
REMARK  status: ('A' for Active; 'I' for Inactive)
REMARK    1  A    between atoms: C_1  and  C_2
REMARK    2  A    between atoms: C_2  and  C_3
REMARK    3  A    between atoms: C_3  and  C_4
REMARK    4  A    between atoms: C_13  and  O_24
REMARK    5  A    between atoms: C_14  and  C_15
REMARK    6  A    between atoms: C_15  and  N_44
REMARK    7  A    between atoms: C_16  and  N_44
REMARK                            x       y       z     vdW  Elec       q    Type
REMARK                         _______ _______ _______ _____ _____    ______ ____
ROOT
ATOM      1  C   UNL     1      -2.170   0.835   6.561  0.00  0.00    -0.030 A 
ATOM      2  C   UNL     1      -1.113  -0.017   6.614  0.00  0.00    +0.096 A 
ATOM      3  C   UNL     1      -0.516  -0.468   5.418  0.00  0.00    +0.337 A 
ATOM      4  O   UNL     1       0.431  -1.232   5.480  0.00  0.00    -0.245 OA
ATOM      5  O   UNL     1      -0.964  -0.076   4.215  0.00  0.00    -0.422 OA
ATOM      6  C   UNL     1      -2.014   0.764   4.093  0.00  0.00    +0.144 A 
ATOM      7  C   UNL     1      -2.653   1.258   5.245  0.00  0.00    +0.021 A 
ATOM      8  C   UNL     1      -3.738   2.134   5.124  0.00  0.00    +0.015 A 
ATOM      9  C   UNL     1      -4.169   2.511   3.885  0.00  0.00    +0.046 A 
ATOM     10  C   UNL     1      -3.536   2.030   2.740  0.00  0.00    +0.122 A 
ATOM     11  C   UNL     1      -2.461   1.162   2.843  0.00  0.00    +0.020 A 
ENDROOT
BRANCH  10  12
ATOM     12  O   UNL     1      -3.977   2.415   1.515  0.00  0.00    -0.506 OA
ATOM     13  H   UNL     1      -4.658   1.838   1.144  0.00  0.00    +0.292 HD
ENDBRANCH  10  12
BRANCH   1  14
ATOM     14  C   UNL     1      -2.827   1.332   7.824  0.00  0.00    +0.036 C 
BRANCH  14  16
ATOM     15  C   UNL     1      -4.698   0.952   9.435  0.00  0.00    +0.004 C 
ATOM     16  C   UNL     1      -4.031   0.448   8.154  0.00  0.00    +0.001 C 
ENDBRANCH  14  16
ENDBRANCH   1  14
BRANCH  11  17
ATOM     17  C   UNL     1      -1.785   0.646   1.598  0.00  0.00    -0.039 C 
BRANCH  17  18
ATOM     18  N   UNL     1      -0.694   1.566   1.225  0.00  0.00    +0.385 N 
ATOM     19  H   UNL     1      -0.016   1.618   1.995  0.00  0.00    -0.085 HD
ATOM     20  H   UNL     1      -1.083   2.500   1.049  0.00  0.00    -0.085 HD
BRANCH  18  21
ATOM     21  C   UNL     1      -0.013   1.086   0.008  0.00  0.00    -0.049 C 
ATOM     22  C   UNL     1      -0.767   1.593  -1.232  0.00  0.00    +0.008 C 
ATOM     23  C   UNL     1       0.134   1.355  -2.478  0.00  0.00    +0.164 C 
ATOM     24  S   UNL     1       1.780   1.828  -1.798  0.00  0.00    -0.033 S 
ATOM     25  O   UNL     1       2.014   3.204  -2.068  0.00  0.00    -0.174 OA
ATOM     26  O   UNL     1       2.742   0.863  -2.202  0.00  0.00    -0.174 OA
ATOM     27  C   UNL     1       1.440   1.619  -0.003  0.00  0.00    +0.150 C 
ENDBRANCH  18  21
ENDBRANCH  17  18
ENDBRANCH  11  17
TORSDOF 6
