REMARK  Name = ZINC39356097
REMARK  5 active torsions:
REMARK  status: ('A' for Active; 'I' for Inactive)
REMARK    1  A    between atoms: C_1  and  O_2
REMARK    2  A    between atoms: O_2  and  C_3
REMARK    3  A    between atoms: C_6  and  C_13
REMARK    4  A    between atoms: C_14  and  C_15
REMARK    5  A    between atoms: C_14  and  C_17
REMARK                            x       y       z     vdW  Elec       q    Type
REMARK                         _______ _______ _______ _____ _____    ______ ____
ROOT
ATOM      1  C   UNL     1      -5.040  -2.528   0.037  0.00  0.00    +0.027 C 
ATOM      2  C   UNL     1      -6.157  -1.772   0.149  0.00  0.00    +0.072 C 
ENDROOT
BRANCH   2   3
ATOM      3  C   UNL     1      -7.505  -2.434   0.273  0.00  0.00    +0.216 C 
ATOM      4  N   UNL     1      -8.394  -1.971  -0.800  0.00  0.00    -0.359 N 
ATOM      5  C   UNL     1      -9.415  -1.390  -0.238  0.00  0.00    +0.060 A 
ATOM      6  C   UNL     1     -10.616  -0.739  -0.779  0.00  0.00    +0.027 A 
ATOM      7  C   UNL     1     -11.524  -0.212   0.066  0.00  0.00    +0.002 A 
ATOM      8  C   UNL     1     -11.374  -0.256   1.464  0.00  0.00    +0.002 A 
ATOM      9  C   UNL     1     -10.311  -0.828   2.063  0.00  0.00    +0.027 A 
ATOM     10  C   UNL     1      -9.256  -1.437   1.241  0.00  0.00    +0.060 A 
ATOM     11  N   UNL     1      -8.144  -2.045   1.537  0.00  0.00    -0.359 N 
ATOM     12  H   UNL     1      -8.248  -2.079  -1.753  0.00  0.00    +0.162 HD
ATOM     13  H   UNL     1      -7.800  -2.211   2.428  0.00  0.00    +0.162 HD
ENDBRANCH   2   3
BRANCH   1  17
ATOM     14  C   UNL     1      -1.191  -0.653   0.142  0.00  0.00    +0.128 A 
ATOM     15  C   UNL     1      -2.250  -0.157   0.872  0.00  0.00    +0.047 A 
ATOM     16  C   UNL     1      -3.497  -0.757   0.843  0.00  0.00    +0.012 A 
ATOM     17  C   UNL     1      -3.720  -1.893   0.067  0.00  0.00    -0.016 A 
ATOM     18  C   UNL     1      -2.613  -2.440  -0.718  0.00  0.00    -0.007 A 
ATOM     19  C   UNL     1      -1.353  -1.797  -0.668  0.00  0.00    +0.024 A 
ATOM     20  C   UNL     1      -0.288  -2.314  -1.422  0.00  0.00    +0.012 A 
ATOM     21  C   UNL     1      -0.483  -3.420  -2.193  0.00  0.00    +0.001 A 
ATOM     22  C   UNL     1      -1.724  -4.048  -2.245  0.00  0.00    +0.001 A 
ATOM     23  C   UNL     1      -2.777  -3.578  -1.516  0.00  0.00    +0.009 A 
BRANCH  14  25
ATOM     24  C   UNL     1       0.114   1.118   1.038  0.00  0.00    +0.277 C 
ATOM     25  O   UNL     1       0.015  -0.035   0.199  0.00  0.00    -0.495 OA
ENDBRANCH  14  25
ENDBRANCH   1  17
BRANCH   2  26
ATOM     26  C   UNL     1      -6.058  -0.344   0.151  0.00  0.00    +0.099 C 
ATOM     27  N   UNL     1      -5.979   0.789   0.152  0.00  0.00    -0.191 NA
ENDBRANCH   2  26
TORSDOF 4
