REMARK  Name = ZINC59204880
REMARK  8 active torsions:
REMARK  status: ('A' for Active; 'I' for Inactive)
REMARK    1  A    between atoms: C_1  and  O_2
REMARK    2  A    between atoms: O_2  and  C_3
REMARK    3  A    between atoms: C_5  and  C_13
REMARK    4  A    between atoms: C_7  and  O_11
REMARK    5  A    between atoms: C_8  and  O_9
REMARK    6  A    between atoms: O_9  and  C_10
REMARK    7  A    between atoms: O_11  and  C_12
REMARK    8  A    between atoms: N_15  and  C_16
REMARK                            x       y       z     vdW  Elec       q    Type
REMARK                         _______ _______ _______ _____ _____    ______ ____
ROOT
ATOM      1  C   UNL     1       0.606  -0.608  -1.056  0.00  0.00    +0.166 A 
ATOM      2  C   UNL     1       1.171   0.159  -2.059  0.00  0.00    +0.062 A 
ATOM      3  C   UNL     1       1.792  -0.461  -3.145  0.00  0.00    +0.044 A 
ATOM      4  C   UNL     1       1.840  -1.856  -3.216  0.00  0.00    +0.062 A 
ATOM      5  C   UNL     1       1.274  -2.618  -2.212  0.00  0.00    +0.166 A 
ATOM      6  C   UNL     1       0.661  -1.997  -1.127  0.00  0.00    +0.204 A 
ENDROOT
BRANCH   3   7
ATOM      7  C   UNL     1       2.395   0.355  -4.217  0.00  0.00    +0.245 C 
ATOM      8  O   UNL     1       2.352   1.568  -4.154  0.00  0.00    -0.270 OA
ATOM      9  N   UNL     1       2.994  -0.245  -5.265  0.00  0.00    -0.305 N 
ATOM     10  H   UNL     1       3.028  -1.213  -5.315  0.00  0.00    +0.149 HD
BRANCH   9  11
ATOM     11  C   UNL     1       3.592   0.565  -6.329  0.00  0.00    +0.113 C 
ATOM     12  C   UNL     1       2.483   0.966  -7.327  0.00  0.00    +0.189 C 
ATOM     13  S   UNL     1       3.396   0.886  -8.930  0.00  0.00    -0.028 S 
ATOM     14  O   UNL     1       4.128   2.090  -9.115  0.00  0.00    -0.174 OA
ATOM     15  O   UNL     1       2.517   0.431  -9.950  0.00  0.00    -0.174 OA
ATOM     16  C   UNL     1       4.559  -0.472  -8.473  0.00  0.00    +0.187 C 
ATOM     17  C   UNL     1       4.729  -0.225  -6.960  0.00  0.00    +0.123 C 
ATOM     18 CL   UNL     1       6.270   0.673  -6.697  0.00  0.00    -0.118 Cl
ENDBRANCH   9  11
ENDBRANCH   3   7
BRANCH   1  20
ATOM     19  C   UNL     1      -0.017   1.425   0.010  0.00  0.00    +0.277 C 
ATOM     20  O   UNL     1       0.002  -0.004   0.002  0.00  0.00    -0.491 OA
ENDBRANCH   1  20
BRANCH   6  21
ATOM     21  O   UNL     1       0.109  -2.748  -0.138  0.00  0.00    -0.488 OA
ATOM     22  C   UNL     1      -1.262  -3.119  -0.292  0.00  0.00    +0.277 C 
ENDBRANCH   6  21
BRANCH   5  23
ATOM     23  O   UNL     1       1.321  -3.975  -2.280  0.00  0.00    -0.491 OA
ATOM     24  C   UNL     1       1.970  -4.545  -3.419  0.00  0.00    +0.277 C 
ENDBRANCH   5  23
TORSDOF 5
