REMARK  Name = ZINC34962995
REMARK  4 active torsions:
REMARK  status: ('A' for Active; 'I' for Inactive)
REMARK    1  A    between atoms: C_1  and  C_2
REMARK    2  A    between atoms: N_5  and  C_8
REMARK    3  A    between atoms: C_6  and  N_7
REMARK    4  A    between atoms: C_8  and  C_9
REMARK                            x       y       z     vdW  Elec       q    Type
REMARK                         _______ _______ _______ _____ _____    ______ ____
ROOT
ATOM      1  C   UNL     1       0.055  -3.290   1.504  0.00  0.00    +0.180 C 
ENDROOT
BRANCH   1   2
ATOM      2  C   UNL     1       1.483  -3.681   1.787  0.00  0.00    -0.022 A 
ATOM      3  C   UNL     1       2.144  -4.544   0.933  0.00  0.00    +0.009 A 
ATOM      4  C   UNL     1       3.454  -4.905   1.188  0.00  0.00    +0.050 A 
ATOM      5  C   UNL     1       4.107  -4.402   2.301  0.00  0.00    +0.166 A 
ATOM      6  C   UNL     1       3.441  -3.532   3.161  0.00  0.00    +0.167 A 
ATOM      7  C   UNL     1       2.130  -3.171   2.896  0.00  0.00    +0.055 A 
ATOM      8  O   UNL     1       4.290  -3.182   4.171  0.00  0.00    -0.453 OA
ATOM      9  C   UNL     1       5.344  -4.162   4.145  0.00  0.00    +0.466 C 
ATOM     10  O   UNL     1       5.374  -4.596   2.772  0.00  0.00    -0.453 OA
ENDBRANCH   1   2
BRANCH   1  15
ATOM     11  C   UNL     1      -0.018   1.503   0.010  0.00  0.00    +0.049 C 
ATOM     12  C   UNL     1       0.002  -0.004   0.002  0.00  0.00    +0.008 A 
ATOM     13  C   UNL     1       0.009  -0.821  -1.132  0.00  0.00    +0.139 A 
ATOM     14  N   UNL     1       0.028  -2.069  -0.740  0.00  0.00    -0.177 NA
ATOM     15  N   UNL     1       0.034  -2.092   0.661  0.00  0.00    -0.246 N 
ATOM     16  C   UNL     1       0.024  -0.812   1.098  0.00  0.00    +0.118 A 
BRANCH  16  17
ATOM     17  N   UNL     1       0.030  -0.396   2.426  0.00  0.00    -0.343 N 
ATOM     18  H   UNL     1       0.018   0.550   2.639  0.00  0.00    +0.144 HD
ATOM     19  H   UNL     1       0.046  -1.053   3.140  0.00  0.00    +0.144 HD
ENDBRANCH  16  17
ENDBRANCH   1  15
TORSDOF 3
