REMARK  Name = ZINC63698058
REMARK  6 active torsions:
REMARK  status: ('A' for Active; 'I' for Inactive)
REMARK    1  A    between atoms: C_1  and  C_2
REMARK    2  A    between atoms: C_2  and  O_3
REMARK    3  A    between atoms: O_3  and  C_4
REMARK    4  A    between atoms: C_9  and  S_14
REMARK    5  A    between atoms: S_14  and  C_15
REMARK    6  A    between atoms: C_15  and  C_16
REMARK                            x       y       z     vdW  Elec       q    Type
REMARK                         _______ _______ _______ _____ _____    ______ ____
ROOT
ATOM      1  C   UNL     1       0.776  -1.807  -1.336  0.00  0.00    +0.123 A 
ATOM      2  C   UNL     1       0.208  -2.690  -0.325  0.00  0.00    +0.048 A 
ATOM      3  C   UNL     1       0.281  -4.030  -0.429  0.00  0.00    +0.031 A 
ATOM      4  C   UNL     1       0.949  -4.637  -1.589  0.00  0.00    +0.061 A 
ATOM      5  N   UNL     1       1.157  -5.877  -1.931  0.00  0.00    -0.355 N 
ATOM      6  C   UNL     1       1.885  -5.869  -3.205  0.00  0.00    +0.235 C 
ATOM      7  N   UNL     1       2.076  -4.458  -3.565  0.00  0.00    -0.355 N 
ATOM      8  C   UNL     1       1.530  -3.738  -2.623  0.00  0.00    +0.064 A 
ATOM      9  C   UNL     1       1.403  -2.291  -2.436  0.00  0.00    +0.073 A 
ATOM     10  H   UNL     1       0.882  -6.662  -1.433  0.00  0.00    +0.162 HD
ATOM     11  H   UNL     1       2.524  -4.123  -4.357  0.00  0.00    +0.162 HD
ENDROOT
BRANCH   1  12
ATOM     12  O   UNL     1       0.671  -0.465  -1.174  0.00  0.00    -0.492 OA
BRANCH  12  14
ATOM     13  C   UNL     1      -0.019   1.526   0.010  0.00  0.00    +0.048 C 
ATOM     14  C   UNL     1       0.002  -0.004   0.002  0.00  0.00    +0.225 C 
ENDBRANCH  12  14
ENDBRANCH   1  12
BRANCH   6  15
ATOM     15  S   UNL     1       3.493  -6.685  -3.009  0.00  0.00    -0.115 S 
BRANCH  15  16
ATOM     16  C   UNL     1       4.319  -5.723  -1.711  0.00  0.00    +0.079 C 
BRANCH  16  17
ATOM     17  C   UNL     1       5.705  -6.312  -1.443  0.00  0.00    +0.037 C 
ATOM     18  C   UNL     1       5.966  -6.898  -0.054  0.00  0.00    +0.046 C 
ATOM     19  C   UNL     1       6.610  -5.569  -0.458  0.00  0.00    +0.122 C 
ATOM     20 CL   UNL     1       8.381  -5.569  -0.792  0.00  0.00    -0.101 Cl
ATOM     21 CL   UNL     1       5.961  -4.066   0.298  0.00  0.00    -0.101 Cl
ENDBRANCH  16  17
ENDBRANCH  15  16
ENDBRANCH   6  15
TORSDOF 5
