REMARK  Name = ZINC04059614
REMARK  4 active torsions:
REMARK  status: ('A' for Active; 'I' for Inactive)
REMARK    1  A    between atoms: C_6  and  S_7
REMARK    2  A    between atoms: S_7  and  C_8
REMARK    3  A    between atoms: C_9  and  N_15
REMARK    4  A    between atoms: C_10  and  N_14
REMARK                            x       y       z     vdW  Elec       q    Type
REMARK                         _______ _______ _______ _____ _____    ______ ____
ROOT
ATOM      1  C   UNL     1      -1.005  -2.587  -0.151  0.00  0.00    +0.137 A 
ATOM      2  C   UNL     1      -1.951  -3.599  -0.291  0.00  0.00    +0.197 A 
ATOM      3  C   UNL     1      -1.500  -4.910  -0.417  0.00  0.00    +0.151 A 
ATOM      4  N   UNL     1      -0.190  -5.147  -0.398  0.00  0.00    -0.219 NA
ATOM      5  C   UNL     1       0.674  -4.162  -0.263  0.00  0.00    +0.224 A 
ATOM      6  N   UNL     1       0.288  -2.908  -0.147  0.00  0.00    -0.226 NA
ENDROOT
BRANCH   3   7
ATOM      7  N   UNL     1      -2.402  -5.953  -0.558  0.00  0.00    -0.341 N 
ATOM      8  H   UNL     1      -3.355  -5.772  -0.571  0.00  0.00    +0.144 HD
ATOM      9  H   UNL     1      -2.080  -6.864  -0.645  0.00  0.00    +0.144 HD
ENDBRANCH   3   7
BRANCH   2  10
ATOM     10  N   UNL     1      -3.398  -3.289  -0.307  0.00  0.00    +0.062 N 
ATOM     11  O   UNL     1      -3.954  -3.051  -1.353  0.00  0.00    -0.126 OA
ATOM     12  O   UNL     1      -4.024  -3.275   0.728  0.00  0.00    -0.126 OA
ENDBRANCH   2  10
BRANCH   1  13
ATOM     13  S   UNL     1      -1.511  -0.907   0.012  0.00  0.00    -0.068 S 
BRANCH  13  19
ATOM     14  C   UNL     1       0.592   0.360  -1.197  0.00  0.00    +0.016 A 
ATOM     15  C   UNL     1       1.777   1.068  -1.197  0.00  0.00    +0.021 A 
ATOM     16  C   UNL     1       2.378   1.415   0.000  0.00  0.00    +0.041 A 
ATOM     17  C   UNL     1       1.794   1.052   1.201  0.00  0.00    +0.021 A 
ATOM     18  C   UNL     1       0.609   0.344   1.208  0.00  0.00    +0.016 A 
ATOM     19  C   UNL     1       0.002  -0.004   0.007  0.00  0.00    +0.014 A 
ATOM     20 CL   UNL     1       3.869   2.304  -0.004  0.00  0.00    -0.084 Cl
ENDBRANCH  13  19
ENDBRANCH   1  13
TORSDOF 4
