REMARK  Name = ZINC11663840
REMARK  7 active torsions:
REMARK  status: ('A' for Active; 'I' for Inactive)
REMARK    1  A    between atoms: C_4  and  C_28
REMARK    2  A    between atoms: C_5  and  C_7
REMARK    3  A    between atoms: C_7  and  N_51
REMARK    4  A    between atoms: C_13  and  C_15
REMARK    5  A    between atoms: C_15  and  C_16
REMARK    6  A    between atoms: N_18  and  C_19
REMARK    7  A    between atoms: C_19  and  C_20
REMARK                            x       y       z     vdW  Elec       q    Type
REMARK                         _______ _______ _______ _____ _____    ______ ____
ROOT
ATOM      1  C   UNL     1      -0.750   3.623   0.887  0.00  0.00    -0.058 C 
ATOM      2  C   UNL     1      -1.039   2.119   0.917  0.00  0.00    +0.085 C 
ATOM      3  N   UNL     1       0.215   1.370   0.897  0.00  0.00    -0.318 N 
ATOM      4  C   UNL     1       1.375   1.905   0.502  0.00  0.00    +0.200 C 
ATOM      5  O   UNL     1       2.362   1.201   0.483  0.00  0.00    -0.278 OA
ATOM      6  C   UNL     1       1.506   3.341   0.080  0.00  0.00    +0.028 C 
ATOM      7  H   UNL     1       0.204   0.443   1.180  0.00  0.00    +0.149 HD
ATOM      8  N   UNL     1       0.172   3.885  -0.237  0.00  0.00    +0.391 N 
ATOM      9  H   UNL     1      -0.188   3.422  -1.080  0.00  0.00    -0.080 HD
ENDROOT
BRANCH   8  10
ATOM     10  C   UNL     1       0.265   5.341  -0.490  0.00  0.00    -0.041 C 
BRANCH  10  15
ATOM     11  C   UNL     1      -2.859   7.154   0.611  0.00  0.00    +0.000 A 
ATOM     12  C   UNL     1      -3.664   7.018  -0.505  0.00  0.00    +0.001 A 
ATOM     13  C   UNL     1      -3.198   6.340  -1.615  0.00  0.00    +0.012 A 
ATOM     14  C   UNL     1      -1.926   5.797  -1.610  0.00  0.00    +0.056 A 
ATOM     15  C   UNL     1      -1.121   5.933  -0.495  0.00  0.00    -0.052 A 
ATOM     16  C   UNL     1      -1.589   6.607   0.618  0.00  0.00    +0.002 A 
BRANCH  14  17
ATOM     17  C   UNL     1      -1.418   5.057  -2.821  0.00  0.00    +0.418 C 
ATOM     18  F   UNL     1      -2.411   5.038  -3.806  0.00  0.00    -0.166 F 
ATOM     19  F   UNL     1      -0.281   5.702  -3.318  0.00  0.00    -0.166 F 
ATOM     20  F   UNL     1      -1.091   3.745  -2.462  0.00  0.00    -0.166 F 
ENDBRANCH  14  17
ENDBRANCH  10  15
ENDBRANCH   8  10
BRANCH   6  21
ATOM     21  C   UNL     1       2.385   3.425  -1.169  0.00  0.00    +0.089 C 
BRANCH  21  22
ATOM     22  C   UNL     1       1.798   2.562  -2.256  0.00  0.00    +0.212 C 
ATOM     23  O   UNL     1       0.725   2.021  -2.087  0.00  0.00    -0.276 OA
ATOM     24  N   UNL     1       2.464   2.391  -3.415  0.00  0.00    -0.310 N 
ATOM     25  H   UNL     1       3.322   2.824  -3.549  0.00  0.00    +0.149 HD
BRANCH  24  26
ATOM     26  C   UNL     1       1.893   1.552  -4.471  0.00  0.00    +0.161 C 
BRANCH  26  27
ATOM     27  C   UNL     1       2.828   1.526  -5.652  0.00  0.00    +0.078 A 
ATOM     28  C   UNL     1       3.759   0.588  -5.898  0.00  0.00    +0.118 A 
ATOM     29  N   UNL     1       4.404   0.932  -7.083  0.00  0.00    -0.300 N 
ATOM     30  C   UNL     1       5.412   0.442  -7.885  0.00  0.00    +0.100 A 
ATOM     31  C   UNL     1       5.768   1.079  -8.999  0.00  0.00    +0.067 A 
ATOM     32  S   UNL     1       4.659   2.479  -8.994  0.00  0.00    -0.058 S 
ATOM     33  C   UNL     1       3.799   2.092  -7.487  0.00  0.00    +0.178 A 
ATOM     34  N   UNL     1       2.869   2.432  -6.641  0.00  0.00    -0.225 NA
ENDBRANCH  26  27
ENDBRANCH  24  26
ENDBRANCH  21  22
ENDBRANCH   6  21
TORSDOF 7
