REMARK  Name = ZINC08972897
REMARK  4 active torsions:
REMARK  status: ('A' for Active; 'I' for Inactive)
REMARK    1  A    between atoms: C_1  and  C_2
REMARK    2  A    between atoms: C_2  and  O_3
REMARK    3  A    between atoms: O_3  and  C_4
REMARK    4  A    between atoms: C_7  and  C_10
REMARK                            x       y       z     vdW  Elec       q    Type
REMARK                         _______ _______ _______ _____ _____    ______ ____
ROOT
ATOM      1  C   UNL     1      -0.014   1.212   0.009  0.00  0.00    +0.247 C 
ATOM      2  O   UNL     1      -0.840   1.807  -0.657  0.00  0.00    -0.270 OA
ATOM      3  N   UNL     1       0.923   1.898   0.692  0.00  0.00    -0.298 N 
ATOM      4  C   UNL     1       1.045   3.354   0.537  0.00  0.00    +0.107 C 
ATOM      5  C   UNL     1       0.980   4.000   1.931  0.00  0.00    +0.013 C 
ATOM      6  C   UNL     1       2.044   3.370   2.830  0.00  0.00    -0.022 C 
ATOM      7  C   UNL     1       1.777   1.872   2.977  0.00  0.00    +0.013 C 
ATOM      8  C   UNL     1       1.846   1.205   1.600  0.00  0.00    +0.107 C 
ATOM      9  C   UNL     1       2.019   4.027   4.184  0.00  0.00    +0.027 A 
ATOM     10  C   UNL     1       3.131   4.406   4.854  0.00  0.00    +0.059 A 
ATOM     11  N   UNL     1       2.751   4.952   6.009  0.00  0.00    -0.241 NA
ATOM     12  C   UNL     1       1.445   4.927   6.085  0.00  0.00    +0.196 A 
ATOM     13  N   UNL     1       0.954   4.354   4.961  0.00  0.00    -0.349 N 
ATOM     14  H   UNL     1      -0.011   4.201   4.744  0.00  0.00    +0.166 HD
ATOM     15  C   UNL     1       4.526   4.206   4.313  0.00  0.00    +0.038 C 
ATOM     16  C   UNL     1       4.445   3.190   3.166  0.00  0.00    -0.075 C 
ATOM     17  N   UNL     1       3.377   3.581   2.223  0.00  0.00    +0.387 N 
ATOM     18  H   UNL     1       3.486   4.574   1.983  0.00  0.00    -0.085 HD
ATOM     19  H   UNL     1       3.454   3.013   1.371  0.00  0.00    -0.085 HD
ENDROOT
BRANCH   1  23
ATOM     20  C   UNL     1      -0.096  -3.030   0.195  0.00  0.00    +0.121 A 
ATOM     21  C   UNL     1      -1.286  -2.317   0.111  0.00  0.00    +0.046 A 
ATOM     22  C   UNL     1      -1.264  -0.941   0.050  0.00  0.00    +0.016 A 
ATOM     23  C   UNL     1      -0.043  -0.263   0.074  0.00  0.00    +0.037 A 
ATOM     24  C   UNL     1       1.151  -0.984   0.154  0.00  0.00    +0.016 A 
ATOM     25  C   UNL     1       1.120  -2.359   0.219  0.00  0.00    +0.046 A 
BRANCH  20  26
ATOM     26  O   UNL     1      -0.122  -4.386   0.254  0.00  0.00    -0.492 OA
BRANCH  26  28
ATOM     27  C   UNL     1       0.907  -6.567   0.396  0.00  0.00    +0.048 C 
ATOM     28  C   UNL     1       1.137  -5.056   0.339  0.00  0.00    +0.225 C 
ENDBRANCH  26  28
ENDBRANCH  20  26
ENDBRANCH   1  23
TORSDOF 3
