REMARK  Name = ZINC40545974
REMARK  5 active torsions:
REMARK  status: ('A' for Active; 'I' for Inactive)
REMARK    1  A    between atoms: C_3  and  C_11
REMARK    2  A    between atoms: C_4  and  O_10
REMARK    3  A    between atoms: C_5  and  N_7
REMARK    4  A    between atoms: C_12  and  C_13
REMARK    5  A    between atoms: C_13  and  O_14
REMARK                            x       y       z     vdW  Elec       q    Type
REMARK                         _______ _______ _______ _____ _____    ______ ____
ROOT
ATOM      1  C   UNL     1      -0.017   1.379   0.010  0.00  0.00    +0.003 A 
ATOM      2  C   UNL     1       1.166   2.091   0.002  0.00  0.00    +0.011 A 
ATOM      3  C   UNL     1       2.385   1.414  -0.013  0.00  0.00    +0.018 A 
ATOM      4  C   UNL     1       2.400   0.014  -0.021  0.00  0.00    +0.154 A 
ATOM      5  C   UNL     1       1.204  -0.686  -0.013  0.00  0.00    +0.168 A 
ATOM      6  C   UNL     1       0.002  -0.004   0.002  0.00  0.00    +0.036 A 
ENDROOT
BRANCH   5   7
ATOM      7  N   UNL     1       1.214  -2.166  -0.021  0.00  0.00    +0.060 N 
ATOM      8  O   UNL     1       0.172  -2.778  -0.014  0.00  0.00    -0.126 OA
ATOM      9  O   UNL     1       2.265  -2.764  -0.034  0.00  0.00    -0.126 OA
ENDBRANCH   5   7
BRANCH   4  10
ATOM     10  O   UNL     1       3.582  -0.656  -0.036  0.00  0.00    -0.504 OA
ATOM     11  H   UNL     1       3.933  -0.854   0.843  0.00  0.00    +0.292 HD
ENDBRANCH   4  10
BRANCH   3  12
ATOM     12  C   UNL     1       3.654   2.170  -0.022  0.00  0.00    +0.009 C 
ATOM     13  C   UNL     1       3.636   3.496  -0.015  0.00  0.00    +0.001 C 
BRANCH  13  14
ATOM     14  C   UNL     1       4.931   4.267  -0.024  0.00  0.00    +0.183 C 
BRANCH  14  15
ATOM     15  O   UNL     1       4.843   5.334  -0.970  0.00  0.00    -0.391 OA
ATOM     16  H   UNL     1       5.643   5.874  -1.029  0.00  0.00    +0.210 HD
ENDBRANCH  14  15
ENDBRANCH  13  14
ENDBRANCH   3  12
TORSDOF 5
