REMARK  Name = ZINC56336802
REMARK  12 active torsions:
REMARK  status: ('A' for Active; 'I' for Inactive)
REMARK    1  A    between atoms: C_1  and  C_2
REMARK    2  A    between atoms: C_2  and  C_3
REMARK    3  A    between atoms: C_3  and  N_4
REMARK    4  A    between atoms: N_7  and  C_8
REMARK    5  A    between atoms: C_8  and  C_9
REMARK    6  A    between atoms: C_8  and  C_10
REMARK    7  A    between atoms: C_8  and  C_11
REMARK    8  A    between atoms: N_13  and  C_14
REMARK    9  A    between atoms: C_14  and  C_16
REMARK   10  A    between atoms: C_14  and  C_17
REMARK   11  A    between atoms: C_20  and  N_23
REMARK   12  A    between atoms: N_26  and  C_29
REMARK                            x       y       z     vdW  Elec       q    Type
REMARK                         _______ _______ _______ _____ _____    ______ ____
ROOT
ATOM      1  C   UNL     1       1.933  -6.211   3.059  0.00  0.00    +0.236 C 
ATOM      2  O   UNL     1       2.828  -6.960   3.389  0.00  0.00    -0.273 OA
ATOM      3  N   UNL     1       0.820  -6.705   2.482  0.00  0.00    -0.307 N 
ATOM      4  H   UNL     1       0.104  -6.107   2.218  0.00  0.00    +0.149 HD
ENDROOT
BRANCH   1   5
ATOM      5  C   UNL     1       2.066  -4.729   3.293  0.00  0.00    +0.106 C 
ATOM      6  C   UNL     1       3.548  -4.352   3.351  0.00  0.00    +0.041 C 
ATOM      7  C   UNL     1       1.393  -4.359   4.617  0.00  0.00    +0.041 C 
BRANCH   5  11
ATOM      8  N   UNL     1       0.819  -1.984   1.188  0.00  0.00    -0.299 N 
ATOM      9  C   UNL     1       1.413  -2.654   2.195  0.00  0.00    +0.300 C 
ATOM     10  O   UNL     1       1.944  -2.041   3.102  0.00  0.00    -0.253 OA
ATOM     11  N   UNL     1       1.420  -4.001   2.198  0.00  0.00    -0.286 N 
ATOM     12  H   UNL     1       0.396  -2.473   0.464  0.00  0.00    +0.150 HD
ATOM     13  H   UNL     1       0.996  -4.490   1.475  0.00  0.00    +0.151 HD
BRANCH   8  14
ATOM     14  C   UNL     1       0.812  -0.519   1.185  0.00  0.00    +0.105 C 
BRANCH  14  16
ATOM     15  C   UNL     1       0.072   1.515  -0.063  0.00  0.00    +0.005 C 
ATOM     16  C   UNL     1       0.079  -0.015  -0.060  0.00  0.00    +0.015 C 
ENDBRANCH  14  16
ENDBRANCH   8  14
ENDBRANCH   5  11
ENDBRANCH   1   5
BRANCH   3  17
ATOM     17  C   UNL     1       0.691  -8.147   2.254  0.00  0.00    +0.100 C 
ATOM     18  C   UNL     1       0.156  -8.818   3.521  0.00  0.00    +0.033 C 
BRANCH  17  19
ATOM     19  C   UNL     1      -0.264  -8.392   1.115  0.00  0.00    -0.027 A 
ATOM     20  C   UNL     1      -1.406  -7.621   0.993  0.00  0.00    +0.007 A 
ATOM     21  C   UNL     1      -2.283  -7.843  -0.050  0.00  0.00    +0.023 A 
ATOM     22  C   UNL     1      -2.018  -8.841  -0.978  0.00  0.00    +0.030 A 
ATOM     23  C   UNL     1      -0.870  -9.614  -0.853  0.00  0.00    +0.023 A 
ATOM     24  C   UNL     1       0.006  -9.383   0.189  0.00  0.00    +0.007 A 
BRANCH  22  25
ATOM     25  N   UNL     1      -2.903  -9.069  -2.034  0.00  0.00    -0.333 N 
ATOM     26  C   UNL     1      -2.584 -10.039  -3.093  0.00  0.00    +0.086 C 
ATOM     27  C   UNL     1      -3.782 -10.979  -3.267  0.00  0.00    -0.060 C 
ATOM     28  N   UNL     1      -4.993 -10.187  -3.516  0.00  0.00    +0.380 N 
ATOM     29  C   UNL     1      -5.303  -9.365  -2.339  0.00  0.00    -0.060 C 
ATOM     30  C   UNL     1      -4.184  -8.349  -2.116  0.00  0.00    +0.086 C 
ATOM     31  C   UNL     1      -6.119 -11.089  -3.791  0.00  0.00    -0.096 C 
ATOM     32  H   UNL     1      -4.843  -9.587  -4.313  0.00  0.00    -0.082 HD
ENDBRANCH  22  25
ENDBRANCH  17  19
ENDBRANCH   3  17
TORSDOF 7
