REMARK  Name = ZINC54029485
REMARK  13 active torsions:
REMARK  status: ('A' for Active; 'I' for Inactive)
REMARK    1  A    between atoms: C_1  and  C_2
REMARK    2  A    between atoms: C_2  and  C_3
REMARK    3  A    between atoms: C_6  and  N_9
REMARK    4  A    between atoms: N_9  and  C_10
REMARK    5  A    between atoms: N_9  and  C_11
REMARK    6  A    between atoms: C_11  and  C_12
REMARK    7  A    between atoms: C_12  and  C_13
REMARK    8  A    between atoms: C_13  and  C_15
REMARK    9  A    between atoms: C_13  and  N_19
REMARK   10  A    between atoms: C_15  and  C_16
REMARK   11  A    between atoms: C_15  and  C_17
REMARK   12  A    between atoms: C_15  and  C_18
REMARK   13  A    between atoms: N_19  and  C_20
REMARK                            x       y       z     vdW  Elec       q    Type
REMARK                         _______ _______ _______ _____ _____    ______ ____
ROOT
ATOM      1  N   UNL     1      -4.901  -3.796  -2.544  0.00  0.00    +0.380 N 
ATOM      2  C   UNL     1      -5.437  -4.013  -3.894  0.00  0.00    -0.096 C 
ATOM      3  H   UNL     1      -5.494  -3.149  -2.046  0.00  0.00    -0.082 HD
ENDROOT
BRANCH   1   7
ATOM      4  C   UNL     1      -1.615  -1.109  -2.082  0.00  0.00    -0.011 C 
ATOM      5  C   UNL     1      -2.174  -1.334  -3.489  0.00  0.00    +0.002 C 
ATOM      6  C   UNL     1      -3.587  -1.910  -3.390  0.00  0.00    -0.015 C 
ATOM      7  C   UNL     1      -3.544  -3.243  -2.639  0.00  0.00    -0.069 C 
ATOM      8  C   UNL     1      -2.985  -3.017  -1.232  0.00  0.00    -0.015 C 
ATOM      9  C   UNL     1      -1.571  -2.441  -1.331  0.00  0.00    +0.002 C 
BRANCH   4  11
ATOM     10  C   UNL     1      -0.261   0.857  -2.821  0.00  0.00    +0.004 C 
ATOM     11  C   UNL     1      -0.202  -0.532  -2.181  0.00  0.00    -0.000 C 
ENDBRANCH   4  11
ENDBRANCH   1   7
BRANCH   1  12
ATOM     12  C   UNL     1      -4.859  -5.075  -1.823  0.00  0.00    -0.080 C 
BRANCH  12  13
ATOM     13  C   UNL     1      -6.284  -5.591  -1.614  0.00  0.00    -0.034 C 
BRANCH  13  14
ATOM     14  C   UNL     1      -6.236  -6.991  -0.999  0.00  0.00    -0.068 C 
BRANCH  14  15
ATOM     15  C   UNL     1      -7.643  -7.591  -0.987  0.00  0.00    -0.050 C 
ATOM     16  C   UNL     1      -8.146  -7.742  -2.424  0.00  0.00    +0.009 C 
ATOM     17  C   UNL     1      -7.605  -8.965  -0.313  0.00  0.00    +0.009 C 
ATOM     18  C   UNL     1      -8.585  -6.668  -0.211  0.00  0.00    +0.009 C 
ENDBRANCH  14  15
BRANCH  14  19
ATOM     19  N   UNL     1      -5.728  -6.904   0.376  0.00  0.00    +0.379 N 
ATOM     20  C   UNL     1      -4.272  -6.710   0.350  0.00  0.00    -0.100 C 
ATOM     21  H   UNL     1      -6.163  -6.125   0.847  0.00  0.00    -0.086 HD
ATOM     22  H   UNL     1      -5.945  -7.758   0.869  0.00  0.00    -0.086 HD
ENDBRANCH  14  19
ENDBRANCH  13  14
ENDBRANCH  12  13
ENDBRANCH   1  12
TORSDOF 7
