REMARK  Name = ZINC14457193
REMARK  6 active torsions:
REMARK  status: ('A' for Active; 'I' for Inactive)
REMARK    1  A    between atoms: C_1  and  O_2
REMARK    2  A    between atoms: O_2  and  C_3
REMARK    3  A    between atoms: C_10  and  C_19
REMARK    4  A    between atoms: C_22  and  O_26
REMARK    5  A    between atoms: C_23  and  O_25
REMARK    6  A    between atoms: O_26  and  C_27
REMARK                            x       y       z     vdW  Elec       q    Type
REMARK                         _______ _______ _______ _____ _____    ______ ____
ROOT
ATOM      1  C   UNL     1       1.280   0.851  -0.309  0.00  0.00    +0.141 A 
ATOM      2  C   UNL     1       0.442   1.951  -0.304  0.00  0.00    +0.047 A 
ATOM      3  C   UNL     1       0.975   3.219  -0.160  0.00  0.00    +0.004 A 
ATOM      4  C   UNL     1       2.337   3.384  -0.021  0.00  0.00    +0.006 A 
ATOM      5  C   UNL     1       3.190   2.286  -0.023  0.00  0.00    -0.016 A 
ATOM      6  C   UNL     1       2.661   1.017  -0.168  0.00  0.00    +0.074 A 
ATOM      7  N   UNL     1       3.464  -0.127  -0.182  0.00  0.00    -0.334 N 
ATOM      8  C   UNL     1       4.720   0.071   0.544  0.00  0.00    +0.105 C 
ATOM      9  C   UNL     1       5.482   1.247  -0.070  0.00  0.00    +0.029 C 
ATOM     10  C   UNL     1       4.660   2.538   0.137  0.00  0.00    +0.049 C 
ATOM     11  C   UNL     1       4.978   2.954   1.555  0.00  0.00    -0.023 C 
ATOM     12  C   UNL     1       6.101   2.409   1.951  0.00  0.00    -0.030 C 
ATOM     13  C   UNL     1       6.698   1.557   0.849  0.00  0.00    +0.033 C 
ATOM     14  H   UNL     1       2.962  -0.925   0.176  0.00  0.00    +0.147 HD
ENDROOT
BRANCH   8  15
ATOM     15  C   UNL     1       4.423   0.364   1.992  0.00  0.00    -0.023 A 
ATOM     16  C   UNL     1       3.171   0.820   2.361  0.00  0.00    +0.009 A 
ATOM     17  C   UNL     1       2.894   1.090   3.688  0.00  0.00    +0.050 A 
ATOM     18  C   UNL     1       3.872   0.904   4.652  0.00  0.00    +0.161 A 
ATOM     19  C   UNL     1       5.132   0.446   4.280  0.00  0.00    +0.159 A 
ATOM     20  C   UNL     1       5.402   0.172   2.949  0.00  0.00    +0.054 A 
BRANCH  19  21
ATOM     21  O   UNL     1       6.095   0.262   5.223  0.00  0.00    -0.503 OA
ATOM     22  H   UNL     1       6.104  -0.625   5.608  0.00  0.00    +0.292 HD
ENDBRANCH  19  21
BRANCH  18  23
ATOM     23  O   UNL     1       3.600   1.169   5.957  0.00  0.00    -0.491 OA
ATOM     24  C   UNL     1       2.285   1.636   6.265  0.00  0.00    +0.277 C 
ENDBRANCH  18  23
ENDBRANCH   8  15
BRANCH   1  26
ATOM     25  C   UNL     1      -0.660  -0.496  -0.590  0.00  0.00    +0.277 C 
ATOM     26  O   UNL     1       0.759  -0.397  -0.451  0.00  0.00    -0.493 OA
ENDBRANCH   1  26
TORSDOF 4
