REMARK  Name = ZINC40953577
REMARK  5 active torsions:
REMARK  status: ('A' for Active; 'I' for Inactive)
REMARK    1  A    between atoms: C_1  and  C_2
REMARK    2  A    between atoms: C_7  and  O_10
REMARK    3  A    between atoms: O_10  and  C_11
REMARK    4  A    between atoms: C_11  and  C_13
REMARK    5  A    between atoms: C_13  and  N_20
REMARK                            x       y       z     vdW  Elec       q    Type
REMARK                         _______ _______ _______ _____ _____    ______ ____
ROOT
ATOM      1  C   UNL     1       1.755  -4.265   4.105  0.00  0.00    +0.028 C 
ATOM      2  C   UNL     1       3.064  -4.822   3.514  0.00  0.00    -0.002 C 
ATOM      3  C   UNL     1       3.806  -5.761   4.485  0.00  0.00    -0.001 C 
ATOM      4  C   UNL     1       3.800  -5.247   5.899  0.00  0.00    -0.000 C 
ATOM      5  C   UNL     1       2.610  -5.884   6.646  0.00  0.00    -0.000 C 
ATOM      6  C   UNL     1       1.350  -5.219   6.351  0.00  0.00    -0.001 C 
ATOM      7  C   UNL     1       0.974  -5.308   4.858  0.00  0.00    -0.002 C 
ENDROOT
BRANCH   1   8
ATOM      8  N   UNL     1       2.079  -3.163   5.019  0.00  0.00    +0.389 N 
ATOM      9  H   UNL     1       1.242  -2.640   5.227  0.00  0.00    -0.088 HD
ATOM     10  H   UNL     1       2.463  -3.537   5.875  0.00  0.00    -0.088 HD
ATOM     11  H   UNL     1       2.757  -2.554   4.585  0.00  0.00    -0.088 HD
ENDBRANCH   1   8
BRANCH   1  12
ATOM     12  C   UNL     1       0.901  -3.732   2.983  0.00  0.00    +0.296 C 
ATOM     13  O   UNL     1       0.014  -4.412   2.524  0.00  0.00    -0.252 OA
BRANCH  12  14
ATOM     14  O   UNL     1       1.127  -2.503   2.494  0.00  0.00    -0.462 OA
BRANCH  14  20
ATOM     15  C   UNL     1      -0.925   1.452   0.421  0.00  0.00    +0.007 C 
ATOM     16  C   UNL     1      -0.776  -0.069   0.357  0.00  0.00    -0.011 C 
ATOM     17  C   UNL     1      -0.157  -0.464  -0.986  0.00  0.00    +0.003 C 
ATOM     18  C   UNL     1      -0.008  -1.986  -1.050  0.00  0.00    +0.004 C 
ATOM     19  C   UNL     1       0.899  -2.458   0.088  0.00  0.00    +0.044 C 
ATOM     20  C   UNL     1       0.280  -2.062   1.431  0.00  0.00    +0.177 C 
ATOM     21  C   UNL     1       0.131  -0.541   1.495  0.00  0.00    +0.048 C 
ENDBRANCH  14  20
ENDBRANCH  12  14
ENDBRANCH   1  12
TORSDOF 4
