REMARK  Name = ZINC43253447
REMARK  7 active torsions:
REMARK  status: ('A' for Active; 'I' for Inactive)
REMARK    1  A    between atoms: C_1  and  C_2
REMARK    2  A    between atoms: C_2  and  C_3
REMARK    3  A    between atoms: C_3  and  C_5
REMARK    4  A    between atoms: C_3  and  N_22
REMARK    5  A    between atoms: C_5  and  C_7
REMARK    6  A    between atoms: C_5  and  N_13
REMARK    7  A    between atoms: N_16  and  C_19
REMARK                            x       y       z     vdW  Elec       q    Type
REMARK                         _______ _______ _______ _____ _____    ______ ____
ROOT
ATOM      1  C   UNL     1       0.656  -2.112   1.226  0.00  0.00    +0.079 C 
ENDROOT
BRANCH   1   2
ATOM      2  N   UNL     1       1.454  -2.635   2.342  0.00  0.00    -0.300 NA
ATOM      3  C   UNL     1       2.807  -2.059   2.337  0.00  0.00    +0.066 C 
ATOM      4  C   UNL     1       3.585  -2.581   3.547  0.00  0.00    -0.063 C 
ATOM      5  N   UNL     1       3.658  -4.047   3.486  0.00  0.00    +0.383 N 
ATOM      6  C   UNL     1       2.301  -4.608   3.517  0.00  0.00    -0.063 C 
ATOM      7  C   UNL     1       1.512  -4.103   2.307  0.00  0.00    +0.066 C 
ATOM      8  H   UNL     1       4.118  -4.325   2.633  0.00  0.00    -0.081 HD
BRANCH   5   9
ATOM      9  C   UNL     1       4.421  -4.546   4.638  0.00  0.00    -0.069 C 
ATOM     10  C   UNL     1       5.790  -5.170   4.362  0.00  0.00    -0.017 C 
ATOM     11  C   UNL     1       4.610  -6.060   4.757  0.00  0.00    -0.017 C 
ENDBRANCH   5   9
ENDBRANCH   1   2
BRANCH   1  12
ATOM     12  C   UNL     1      -0.732  -2.697   1.284  0.00  0.00    +0.007 A 
ATOM     13  C   UNL     1      -1.517  -3.136   0.270  0.00  0.00    +0.014 A 
ATOM     14  C   UNL     1      -2.771  -3.639   0.562  0.00  0.00    +0.028 A 
ATOM     15  C   UNL     1      -3.179  -3.678   1.855  0.00  0.00    +0.078 A 
ATOM     16  S   UNL     1      -1.766  -2.997   2.708  0.00  0.00    -0.080 S 
ATOM     17 CL   UNL     1      -4.681  -4.249   2.511  0.00  0.00    -0.076 Cl
ENDBRANCH   1  12
BRANCH   1  18
ATOM     18  C   UNL     1       0.572  -0.588   1.327  0.00  0.00    -0.053 C 
BRANCH  18  19
ATOM     19  N   UNL     1      -0.323  -0.076   0.281  0.00  0.00    +0.381 N 
ATOM     20  H   UNL     1      -0.291   0.933   0.275  0.00  0.00    -0.090 HD
ATOM     21  H   UNL     1      -0.027  -0.428  -0.617  0.00  0.00    -0.090 HD
ATOM     22  H   UNL     1      -1.267  -0.381   0.468  0.00  0.00    -0.090 HD
ENDBRANCH  18  19
BRANCH  18  24
ATOM     23  C   UNL     1       0.059   1.324   2.851  0.00  0.00    +0.002 C 
ATOM     24  C   UNL     1       0.026  -0.198   2.702  0.00  0.00    -0.018 C 
ENDBRANCH  18  24
ENDBRANCH   1  18
TORSDOF 6
