REMARK  Name = ZINC39420643
REMARK  6 active torsions:
REMARK  status: ('A' for Active; 'I' for Inactive)
REMARK    1  A    between atoms: C_8  and  C_10
REMARK    2  A    between atoms: C_12  and  C_16
REMARK    3  A    between atoms: C_16  and  N_17
REMARK    4  A    between atoms: N_17  and  C_18
REMARK    5  A    between atoms: C_18  and  C_19
REMARK    6  A    between atoms: C_19  and  O_25
REMARK                            x       y       z     vdW  Elec       q    Type
REMARK                         _______ _______ _______ _____ _____    ______ ____
ROOT
ATOM      1  C   UNL     1       3.799  -3.358  -0.053  0.00  0.00    +0.219 C 
ATOM      2  C   UNL     1       4.339  -3.623  -1.447  0.00  0.00    -0.034 C 
ATOM      3  C   UNL     1       5.664  -3.559  -1.295  0.00  0.00    +0.134 C 
ATOM      4  N   UNL     1       5.988  -3.294  -0.011  0.00  0.00    -0.162 NA
ATOM      5  N   UNL     1       5.019  -3.169   0.749  0.00  0.00    -0.172 NA
ENDROOT
BRANCH   1  13
ATOM      6  C   UNL     1      -0.017   1.363   0.009  0.00  0.00    +0.001 A 
ATOM      7  C   UNL     1       1.170   2.082   0.002  0.00  0.00    +0.004 A 
ATOM      8  C   UNL     1       2.386   1.432  -0.013  0.00  0.00    +0.047 A 
ATOM      9  C   UNL     1       2.427   0.043  -0.021  0.00  0.00    +0.135 A 
ATOM     10  C   UNL     1       1.222  -0.679  -0.013  0.00  0.00    +0.020 A 
ATOM     11  C   UNL     1       0.002  -0.004   0.002  0.00  0.00    +0.011 A 
ATOM     12  C   UNL     1       1.613  -2.093  -0.025  0.00  0.00    +0.055 A 
ATOM     13  C   UNL     1       2.952  -2.111  -0.038  0.00  0.00    +0.136 A 
ATOM     14  O   UNL     1       3.432  -0.855  -0.036  0.00  0.00    -0.457 OA
ENDBRANCH   1  13
BRANCH   2  15
ATOM     15  C   UNL     1       3.561  -3.896  -2.708  0.00  0.00    -0.047 C 
BRANCH  15  16
ATOM     16  N   UNL     1       3.240  -5.327  -2.786  0.00  0.00    +0.383 N 
ATOM     17  H   UNL     1       4.094  -5.864  -2.795  0.00  0.00    -0.085 HD
ATOM     18  H   UNL     1       2.685  -5.591  -1.985  0.00  0.00    -0.085 HD
BRANCH  16  19
ATOM     19  C   UNL     1       2.481  -5.593  -4.015  0.00  0.00    -0.047 C 
BRANCH  19  20
ATOM     20  C   UNL     1       2.146  -7.084  -4.096  0.00  0.00    +0.051 C 
ATOM     21  C   UNL     1       3.434  -7.902  -3.984  0.00  0.00    +0.033 C 
ATOM     22  C   UNL     1       3.099  -9.393  -4.065  0.00  0.00    +0.003 C 
ATOM     23  C   UNL     1       2.419  -9.692  -5.402  0.00  0.00    +0.000 C 
ATOM     24  C   UNL     1       1.131  -8.873  -5.514  0.00  0.00    +0.003 C 
ATOM     25  C   UNL     1       1.466  -7.382  -5.433  0.00  0.00    +0.033 C 
BRANCH  20  26
ATOM     26  O   UNL     1       1.266  -7.433  -3.025  0.00  0.00    -0.390 OA
ATOM     27  H   UNL     1       1.632  -7.270  -2.146  0.00  0.00    +0.210 HD
ENDBRANCH  20  26
ENDBRANCH  19  20
ENDBRANCH  16  19
ENDBRANCH  15  16
ENDBRANCH   2  15
TORSDOF 6
