REMARK  Name = ZINC64310443
REMARK  8 active torsions:
REMARK  status: ('A' for Active; 'I' for Inactive)
REMARK    1  A    between atoms: C_1  and  C_2
REMARK    2  A    between atoms: C_4  and  C_11
REMARK    3  A    between atoms: C_5  and  C_8
REMARK    4  A    between atoms: C_8  and  C_9
REMARK    5  A    between atoms: C_8  and  C_10
REMARK    6  A    between atoms: N_13  and  C_14
REMARK    7  A    between atoms: C_14  and  C_15
REMARK    8  A    between atoms: C_15  and  C_16
REMARK                            x       y       z     vdW  Elec       q    Type
REMARK                         _______ _______ _______ _____ _____    ______ ____
ROOT
ATOM      1  C   UNL     1      -2.336  -0.641  -0.992  0.00  0.00    +0.245 C 
ATOM      2  O   UNL     1      -3.442  -1.113  -0.803  0.00  0.00    -0.270 OA
ATOM      3  N   UNL     1      -1.994  -0.195  -2.216  0.00  0.00    -0.311 N 
ATOM      4  H   UNL     1      -1.112   0.181  -2.367  0.00  0.00    +0.149 HD
ENDROOT
BRANCH   1   7
ATOM      5  C   UNL     1      -0.019   1.526   0.010  0.00  0.00    +0.033 C 
ATOM      6  C   UNL     1       0.002  -0.004   0.002  0.00  0.00    +0.128 C 
ATOM      7  C   UNL     1      -1.407  -0.562   0.077  0.00  0.00    +0.074 C 
ATOM      8  C   UNL     1      -1.614  -0.967   1.342  0.00  0.00    +0.137 C 
ATOM      9  O   UNL     1      -0.538  -0.746   2.121  0.00  0.00    -0.410 OA
ATOM     10  N   UNL     1       0.630  -0.530   1.242  0.00  0.00    -0.148 NA
ATOM     11  H   UNL     1       1.266   0.146   1.639  0.00  0.00    +0.168 HD
BRANCH   8  12
ATOM     12  C   UNL     1      -2.895  -1.592   1.829  0.00  0.00    +0.051 C 
ATOM     13  C   UNL     1      -2.606  -2.995   2.366  0.00  0.00    +0.015 C 
ATOM     14  C   UNL     1      -3.490  -0.731   2.945  0.00  0.00    +0.015 C 
ENDBRANCH   8  12
ENDBRANCH   1   7
BRANCH   3  15
ATOM     15  C   UNL     1      -2.953  -0.277  -3.321  0.00  0.00    +0.109 C 
BRANCH  15  16
ATOM     16  C   UNL     1      -2.319   0.293  -4.591  0.00  0.00    +0.052 C 
BRANCH  16  17
ATOM     17  C   UNL     1      -3.306   0.209  -5.726  0.00  0.00    -0.040 C 
ATOM     18  C   UNL     1      -4.145   1.182  -6.148  0.00  0.00    -0.001 A 
ATOM     19  C   UNL     1      -4.381   2.557  -5.691  0.00  0.00    +0.013 A 
ATOM     20  C   UNL     1      -5.308   3.309  -6.324  0.00  0.00    +0.039 A 
ATOM     21  C   UNL     1      -6.050   2.809  -7.407  0.00  0.00    +0.125 A 
ATOM     22  C   UNL     1      -5.888   1.552  -7.883  0.00  0.00    +0.064 A 
ATOM     23  C   UNL     1      -4.939   0.677  -7.291  0.00  0.00    +0.046 A 
ATOM     24  N   UNL     1      -4.604  -0.561  -7.565  0.00  0.00    -0.380 N 
ATOM     25  C   UNL     1      -3.554  -0.979  -6.629  0.00  0.00    +0.144 C 
ATOM     26  F   UNL     1      -6.961   3.613  -7.996  0.00  0.00    -0.205 F 
ATOM     27  H   UNL     1      -4.984  -1.108  -8.270  0.00  0.00    +0.160 HD
ENDBRANCH  16  17
ENDBRANCH  15  16
ENDBRANCH   3  15
TORSDOF 5
