REMARK  Name = ZINC32551014
REMARK  8 active torsions:
REMARK  status: ('A' for Active; 'I' for Inactive)
REMARK    1  A    between atoms: C_1  and  C_2
REMARK    2  A    between atoms: C_2  and  N_3
REMARK    3  A    between atoms: C_6  and  C_8
REMARK    4  A    between atoms: N_10  and  C_11
REMARK    5  A    between atoms: C_13  and  N_17
REMARK    6  A    between atoms: N_17  and  C_18
REMARK    7  A    between atoms: C_18  and  C_19
REMARK    8  A    between atoms: C_19  and  N_25
REMARK                            x       y       z     vdW  Elec       q    Type
REMARK                         _______ _______ _______ _____ _____    ______ ____
ROOT
ATOM      1  N   UNL     1      -0.994  -1.692  -6.354  0.00  0.00    +0.380 N 
ATOM      2  H   UNL     1      -0.239  -1.571  -7.013  0.00  0.00    -0.086 HD
ATOM      3  H   UNL     1      -1.201  -2.675  -6.259  0.00  0.00    -0.086 HD
ENDROOT
BRANCH   1  10
ATOM      4  N   UNL     1       0.616  -0.706  -1.143  0.00  0.00    -0.268 N 
ATOM      5  C   UNL     1       0.022  -0.917  -2.329  0.00  0.00    +0.043 A 
ATOM      6  C   UNL     1       0.962  -1.423  -3.164  0.00  0.00    +0.004 A 
ATOM      7  C   UNL     1       2.145  -1.505  -2.410  0.00  0.00    +0.150 A 
ATOM      8  N   UNL     1       1.857  -1.049  -1.203  0.00  0.00    -0.166 NA
ATOM      9  C   UNL     1       0.717  -1.798  -4.600  0.00  0.00    +0.023 C 
ATOM     10  C   UNL     1      -0.598  -1.147  -5.049  0.00  0.00    -0.067 C 
ATOM     11  C   UNL     1      -1.693  -1.442  -4.020  0.00  0.00    -0.009 C 
ATOM     12  C   UNL     1      -1.409  -0.665  -2.728  0.00  0.00    +0.054 C 
BRANCH   7  13
ATOM     13  C   UNL     1       3.457  -1.998  -2.877  0.00  0.00    +0.264 C 
ATOM     14  O   UNL     1       3.587  -2.388  -4.021  0.00  0.00    -0.268 OA
ATOM     15  N   UNL     1       4.508  -2.018  -2.034  0.00  0.00    -0.313 N 
ATOM     16  C   UNL     1       5.809  -2.507  -2.497  0.00  0.00    +0.128 C 
ATOM     17  H   UNL     1       4.404  -1.707  -1.121  0.00  0.00    +0.149 HD
ENDBRANCH   7  13
BRANCH   4  19
ATOM     18  C   UNL     1       0.070   1.364   0.039  0.00  0.00    +0.029 C 
ATOM     19  C   UNL     1      -0.048  -0.161   0.044  0.00  0.00    +0.140 C 
ENDBRANCH   4  19
ENDBRANCH   1  10
BRANCH   1  20
ATOM     20  C   UNL     1      -2.186  -0.985  -6.840  0.00  0.00    -0.095 C 
BRANCH  20  21
ATOM     21  C   UNL     1      -2.517  -1.457  -8.258  0.00  0.00    -0.081 C 
ATOM     22  C   UNL     1      -3.677  -0.629  -8.813  0.00  0.00    -0.014 C 
ATOM     23  C   UNL     1      -4.905  -0.805  -7.917  0.00  0.00    -0.001 C 
ATOM     24  C   UNL     1      -5.303  -2.282  -7.882  0.00  0.00    -0.000 C 
ATOM     25  C   UNL     1      -4.143  -3.110  -7.327  0.00  0.00    -0.001 C 
ATOM     26  C   UNL     1      -2.916  -2.934  -8.223  0.00  0.00    -0.014 C 
BRANCH  21  27
ATOM     27  N   UNL     1      -1.339  -1.288  -9.118  0.00  0.00    +0.382 N 
ATOM     28  C   UNL     1      -0.896   0.111  -9.069  0.00  0.00    -0.078 C 
ATOM     29  C   UNL     1       0.379   0.275  -9.900  0.00  0.00    -0.019 C 
ATOM     30  C   UNL     1       0.091  -0.121 -11.351  0.00  0.00    -0.004 C 
ATOM     31  C   UNL     1      -0.440  -1.557 -11.382  0.00  0.00    -0.019 C 
ATOM     32  C   UNL     1      -1.685  -1.654 -10.497  0.00  0.00    -0.078 C 
ATOM     33  H   UNL     1      -0.595  -1.886  -8.789  0.00  0.00    -0.081 HD
ENDBRANCH  21  27
ENDBRANCH  20  21
ENDBRANCH   1  20
TORSDOF 6
