REMARK  Name = ZINC20293466
REMARK  1 active torsions:
REMARK  status: ('A' for Active; 'I' for Inactive)
REMARK    1  A    between atoms: N_11  and  C_12
REMARK                            x       y       z     vdW  Elec       q    Type
REMARK                         _______ _______ _______ _____ _____    ______ ____
ROOT
ATOM      1  C   UNL     1       0.011   1.423   0.103  0.00  0.00    +0.002 A 
ATOM      2  C   UNL     1       1.203   2.123   0.100  0.00  0.00    +0.002 A 
ATOM      3  C   UNL     1       2.408   1.445   0.055  0.00  0.00    +0.025 A 
ATOM      4  C   UNL     1       2.416   0.062   0.014  0.00  0.00    +0.056 A 
ATOM      5  C   UNL     1       1.213  -0.647   0.015  0.00  0.00    +0.055 A 
ATOM      6  C   UNL     1       0.011   0.041   0.061  0.00  0.00    +0.025 A 
ATOM      7  N   UNL     1       1.236  -2.046  -0.039  0.00  0.00    -0.283 N 
ATOM      8  C   UNL     1       2.375  -2.724   0.196  0.00  0.00    +0.235 C 
ATOM      9  O   UNL     1       2.383  -3.933   0.102  0.00  0.00    -0.274 OA
ATOM     10  C   UNL     1       3.641  -1.998   0.574  0.00  0.00    +0.207 C 
ATOM     11  N   UNL     1       3.620  -0.654  -0.025  0.00  0.00    -0.289 N 
ATOM     12  H   UNL     1       0.422  -2.531  -0.247  0.00  0.00    +0.155 HD
ENDROOT
BRANCH  11  13
ATOM     13  C   UNL     1       4.766  -0.108  -0.616  0.00  0.00    +0.051 A 
ATOM     14  C   UNL     1       4.808   0.129  -1.989  0.00  0.00    +0.028 A 
ATOM     15  C   UNL     1       5.960   0.670  -2.529  0.00  0.00    +0.043 A 
ATOM     16  C   UNL     1       7.032   0.957  -1.691  0.00  0.00    +0.094 A 
ATOM     17  N   UNL     1       6.958   0.718  -0.392  0.00  0.00    -0.348 N 
ATOM     18  C   UNL     1       5.872   0.208   0.159  0.00  0.00    +0.107 A 
ATOM     19  N   UNL     1       8.198   1.501  -2.225  0.00  0.00    -0.345 N 
ATOM     20  H   UNL     1       8.258   1.678  -3.177  0.00  0.00    +0.144 HD
ATOM     21  H   UNL     1       8.949   1.703  -1.646  0.00  0.00    +0.144 HD
ATOM     22  H   UNL     1       7.720   0.927   0.172  0.00  0.00    +0.167 HD
ENDBRANCH  11  13
TORSDOF 1
