REMARK  Name = ZINC10260223
REMARK  8 active torsions:
REMARK  status: ('A' for Active; 'I' for Inactive)
REMARK    1  A    between atoms: C_1  and  C_2
REMARK    2  A    between atoms: C_2  and  C_3
REMARK    3  A    between atoms: C_2  and  C_4
REMARK    4  A    between atoms: C_4  and  C_6
REMARK    5  A    between atoms: C_4  and  N_13
REMARK    6  A    between atoms: N_16  and  N_17
REMARK    7  A    between atoms: C_18  and  C_20
REMARK    8  A    between atoms: N_22  and  C_29
REMARK                            x       y       z     vdW  Elec       q    Type
REMARK                         _______ _______ _______ _____ _____    ______ ____
ROOT
ATOM      1  N   UNL     1       0.031  -0.392   2.498  0.00  0.00    -0.291 N 
ATOM      2  C   UNL     1       0.990  -1.050   1.816  0.00  0.00    +0.316 C 
ATOM      3  O   UNL     1       1.838  -0.427   1.207  0.00  0.00    -0.251 OA
ATOM      4  N   UNL     1       1.008  -2.397   1.809  0.00  0.00    -0.218 N 
ATOM      5  H   UNL     1      -0.646  -0.889   2.984  0.00  0.00    +0.151 HD
ATOM      6  H   UNL     1       1.698  -2.870   1.318  0.00  0.00    +0.174 HD
ENDROOT
BRANCH   4   7
ATOM      7  N   UNL     1       0.030  -3.115   2.510  0.00  0.00    -0.229 N 
ATOM      8  C   UNL     1       0.049  -4.463   2.503  0.00  0.00    +0.262 C 
ATOM      9  O   UNL     1       0.914  -5.056   1.887  0.00  0.00    -0.269 OA
ATOM     10  H   UNL     1      -0.660  -2.642   3.001  0.00  0.00    +0.173 HD
BRANCH   8  11
ATOM     11  C   UNL     1      -0.976  -5.215   3.238  0.00  0.00    +0.063 A 
ATOM     12  C   UNL     1      -2.003  -4.695   3.969  0.00  0.00    +0.099 A 
ATOM     13  N   UNL     1      -2.742  -5.699   4.500  0.00  0.00    -0.349 N 
ATOM     14  C   UNL     1      -2.224  -6.924   4.135  0.00  0.00    +0.050 A 
ATOM     15  C   UNL     1      -1.101  -6.682   3.326  0.00  0.00    +0.012 A 
ATOM     16  C   UNL     1      -0.368  -7.748   2.812  0.00  0.00    +0.011 A 
ATOM     17  C   UNL     1      -0.755  -9.040   3.093  0.00  0.00    +0.001 A 
ATOM     18  C   UNL     1      -1.866  -9.281   3.888  0.00  0.00    +0.002 A 
ATOM     19  C   UNL     1      -2.598  -8.236   4.407  0.00  0.00    +0.026 A 
ATOM     20  C   UNL     1      -3.925  -5.510   5.344  0.00  0.00    +0.149 C 
ENDBRANCH   8  11
ENDBRANCH   4   7
BRANCH   1  21
ATOM     21  C   UNL     1       0.011   1.072   2.506  0.00  0.00    +0.107 C 
BRANCH  21  22
ATOM     22  C   UNL     1      -0.694   1.558   3.746  0.00  0.00    -0.027 A 
ATOM     23  C   UNL     1      -1.830   0.909   4.194  0.00  0.00    +0.007 A 
ATOM     24  C   UNL     1      -2.474   1.351   5.335  0.00  0.00    +0.020 A 
ATOM     25  C   UNL     1      -1.988   2.450   6.021  0.00  0.00    +0.041 A 
ATOM     26  C   UNL     1      -0.855   3.103   5.569  0.00  0.00    +0.020 A 
ATOM     27  C   UNL     1      -0.209   2.656   4.432  0.00  0.00    +0.007 A 
ATOM     28 CL   UNL     1      -2.801   3.010   7.449  0.00  0.00    -0.084 Cl
ENDBRANCH  21  22
BRANCH  21  30
ATOM     29  C   UNL     1      -0.013   1.086   0.008  0.00  0.00    +0.009 C 
ATOM     30  C   UNL     1      -0.729   1.579   1.267  0.00  0.00    +0.008 C 
ATOM     31  C   UNL     1      -0.750   3.109   1.275  0.00  0.00    +0.009 C 
ENDBRANCH  21  30
ENDBRANCH   1  21
TORSDOF 5
