REMARK  Name = ZINC67251590
REMARK  8 active torsions:
REMARK  status: ('A' for Active; 'I' for Inactive)
REMARK    1  A    between atoms: C_3  and  O_23
REMARK    2  A    between atoms: C_6  and  C_7
REMARK    3  A    between atoms: C_7  and  N_8
REMARK    4  A    between atoms: N_8  and  C_9
REMARK    5  A    between atoms: C_9  and  C_10
REMARK    6  A    between atoms: C_10  and  C_16
REMARK    7  A    between atoms: O_23  and  C_24
REMARK    8  A    between atoms: C_24  and  C_25
REMARK                            x       y       z     vdW  Elec       q    Type
REMARK                         _______ _______ _______ _____ _____    ______ ____
ROOT
ATOM      1  N   UNL     1      -1.730  -0.928  -1.428  0.00  0.00    +0.382 N 
ATOM      2  H   UNL     1      -1.943   0.004  -1.754  0.00  0.00    -0.085 HD
ATOM      3  H   UNL     1      -1.075  -1.363  -2.061  0.00  0.00    -0.085 HD
ENDROOT
BRANCH   1   4
ATOM      4  C   UNL     1      -1.140  -0.854  -0.085  0.00  0.00    -0.047 C 
BRANCH   4  10
ATOM      5  C   UNL     1       0.075   1.329   0.062  0.00  0.00    +0.005 A 
ATOM      6  C   UNL     1       1.234   2.079   0.016  0.00  0.00    +0.046 A 
ATOM      7  C   UNL     1       2.451   1.459  -0.232  0.00  0.00    +0.121 A 
ATOM      8  C   UNL     1       2.499   0.087  -0.431  0.00  0.00    +0.046 A 
ATOM      9  C   UNL     1       1.337  -0.659  -0.384  0.00  0.00    +0.005 A 
ATOM     10  C   UNL     1       0.126  -0.038  -0.137  0.00  0.00    -0.064 A 
BRANCH   7  11
ATOM     11  O   UNL     1       3.592   2.195  -0.278  0.00  0.00    -0.483 OA
BRANCH  11  12
ATOM     12  C   UNL     1       4.808   1.490  -0.537  0.00  0.00    +0.324 C 
BRANCH  12  13
ATOM     13  C   UNL     1       5.959   2.462  -0.552  0.00  0.00    +0.248 C 
ATOM     14  O   UNL     1       5.758   3.643  -0.360  0.00  0.00    -0.272 OA
ATOM     15  N   UNL     1       7.212   2.020  -0.779  0.00  0.00    -0.327 N 
ATOM     16  H   UNL     1       7.373   1.076  -0.933  0.00  0.00    +0.145 HD
ATOM     17  H   UNL     1       7.953   2.646  -0.789  0.00  0.00    +0.145 HD
ENDBRANCH  12  13
ENDBRANCH  11  12
ENDBRANCH   7  11
ENDBRANCH   4  10
ENDBRANCH   1   4
BRANCH   1  18
ATOM     18  C   UNL     1      -2.964  -1.723  -1.378  0.00  0.00    -0.070 C 
BRANCH  18  19
ATOM     19  C   UNL     1      -3.508  -1.912  -2.796  0.00  0.00    -0.015 C 
ATOM     20  C   UNL     1      -3.677  -0.545  -3.466  0.00  0.00    +0.038 C 
ATOM     21  C   UNL     1      -4.713   0.271  -2.689  0.00  0.00    +0.160 C 
ATOM     22  O   UNL     1      -5.947  -0.449  -2.643  0.00  0.00    -0.380 OA
ATOM     23  C   UNL     1      -5.860  -1.714  -1.985  0.00  0.00    +0.160 C 
ATOM     24  C   UNL     1      -4.870  -2.610  -2.734  0.00  0.00    +0.038 C 
BRANCH  19  25
ATOM     25  C   UNL     1      -2.546  -2.753  -3.596  0.00  0.00    -0.043 A 
ATOM     26  C   UNL     1      -1.463  -3.345  -2.974  0.00  0.00    +0.005 A 
ATOM     27  C   UNL     1      -0.581  -4.116  -3.707  0.00  0.00    +0.020 A 
ATOM     28  C   UNL     1      -0.782  -4.295  -5.064  0.00  0.00    +0.041 A 
ATOM     29  C   UNL     1      -1.866  -3.702  -5.686  0.00  0.00    +0.020 A 
ATOM     30  C   UNL     1      -2.751  -2.936  -4.951  0.00  0.00    +0.005 A 
ATOM     31 CL   UNL     1       0.326  -5.263  -5.986  0.00  0.00    -0.084 Cl
ENDBRANCH  19  25
ENDBRANCH  18  19
ENDBRANCH   1  18
TORSDOF 8
