REMARK  Name = ZINC36737378
REMARK  4 active torsions:
REMARK  status: ('A' for Active; 'I' for Inactive)
REMARK    1  A    between atoms: C_1  and  C_2
REMARK    2  A    between atoms: C_6  and  C_7
REMARK    3  A    between atoms: N_9  and  C_10
REMARK    4  A    between atoms: C_11  and  N_18
REMARK                            x       y       z     vdW  Elec       q    Type
REMARK                         _______ _______ _______ _____ _____    ______ ____
ROOT
ATOM      1  C   UNL     1       0.165  -0.904   4.817  0.00  0.00    +0.069 A 
ATOM      2  C   UNL     1      -0.015  -1.826   5.848  0.00  0.00    +0.048 A 
ATOM      3  C   UNL     1       0.098  -1.415   7.168  0.00  0.00    +0.040 A 
ATOM      4  C   UNL     1       0.387  -0.093   7.459  0.00  0.00    +0.021 A 
ATOM      5  C   UNL     1       0.565   0.821   6.436  0.00  0.00    +0.032 A 
ATOM      6  C   UNL     1       0.461   0.418   5.117  0.00  0.00    +0.042 A 
ATOM      7 BR   UNL     1       0.714   1.670   3.723  0.00  0.00    -0.048 Br
ATOM      8 BR   UNL     1       0.539   0.464   9.259  0.00  0.00    -0.050 Br
ENDROOT
BRANCH   1  11
ATOM      9  C   UNL     1      -1.146  -1.281   2.865  0.00  0.00    +0.284 C 
ATOM     10  O   UNL     1      -2.145  -0.984   3.494  0.00  0.00    -0.266 OA
ATOM     11  N   UNL     1       0.052  -1.313   3.481  0.00  0.00    -0.277 N 
ATOM     12  H   UNL     1       0.837  -1.619   3.000  0.00  0.00    +0.155 HD
BRANCH   9  18
ATOM     13  C   UNL     1      -3.781  -1.288   1.182  0.00  0.00    +0.048 C 
ATOM     14  C   UNL     1      -2.391  -1.610   0.695  0.00  0.00    -0.000 A 
ATOM     15  C   UNL     1      -2.023  -1.967  -0.611  0.00  0.00    +0.045 A 
ATOM     16  C   UNL     1      -0.686  -2.167  -0.607  0.00  0.00    +0.196 A 
ATOM     17  O   UNL     1      -0.222  -1.950   0.631  0.00  0.00    -0.458 OA
ATOM     18  C   UNL     1      -1.246  -1.604   1.438  0.00  0.00    +0.192 A 
ENDBRANCH   9  18
ENDBRANCH   1  11
BRANCH   2  19
ATOM     19  N   UNL     1      -0.308  -3.161   5.552  0.00  0.00    -0.356 N 
ATOM     20  H   UNL     1      -0.387  -3.447   4.629  0.00  0.00    +0.142 HD
ATOM     21  H   UNL     1      -0.433  -3.801   6.270  0.00  0.00    +0.142 HD
ENDBRANCH   2  19
TORSDOF 3
