REMARK  Name = ZINC35368954
REMARK  2 active torsions:
REMARK  status: ('A' for Active; 'I' for Inactive)
REMARK    1  A    between atoms: C_3  and  C_6
REMARK    2  A    between atoms: C_6  and  C_8
REMARK                            x       y       z     vdW  Elec       q    Type
REMARK                         _______ _______ _______ _____ _____    ______ ____
ROOT
ATOM      1  C   UNL     1       4.795   0.656   0.071  0.00  0.00    +0.025 A 
ATOM      2  C   UNL     1       4.479  -0.706   0.062  0.00  0.00    +0.013 A 
ATOM      3  C   UNL     1       5.483  -1.638   0.151  0.00  0.00    +0.026 A 
ATOM      4  C   UNL     1       6.823  -1.246   0.252  0.00  0.00    +0.055 A 
ATOM      5  C   UNL     1       7.144   0.104   0.262  0.00  0.00    +0.056 A 
ATOM      6  C   UNL     1       6.127   1.052   0.165  0.00  0.00    +0.037 A 
ATOM      7  N   UNL     1       8.445   0.590   0.359  0.00  0.00    -0.284 N 
ATOM      8  C   UNL     1       9.396   0.106   1.154  0.00  0.00    +0.226 C 
ATOM      9  O   UNL     1      10.483   0.643   1.177  0.00  0.00    -0.275 OA
ATOM     10  C   UNL     1       9.146  -1.097   2.027  0.00  0.00    +0.192 C 
ATOM     11  C   UNL     1       8.829  -2.269   1.135  0.00  0.00    +0.226 C 
ATOM     12  O   UNL     1       9.558  -3.239   1.146  0.00  0.00    -0.275 OA
ATOM     13  N   UNL     1       7.765  -2.261   0.337  0.00  0.00    -0.284 N 
ATOM     14  H   UNL     1       8.679   1.345  -0.202  0.00  0.00    +0.155 HD
ATOM     15  H   UNL     1       7.636  -3.033  -0.236  0.00  0.00    +0.155 HD
ENDROOT
BRANCH   1  16
ATOM     16  C   UNL     1       3.724   1.668  -0.025  0.00  0.00    +0.200 C 
ATOM     17  O   UNL     1       3.986   2.848   0.126  0.00  0.00    -0.286 OA
BRANCH  16  20
ATOM     18  C   UNL     1       0.029   1.339  -0.597  0.00  0.00    +0.008 A 
ATOM     19  C   UNL     1       1.185   2.014  -0.294  0.00  0.00    +0.019 A 
ATOM     20  C   UNL     1       2.347   1.253  -0.301  0.00  0.00    +0.059 A 
ATOM     21  S   UNL     1       1.725  -0.360  -0.734  0.00  0.00    -0.093 S 
ATOM     22  C   UNL     1       0.093   0.012  -0.875  0.00  0.00    +0.046 A 
ENDBRANCH  16  20
ENDBRANCH   1  16
TORSDOF 2
