REMARK  Name = ZINC44799587
REMARK  5 active torsions:
REMARK  status: ('A' for Active; 'I' for Inactive)
REMARK    1  A    between atoms: C_1  and  C_2
REMARK    2  A    between atoms: C_2  and  C_3
REMARK    3  A    between atoms: C_3  and  C_5
REMARK    4  A    between atoms: C_3  and  C_7
REMARK    5  A    between atoms: C_5  and  N_6
REMARK                            x       y       z     vdW  Elec       q    Type
REMARK                         _______ _______ _______ _____ _____    ______ ____
ROOT
ATOM      1  C   UNL     1      -2.128  -0.047  -1.100  0.00  0.00    +0.222 C 
ATOM      2  O   UNL     1      -2.744  -0.849  -1.770  0.00  0.00    -0.275 OA
ATOM      3  N   UNL     1      -2.146   1.260  -1.428  0.00  0.00    -0.261 N 
ATOM      4  C   UNL     1      -1.500   2.267  -0.572  0.00  0.00    +0.209 C 
ATOM      5  C   UNL     1      -2.394   3.477  -0.476  0.00  0.00    +0.235 C 
ATOM      6  O   UNL     1      -2.362   4.168   0.519  0.00  0.00    -0.274 OA
ATOM      7  N   UNL     1      -3.228   3.799  -1.483  0.00  0.00    -0.283 N 
ATOM      8  C   UNL     1      -3.322   2.991  -2.622  0.00  0.00    +0.055 A 
ATOM      9  C   UNL     1      -2.775   1.704  -2.602  0.00  0.00    +0.058 A 
ATOM     10  C   UNL     1      -2.860   0.891  -3.718  0.00  0.00    +0.025 A 
ATOM     11  C   UNL     1      -3.483   1.359  -4.862  0.00  0.00    +0.002 A 
ATOM     12  C   UNL     1      -4.019   2.633  -4.889  0.00  0.00    +0.002 A 
ATOM     13  C   UNL     1      -3.946   3.453  -3.769  0.00  0.00    +0.025 A 
ATOM     14  H   UNL     1      -3.771   4.601  -1.418  0.00  0.00    +0.155 HD
ENDROOT
BRANCH   1  15
ATOM     15  C   UNL     1      -1.343  -0.512   0.100  0.00  0.00    +0.058 C 
BRANCH  15  17
ATOM     16  C   UNL     1       0.279  -1.790  -1.307  0.00  0.00    +0.004 C 
ATOM     17  C   UNL     1      -0.753  -1.895  -0.182  0.00  0.00    +0.007 C 
ENDBRANCH  15  17
BRANCH  15  18
ATOM     18  C   UNL     1      -2.268  -0.590   1.315  0.00  0.00    -0.074 C 
BRANCH  18  19
ATOM     19  N   UNL     1      -1.481  -0.927   2.509  0.00  0.00    +0.379 N 
ATOM     20  H   UNL     1      -1.029  -1.819   2.373  0.00  0.00    -0.090 HD
ATOM     21  H   UNL     1      -0.783  -0.215   2.663  0.00  0.00    -0.090 HD
ATOM     22  H   UNL     1      -2.091  -0.979   3.311  0.00  0.00    -0.090 HD
ENDBRANCH  18  19
ENDBRANCH  15  18
ENDBRANCH   1  15
TORSDOF 4
