REMARK  Name = ZINC28331026
REMARK  7 active torsions:
REMARK  status: ('A' for Active; 'I' for Inactive)
REMARK    1  A    between atoms: C_4  and  C_7
REMARK    2  A    between atoms: C_7  and  O_8
REMARK    3  A    between atoms: O_8  and  C_9
REMARK    4  A    between atoms: C_15  and  C_28
REMARK    5  A    between atoms: N_17  and  S_18
REMARK    6  A    between atoms: S_18  and  C_21
REMARK    7  A    between atoms: C_24  and  N_27
REMARK                            x       y       z     vdW  Elec       q    Type
REMARK                         _______ _______ _______ _____ _____    ______ ____
ROOT
ATOM      1  C   UNL     1      -2.415   3.761   3.345  0.00  0.00    +0.122 A 
ATOM      2  C   UNL     1      -3.628   4.260   2.877  0.00  0.00    +0.048 A 
ATOM      3  C   UNL     1      -4.007   4.068   1.568  0.00  0.00    +0.032 A 
ATOM      4  C   UNL     1      -3.176   3.369   0.698  0.00  0.00    +0.073 A 
ATOM      5  C   UNL     1      -1.952   2.865   1.168  0.00  0.00    +0.012 A 
ATOM      6  C   UNL     1      -1.577   3.065   2.496  0.00  0.00    +0.056 A 
ATOM      7  C   UNL     1      -1.323   2.190   0.020  0.00  0.00    +0.005 A 
ATOM      8  C   UNL     1      -2.174   2.331  -1.029  0.00  0.00    +0.121 A 
ATOM      9  N   UNL     1      -3.280   3.025  -0.634  0.00  0.00    -0.218 N 
ENDROOT
BRANCH   7  10
ATOM     10  C   UNL     1      -0.018   1.499   0.010  0.00  0.00    -0.046 C 
ATOM     11  C   UNL     1       1.080   2.224   0.004  0.00  0.00    -0.042 C 
ATOM     12  C   UNL     1       2.457   1.625  -0.020  0.00  0.00    -0.055 C 
ATOM     13  N   UNL     1       2.402   0.211   0.371  0.00  0.00    +0.382 N 
ATOM     14  C   UNL     1       1.387  -0.499  -0.424  0.00  0.00    -0.078 C 
ATOM     15  C   UNL     1       0.002  -0.004   0.002  0.00  0.00    +0.016 C 
ATOM     16  H   UNL     1       3.384  -0.255   0.199  0.00  0.00    -0.085 HD
ATOM     17  H   UNL     1       2.142   0.135   1.437  0.00  0.00    -0.085 HD
ENDBRANCH   7  10
BRANCH   9  18
ATOM     18  S   UNL     1      -4.559   3.405  -1.614  0.00  0.00    +0.084 S 
ATOM     19  O   UNL     1      -4.811   4.792  -1.433  0.00  0.00    -0.148 OA
ATOM     20  O   UNL     1      -4.276   2.843  -2.888  0.00  0.00    -0.148 OA
BRANCH  18  21
ATOM     21  C   UNL     1      -5.967   2.551  -0.988  0.00  0.00    +0.111 A 
ATOM     22  C   UNL     1      -6.264   1.281  -1.447  0.00  0.00    +0.031 A 
ATOM     23  C   UNL     1      -7.364   0.607  -0.954  0.00  0.00    +0.024 A 
ATOM     24  C   UNL     1      -8.179   1.210  -0.004  0.00  0.00    +0.025 A 
ATOM     25  C   UNL     1      -7.880   2.488   0.450  0.00  0.00    +0.024 A 
ATOM     26  C   UNL     1      -6.776   3.155  -0.043  0.00  0.00    +0.031 A 
BRANCH  24  27
ATOM     27  N   UNL     1      -9.295   0.533   0.492  0.00  0.00    -0.358 N 
ATOM     28  H   UNL     1      -9.939   1.012   1.244  0.00  0.00    +0.142 HD
ATOM     29  H   UNL     1      -9.530  -0.479   0.130  0.00  0.00    +0.142 HD
ENDBRANCH  24  27
ENDBRANCH  18  21
ENDBRANCH   9  18
BRANCH   1  30
ATOM     30  O   UNL     1      -2.055   3.959   4.641  0.00  0.00    -0.487 OA
BRANCH  30  31
ATOM     31  C   UNL     1      -2.968   4.687   5.464  0.00  0.00    +0.264 C 
BRANCH  31  35
ATOM     32  C   UNL     1      -1.369   5.026   9.411  0.00  0.00    +0.000 A 
ATOM     33  C   UNL     1      -1.089   5.995   8.466  0.00  0.00    +0.000 A 
ATOM     34  C   UNL     1      -1.606   5.885   7.188  0.00  0.00    +0.007 A 
ATOM     35  C   UNL     1      -2.404   4.806   6.856  0.00  0.00    -0.010 A 
ATOM     36  C   UNL     1      -2.689   3.840   7.803  0.00  0.00    +0.007 A 
ATOM     37  C   UNL     1      -2.167   3.947   9.079  0.00  0.00    +0.000 A 
ENDBRANCH  31  35
ENDBRANCH  30  31
ENDBRANCH   1  30
TORSDOF 7
