REMARK  Name = ZINC00940764
REMARK  7 active torsions:
REMARK  status: ('A' for Active; 'I' for Inactive)
REMARK    1  A    between atoms: C_1  and  C_2
REMARK    2  A    between atoms: C_2  and  O_3
REMARK    3  A    between atoms: O_3  and  C_4
REMARK    4  A    between atoms: C_7  and  C_10
REMARK    5  A    between atoms: C_12  and  C_26
REMARK    6  A    between atoms: C_13  and  C_25
REMARK    7  A    between atoms: C_18  and  C_20
REMARK                            x       y       z     vdW  Elec       q    Type
REMARK                         _______ _______ _______ _____ _____    ______ ____
ROOT
ATOM      1  C   UNL     1       0.991  -6.106   1.816  0.00  0.00    +0.164 C 
ATOM      2  C   UNL     1       0.096  -6.586   2.946  0.00  0.00    +0.059 C 
ATOM      3  C   UNL     1       0.709  -7.139   4.035  0.00  0.00    +0.026 C 
ATOM      4  N   UNL     1       2.025  -7.258   4.115  0.00  0.00    -0.330 N 
ATOM      5  C   UNL     1       2.878  -6.868   3.179  0.00  0.00    +0.215 C 
ATOM      6  N   UNL     1       2.433  -6.288   2.017  0.00  0.00    -0.209 N 
ATOM      7  N   UNL     1       3.563  -5.993   1.250  0.00  0.00    -0.244 N 
ATOM      8  C   UNL     1       4.645  -6.408   1.988  0.00  0.00    +0.153 C 
ATOM      9  N   UNL     1       4.215  -6.921   3.119  0.00  0.00    -0.197 NA
ATOM     10  C   UNL     1      -0.140  -7.628   5.181  0.00  0.00    +0.064 C 
ATOM     11  H   UNL     1       2.391  -7.660   4.918  0.00  0.00    +0.168 HD
ATOM     12  H   UNL     1       3.580  -5.578   0.373  0.00  0.00    +0.172 HD
ENDROOT
BRANCH   1  16
ATOM     13  C   UNL     1       0.245  -1.943   1.202  0.00  0.00    +0.121 A 
ATOM     14  C   UNL     1      -0.356  -2.885   0.381  0.00  0.00    +0.046 A 
ATOM     15  C   UNL     1      -0.114  -4.231   0.581  0.00  0.00    +0.009 A 
ATOM     16  C   UNL     1       0.728  -4.638   1.599  0.00  0.00    -0.021 A 
ATOM     17  C   UNL     1       1.328  -3.702   2.420  0.00  0.00    +0.009 A 
ATOM     18  C   UNL     1       1.094  -2.355   2.220  0.00  0.00    +0.046 A 
BRANCH  13  19
ATOM     19  O   UNL     1       0.009  -0.620   1.007  0.00  0.00    -0.492 OA
BRANCH  19  21
ATOM     20  C   UNL     1      -1.019   1.253  -0.124  0.00  0.00    +0.048 C 
ATOM     21  C   UNL     1      -0.876  -0.269  -0.059  0.00  0.00    +0.225 C 
ENDBRANCH  19  21
ENDBRANCH  13  19
ENDBRANCH   1  16
BRANCH   8  22
ATOM     22  C   UNL     1       6.046  -6.300   1.581  0.00  0.00    +0.053 A 
ATOM     23  C   UNL     1       7.189  -6.698   2.263  0.00  0.00    +0.019 A 
ATOM     24  C   UNL     1       8.379  -6.463   1.619  0.00  0.00    +0.008 A 
ATOM     25  C   UNL     1       8.362  -5.875   0.396  0.00  0.00    +0.046 A 
ATOM     26  S   UNL     1       6.731  -5.630   0.078  0.00  0.00    -0.094 S 
ENDBRANCH   8  22
BRANCH   2  27
ATOM     27  C   UNL     1      -1.303  -6.465   2.874  0.00  0.00    +0.241 C 
ATOM     28  O   UNL     1      -1.952  -7.272   2.231  0.00  0.00    -0.271 OA
ATOM     29  N   UNL     1      -1.926  -5.457   3.516  0.00  0.00    -0.325 N 
ATOM     30  H   UNL     1      -1.418  -4.856   4.083  0.00  0.00    +0.145 HD
ATOM     31  H   UNL     1      -2.882  -5.333   3.412  0.00  0.00    +0.145 HD
ENDBRANCH   2  27
TORSDOF 5
