REMARK  Name = ZINC49078961
REMARK  7 active torsions:
REMARK  status: ('A' for Active; 'I' for Inactive)
REMARK    1  A    between atoms: C_3  and  C_19
REMARK    2  A    between atoms: C_4  and  C_15
REMARK    3  A    between atoms: C_6  and  N_7
REMARK    4  A    between atoms: N_7  and  C_8
REMARK    5  A    between atoms: C_8  and  C_9
REMARK    6  A    between atoms: C_9  and  N_10
REMARK    7  A    between atoms: C_19  and  N_21
REMARK                            x       y       z     vdW  Elec       q    Type
REMARK                         _______ _______ _______ _____ _____    ______ ____
ROOT
ATOM      1  C   UNL     1       0.113   1.257   0.671  0.00  0.00    +0.023 A 
ATOM      2  C   UNL     1       1.328   1.904   0.683  0.00  0.00    +0.012 A 
ATOM      3  C   UNL     1       2.418   1.352   0.004  0.00  0.00    +0.015 A 
ATOM      4  C   UNL     1       2.270   0.143  -0.684  0.00  0.00    +0.066 A 
ATOM      5  C   UNL     1       1.053  -0.498  -0.691  0.00  0.00    +0.036 A 
ATOM      6  C   UNL     1      -0.031   0.055  -0.015  0.00  0.00    +0.028 A 
ENDROOT
BRANCH   4   7
ATOM      7  C   UNL     1       3.443  -0.456  -1.417  0.00  0.00    +0.418 C 
ATOM      8  F   UNL     1       3.008  -1.543  -2.184  0.00  0.00    -0.166 F 
ATOM      9  F   UNL     1       4.010   0.509  -2.256  0.00  0.00    -0.166 F 
ATOM     10  F   UNL     1       4.398  -0.890  -0.493  0.00  0.00    -0.166 F 
ENDBRANCH   4   7
BRANCH   6  11
ATOM     11  N   UNL     1      -1.260  -0.596  -0.024  0.00  0.00    -0.342 N 
ATOM     12  H   UNL     1      -1.362  -1.435  -0.501  0.00  0.00    +0.146 HD
BRANCH  11  13
ATOM     13  C   UNL     1      -2.402  -0.016   0.689  0.00  0.00    +0.123 C 
BRANCH  13  14
ATOM     14  C   UNL     1      -3.622  -0.924   0.521  0.00  0.00    +0.141 C 
BRANCH  14  15
ATOM     15  N   UNL     1      -4.763  -0.344   1.233  0.00  0.00    -0.337 N 
ATOM     16  C   UNL     1      -5.107  -0.570   2.538  0.00  0.00    +0.104 A 
ATOM     17  C   UNL     1      -6.213   0.158   2.782  0.00  0.00    +0.101 A 
ATOM     18  N   UNL     1      -6.537   0.810   1.656  0.00  0.00    -0.352 N 
ATOM     19  C   UNL     1      -5.670   0.519   0.725  0.00  0.00    +0.173 A 
ATOM     20  H   UNL     1      -7.294   1.408   1.551  0.00  0.00    +0.166 HD
ENDBRANCH  14  15
ENDBRANCH  13  14
ENDBRANCH  11  13
ENDBRANCH   6  11
BRANCH   3  21
ATOM     21  C   UNL     1       3.720   2.041   0.013  0.00  0.00    +0.077 C 
ATOM     22  S   UNL     1       5.168   1.136   0.139  0.00  0.00    -0.035 S 
BRANCH  21  23
ATOM     23  N   UNL     1       3.772   3.385  -0.076  0.00  0.00    -0.352 N 
ATOM     24  H   UNL     1       2.952   3.898  -0.147  0.00  0.00    +0.143 HD
ATOM     25  H   UNL     1       4.629   3.839  -0.070  0.00  0.00    +0.143 HD
ENDBRANCH  21  23
ENDBRANCH   3  21
TORSDOF 7
