REMARK  Name = ZINC64715647
REMARK  6 active torsions:
REMARK  status: ('A' for Active; 'I' for Inactive)
REMARK    1  A    between atoms: C_1  and  C_2
REMARK    2  A    between atoms: C_7  and  C_10
REMARK    3  A    between atoms: C_11  and  C_13
REMARK    4  A    between atoms: C_13  and  C_15
REMARK    5  A    between atoms: C_13  and  N_25
REMARK    6  A    between atoms: C_15  and  C_16
REMARK                            x       y       z     vdW  Elec       q    Type
REMARK                         _______ _______ _______ _____ _____    ______ ____
ROOT
ATOM      1  C   UNL     1      -2.006  -4.310  -0.421  0.00  0.00    +0.165 C 
ENDROOT
BRANCH   1  10
ATOM      2  C   UNL     1      -0.019   1.526   0.010  0.00  0.00    +0.039 C 
ATOM      3  C   UNL     1       0.002  -0.004   0.002  0.00  0.00    +0.133 C 
ATOM      4  C   UNL     1      -1.436  -0.536   0.015  0.00  0.00    +0.139 C 
ATOM      5  N   UNL     1      -1.389  -1.995   0.196  0.00  0.00    -0.295 N 
ATOM      6  C   UNL     1      -0.578  -2.530   1.302  0.00  0.00    +0.139 C 
ATOM      7  C   UNL     1       0.818  -1.901   1.226  0.00  0.00    +0.133 C 
ATOM      8  O   UNL     1       0.691  -0.479   1.161  0.00  0.00    -0.371 OA
ATOM      9  C   UNL     1       1.539  -2.407  -0.025  0.00  0.00    +0.039 C 
ATOM     10  C   UNL     1      -2.069  -2.818  -0.627  0.00  0.00    +0.236 C 
ATOM     11  O   UNL     1      -2.732  -2.358  -1.532  0.00  0.00    -0.274 OA
ENDBRANCH   1  10
BRANCH   1  12
ATOM     12  N   UNL     1      -2.398  -4.990  -1.658  0.00  0.00    -0.288 N 
ATOM     13  C   UNL     1      -3.624  -4.785  -2.180  0.00  0.00    +0.298 C 
ATOM     14  O   UNL     1      -4.404  -4.036  -1.625  0.00  0.00    -0.253 OA
ATOM     15  N   UNL     1      -3.985  -5.411  -3.318  0.00  0.00    -0.313 N 
ATOM     16  H   UNL     1      -1.776  -5.588  -2.101  0.00  0.00    +0.151 HD
ATOM     17  H   UNL     1      -3.362  -6.009  -3.761  0.00  0.00    +0.146 HD
ATOM     18  H   UNL     1      -4.867  -5.263  -3.694  0.00  0.00    +0.146 HD
ENDBRANCH   1  12
BRANCH   1  19
ATOM     19  C   UNL     1      -2.960  -4.711   0.706  0.00  0.00    +0.065 C 
BRANCH  19  20
ATOM     20  C   UNL     1      -2.807  -6.182   0.994  0.00  0.00    -0.039 C 
ATOM     21  C   UNL     1      -2.030  -6.747   1.946  0.00  0.00    -0.001 A 
ATOM     22  C   UNL     1      -1.128  -6.184   2.958  0.00  0.00    +0.010 A 
ATOM     23  C   UNL     1      -0.470  -7.023   3.790  0.00  0.00    +0.001 A 
ATOM     24  C   UNL     1      -0.627  -8.413   3.710  0.00  0.00    +0.002 A 
ATOM     25  C   UNL     1      -1.437  -9.005   2.807  0.00  0.00    +0.026 A 
ATOM     26  C   UNL     1      -2.178  -8.219   1.882  0.00  0.00    +0.043 A 
ATOM     27  N   UNL     1      -3.014  -8.550   0.928  0.00  0.00    -0.380 N 
ATOM     28  C   UNL     1      -3.496  -7.324   0.282  0.00  0.00    +0.144 C 
ATOM     29  H   UNL     1      -3.273  -9.454   0.692  0.00  0.00    +0.160 HD
ENDBRANCH  19  20
ENDBRANCH   1  19
TORSDOF 4
