REMARK  Name = ZINC38875509
REMARK  6 active torsions:
REMARK  status: ('A' for Active; 'I' for Inactive)
REMARK    1  A    between atoms: C_2  and  C_3
REMARK    2  A    between atoms: C_3  and  N_4
REMARK    3  A    between atoms: C_8  and  S_24
REMARK    4  A    between atoms: N_13  and  C_14
REMARK    5  A    between atoms: C_14  and  C_16
REMARK    6  A    between atoms: S_24  and  N_27
REMARK                            x       y       z     vdW  Elec       q    Type
REMARK                         _______ _______ _______ _____ _____    ______ ____
ROOT
ATOM      1  N   UNL     1       1.357   1.975  -0.000  0.00  0.00    -0.310 N 
ATOM      2  C   UNL     1       2.020   2.204   1.190  0.00  0.00    +0.059 A 
ATOM      3  C   UNL     1       1.569   2.020   2.505  0.00  0.00    +0.029 A 
ATOM      4  C   UNL     1       2.386   2.308   3.573  0.00  0.00    +0.030 A 
ATOM      5  C   UNL     1       3.673   2.785   3.383  0.00  0.00    +0.106 A 
ATOM      6  C   UNL     1       4.143   2.974   2.095  0.00  0.00    +0.045 A 
ATOM      7  C   UNL     1       3.326   2.687   1.027  0.00  0.00    +0.041 A 
ATOM      8  S   UNL     1       3.506   2.777  -0.735  0.00  0.00    -0.052 S 
ATOM      9  C   UNL     1       1.985   2.217  -1.180  0.00  0.00    +0.168 A 
ATOM     10  N   UNL     1       1.505   2.050  -2.408  0.00  0.00    -0.152 NA
ENDROOT
BRANCH   5  11
ATOM     11  S   UNL     1       4.701   3.147   4.767  0.00  0.00    +0.056 S 
ATOM     12  O   UNL     1       5.662   4.094   4.322  0.00  0.00    -0.153 OA
ATOM     13  O   UNL     1       3.832   3.401   5.863  0.00  0.00    -0.153 OA
BRANCH  11  14
ATOM     14  N   UNL     1       5.533   1.764   5.134  0.00  0.00    -0.204 NA
ATOM     15  H   UNL     1       6.417   1.820   5.531  0.00  0.00    +0.144 HD
ATOM     16  H   UNL     1       5.138   0.897   4.953  0.00  0.00    +0.144 HD
ENDBRANCH  11  14
ENDBRANCH   5  11
BRANCH  10  17
ATOM     17  C   UNL     1       2.266   2.340  -3.468  0.00  0.00    +0.271 C 
ATOM     18  O   UNL     1       3.400   2.757  -3.309  0.00  0.00    -0.268 OA
BRANCH  17  19
ATOM     19  C   UNL     1       1.732   2.154  -4.836  0.00  0.00    +0.057 A 
ATOM     20  C   UNL     1       0.431   1.682  -5.021  0.00  0.00    +0.017 A 
ATOM     21  C   UNL     1      -0.062   1.511  -6.297  0.00  0.00    +0.039 A 
ATOM     22  C   UNL     1       0.731   1.807  -7.396  0.00  0.00    +0.125 A 
ATOM     23  C   UNL     1       2.022   2.275  -7.218  0.00  0.00    +0.059 A 
ATOM     24  C   UNL     1       2.525   2.456  -5.945  0.00  0.00    +0.056 A 
ATOM     25 CL   UNL     1       4.141   3.050  -5.723  0.00  0.00    -0.083 Cl
ATOM     26  F   UNL     1       0.242   1.636  -8.643  0.00  0.00    -0.205 F 
ENDBRANCH  17  19
ENDBRANCH  10  17
BRANCH   1  27
ATOM     27  C   UNL     1      -0.018   1.468   0.010  0.00  0.00    +0.212 C 
BRANCH  27  29
ATOM     28  C   UNL     1       0.018  -1.178  -0.004  0.00  0.00    +0.005 C 
ATOM     29  C   UNL     1       0.002  -0.004   0.002  0.00  0.00    -0.084 C 
ENDBRANCH  27  29
ENDBRANCH   1  27
TORSDOF 6
