REMARK  Name = ZINC02570789
REMARK  4 active torsions:
REMARK  status: ('A' for Active; 'I' for Inactive)
REMARK    1  A    between atoms: C_1  and  C_2
REMARK    2  A    between atoms: N_8  and  N_9
REMARK    3  A    between atoms: C_10  and  C_11
REMARK    4  A    between atoms: C_16  and  O_17
REMARK                            x       y       z     vdW  Elec       q    Type
REMARK                         _______ _______ _______ _____ _____    ______ ____
ROOT
ATOM      1  N   UNL     1       3.514  -2.322   2.088  0.00  0.00    -0.155 NA
ATOM      2  C   UNL     1       4.546  -3.005   2.502  0.00  0.00    +0.146 C 
ENDROOT
BRANCH   1   9
ATOM      3  C   UNL     1      -0.019   1.526   0.010  0.00  0.00    +0.029 C 
ATOM      4  C   UNL     1       0.002  -0.004   0.002  0.00  0.00    +0.137 C 
ATOM      5  C   UNL     1       0.787  -0.538  -1.186  0.00  0.00    +0.232 C 
ATOM      6  O   UNL     1       0.449  -0.324  -2.330  0.00  0.00    -0.274 OA
ATOM      7  N   UNL     1       1.861  -1.250  -0.892  0.00  0.00    -0.263 N 
ATOM      8  C   UNL     1       2.253  -1.498   0.407  0.00  0.00    +0.183 C 
ATOM      9  N   UNL     1       3.294  -2.188   0.824  0.00  0.00    -0.127 NA
ATOM     10  S   UNL     1       1.014  -0.665   1.390  0.00  0.00    -0.076 S 
ATOM     11  H   UNL     1       2.394  -1.612  -1.617  0.00  0.00    +0.157 HD
ENDBRANCH   1   9
BRANCH   2  12
ATOM     12  C   UNL     1       4.796  -3.158   3.944  0.00  0.00    +0.036 A 
ATOM     13  C   UNL     1       5.904  -3.884   4.392  0.00  0.00    +0.013 A 
ATOM     14  C   UNL     1       6.133  -4.024   5.744  0.00  0.00    +0.001 A 
ATOM     15  C   UNL     1       5.270  -3.448   6.661  0.00  0.00    +0.004 A 
ATOM     16  C   UNL     1       4.171  -2.727   6.231  0.00  0.00    +0.046 A 
ATOM     17  C   UNL     1       3.929  -2.571   4.877  0.00  0.00    +0.125 A 
BRANCH  17  18
ATOM     18  O   UNL     1       2.853  -1.859   4.454  0.00  0.00    -0.506 OA
ATOM     19  H   UNL     1       2.051  -2.388   4.338  0.00  0.00    +0.292 HD
ENDBRANCH  17  18
ENDBRANCH   2  12
TORSDOF 3
