REMARK  Name = ZINC13534318
REMARK  7 active torsions:
REMARK  status: ('A' for Active; 'I' for Inactive)
REMARK    1  A    between atoms: C_1  and  N_2
REMARK    2  A    between atoms: N_7  and  C_10
REMARK    3  A    between atoms: N_11  and  C_17
REMARK    4  A    between atoms: N_14  and  C_15
REMARK    5  A    between atoms: C_15  and  C_16
REMARK    6  A    between atoms: C_16  and  N_44
REMARK    7  A    between atoms: C_17  and  C_18
REMARK                            x       y       z     vdW  Elec       q    Type
REMARK                         _______ _______ _______ _____ _____    ______ ____
ROOT
ATOM      1  C   UNL     1      -1.773   4.862  -4.477  0.00  0.00    +0.155 C 
ATOM      2  N   UNL     1      -0.982   4.581  -3.277  0.00  0.00    -0.280 N 
ATOM      3  C   UNL     1      -1.064   3.339  -2.668  0.00  0.00    +0.170 A 
ATOM      4  C   UNL     1      -0.302   3.099  -1.530  0.00  0.00    +0.153 A 
ATOM      5  C   UNL     1       0.526   4.120  -1.030  0.00  0.00    +0.282 A 
ATOM      6  O   UNL     1       1.202   3.931  -0.034  0.00  0.00    -0.265 OA
ATOM      7  N   UNL     1       0.565   5.309  -1.665  0.00  0.00    -0.262 N 
ATOM      8  C   UNL     1      -0.176   5.531  -2.765  0.00  0.00    +0.333 A 
ATOM      9  O   UNL     1      -0.116   6.616  -3.311  0.00  0.00    -0.246 OA
ATOM     10  C   UNL     1       1.426   6.375  -1.149  0.00  0.00    +0.157 C 
ATOM     11  N   UNL     1      -0.579   1.795  -1.142  0.00  0.00    -0.302 N 
ATOM     12  C   UNL     1      -1.472   1.301  -2.040  0.00  0.00    +0.198 A 
ATOM     13  N   UNL     1      -1.753   2.228  -2.933  0.00  0.00    -0.196 NA
ATOM     14  N   UNL     1      -2.003   0.032  -2.017  0.00  0.00    -0.317 N 
ATOM     15  H   UNL     1      -1.744  -0.590  -1.320  0.00  0.00    +0.149 HD
ENDROOT
BRANCH  14  16
ATOM     16  C   UNL     1      -2.961  -0.380  -3.047  0.00  0.00    +0.085 C 
BRANCH  16  17
ATOM     17  C   UNL     1      -3.393  -1.826  -2.792  0.00  0.00    -0.067 C 
BRANCH  17  20
ATOM     18  H   UNL     1      -3.964  -2.120  -4.748  0.00  0.00    -0.090 HD
ATOM     19  H   UNL     1      -4.654  -3.191  -3.679  0.00  0.00    -0.090 HD
ATOM     20  N   UNL     1      -4.371  -2.222  -3.820  0.00  0.00    +0.379 N 
ATOM     21  H   UNL     1      -5.199  -1.618  -3.749  0.00  0.00    -0.090 HD
ENDBRANCH  17  20
ENDBRANCH  16  17
ENDBRANCH  14  16
BRANCH  11  22
ATOM     22  C   UNL     1      -0.013   1.086   0.008  0.00  0.00    +0.163 C 
BRANCH  22  23
ATOM     23  C   UNL     1       1.304   0.466  -0.382  0.00  0.00    +0.007 A 
ATOM     24  C   UNL     1       2.484   1.148  -0.154  0.00  0.00    +0.008 A 
ATOM     25  C   UNL     1       3.692   0.580  -0.511  0.00  0.00    +0.000 A 
ATOM     26  C   UNL     1       3.722  -0.672  -1.097  0.00  0.00    +0.003 A 
ATOM     27  C   UNL     1       2.543  -1.357  -1.326  0.00  0.00    +0.039 A 
ATOM     28  C   UNL     1       1.333  -0.790  -0.965  0.00  0.00    +0.128 A 
ATOM     29  F   UNL     1       0.180  -1.460  -1.183  0.00  0.00    -0.205 F 
ENDBRANCH  22  23
ENDBRANCH  11  22
TORSDOF 5
