REMARK  Name = ZINC04019749
REMARK  7 active torsions:
REMARK  status: ('A' for Active; 'I' for Inactive)
REMARK    1  A    between atoms: C_1  and  C_2
REMARK    2  A    between atoms: C_6  and  C_9
REMARK    3  A    between atoms: C_10  and  C_11
REMARK    4  A    between atoms: C_10  and  N_47
REMARK    5  A    between atoms: N_15  and  C_16
REMARK    6  A    between atoms: C_16  and  C_17
REMARK    7  A    between atoms: N_26  and  C_27
REMARK                            x       y       z     vdW  Elec       q    Type
REMARK                         _______ _______ _______ _____ _____    ______ ____
ROOT
ATOM      1  C   UNL     1       2.801   3.966   0.299  0.00  0.00    +0.096 A 
ATOM      2  N   UNL     1       3.668   4.244  -0.641  0.00  0.00    -0.216 NA
ATOM      3  C   UNL     1       4.823   4.629  -0.092  0.00  0.00    +0.168 A 
ATOM      4  C   UNL     1       4.658   4.586   1.287  0.00  0.00    +0.152 A 
ATOM      5  N   UNL     1       3.362   4.166   1.508  0.00  0.00    -0.315 N 
ATOM      6  C   UNL     1       5.738   4.948   2.120  0.00  0.00    +0.280 A 
ATOM      7  O   UNL     1       5.618   4.919   3.332  0.00  0.00    -0.265 OA
ATOM      8  N   UNL     1       6.905   5.328   1.559  0.00  0.00    -0.273 N 
ATOM      9  H   UNL     1       7.673   5.586   2.146  0.00  0.00    +0.173 HD
ATOM     10  C   UNL     1       7.051   5.364   0.223  0.00  0.00    +0.331 A 
ATOM     11  O   UNL     1       8.117   5.711  -0.247  0.00  0.00    -0.246 OA
ATOM     12  N   UNL     1       6.046   5.027  -0.607  0.00  0.00    -0.280 N 
ATOM     13  C   UNL     1       6.247   5.081  -2.057  0.00  0.00    +0.155 C 
ENDROOT
BRANCH   1  14
ATOM     14  C   UNL     1       1.388   3.498   0.065  0.00  0.00    -0.003 C 
BRANCH  14  22
ATOM     15  C   UNL     1      -1.431  -0.534  -0.067  0.00  0.00    +0.036 C 
ATOM     16  C   UNL     1       0.002  -0.004   0.002  0.00  0.00    +0.099 C 
ATOM     17  C   UNL     1      -0.019   1.527   0.010  0.00  0.00    -0.046 C 
ATOM     18  C   UNL     1       2.086   1.543  -1.183  0.00  0.00    -0.046 C 
ATOM     19  C   UNL     1       2.086   0.012  -1.180  0.00  0.00    +0.099 C 
ATOM     20  O   UNL     1       0.736  -0.460  -1.138  0.00  0.00    -0.378 OA
ATOM     21  C   UNL     1       2.767  -0.503  -2.449  0.00  0.00    +0.036 C 
ATOM     22  N   UNL     1       1.375   2.019   0.021  0.00  0.00    +0.388 N 
ATOM     23  H   UNL     1       1.851   1.657   0.856  0.00  0.00    -0.081 HD
ENDBRANCH  14  22
ENDBRANCH   1  14
BRANCH   5  24
ATOM     24  C   UNL     1       2.718   3.973   2.810  0.00  0.00    +0.219 C 
BRANCH  24  25
ATOM     25  C   UNL     1       2.940   2.557   3.275  0.00  0.00    +0.230 C 
ATOM     26  O   UNL     1       3.574   1.785   2.587  0.00  0.00    -0.274 OA
ATOM     27  N   UNL     1       2.435   2.148   4.455  0.00  0.00    -0.328 N 
ATOM     28  H   UNL     1       1.928   2.766   5.006  0.00  0.00    +0.145 HD
ATOM     29  H   UNL     1       2.578   1.237   4.755  0.00  0.00    +0.145 HD
ENDBRANCH  24  25
ENDBRANCH   5  24
TORSDOF 4
