REMARK  Name = ZINC43822447
REMARK  10 active torsions:
REMARK  status: ('A' for Active; 'I' for Inactive)
REMARK    1  A    between atoms: C_1  and  C_2
REMARK    2  A    between atoms: C_2  and  C_3
REMARK    3  A    between atoms: C_3  and  C_4
REMARK    4  A    between atoms: C_3  and  C_5
REMARK    5  A    between atoms: C_3  and  C_6
REMARK    6  A    between atoms: C_10  and  N_20
REMARK    7  A    between atoms: C_12  and  N_15
REMARK    8  A    between atoms: N_15  and  C_16
REMARK    9  A    between atoms: N_15  and  C_17
REMARK   10  A    between atoms: N_20  and  C_21
REMARK                            x       y       z     vdW  Elec       q    Type
REMARK                         _______ _______ _______ _____ _____    ______ ____
ROOT
ATOM      1  C   UNL     1       0.665  -2.413  -2.737  0.00  0.00    -0.007 C 
ATOM      2  C   UNL     1      -0.567  -2.853  -1.944  0.00  0.00    +0.002 C 
ATOM      3  C   UNL     1      -0.256  -4.153  -1.198  0.00  0.00    -0.017 C 
ATOM      4  C   UNL     1       0.117  -5.242  -2.206  0.00  0.00    -0.086 C 
ATOM      5  C   UNL     1       1.349  -4.801  -2.999  0.00  0.00    -0.083 C 
ATOM      6  C   UNL     1       1.038  -3.502  -3.745  0.00  0.00    -0.013 C 
ENDROOT
BRANCH   4   7
ATOM      7  N   UNL     1       0.416  -6.490  -1.491  0.00  0.00    +0.378 N 
ATOM      8  C   UNL     1      -0.840  -7.156  -1.123  0.00  0.00    -0.100 C 
ATOM      9  H   UNL     1       0.958  -7.098  -2.087  0.00  0.00    -0.086 HD
ATOM     10  H   UNL     1       0.943  -6.281  -0.656  0.00  0.00    -0.086 HD
ENDBRANCH   4   7
BRANCH   1  11
ATOM     11  C   UNL     1       0.354  -1.113  -3.482  0.00  0.00    -0.032 C 
ATOM     12  C   UNL     1      -0.816  -1.343  -4.442  0.00  0.00    +0.011 C 
ATOM     13  C   UNL     1       1.585  -0.673  -4.275  0.00  0.00    +0.011 C 
BRANCH  11  15
ATOM     14  C   UNL     1      -0.331   1.275  -3.219  0.00  0.00    +0.004 C 
ATOM     15  C   UNL     1      -0.020  -0.025  -2.474  0.00  0.00    +0.003 C 
ENDBRANCH  11  15
ENDBRANCH   1  11
BRANCH   5  16
ATOM     16  N   UNL     1       2.472  -4.581  -2.078  0.00  0.00    +0.381 N 
ATOM     17  C   UNL     1       2.922  -5.870  -1.537  0.00  0.00    -0.095 C 
ATOM     18  H   UNL     1       2.174  -3.984  -1.321  0.00  0.00    -0.082 HD
BRANCH  16  19
ATOM     19  C   UNL     1       3.579  -3.940  -2.800  0.00  0.00    -0.069 C 
ATOM     20  C   UNL     1       4.598  -3.152  -1.974  0.00  0.00    -0.017 C 
ATOM     21  C   UNL     1       3.593  -2.411  -2.858  0.00  0.00    -0.017 C 
ENDBRANCH  16  19
ENDBRANCH   5  16
TORSDOF 5
