REMARK  Name = ZINC43743431
REMARK  13 active torsions:
REMARK  status: ('A' for Active; 'I' for Inactive)
REMARK    1  A    between atoms: CD1_1  and  CG1_2
REMARK    2  A    between atoms: CG1_2  and  CB_3
REMARK    3  A    between atoms: CB_3  and  CG2_5
REMARK    4  A    between atoms: CB_3  and  CA_6
REMARK    5  A    between atoms: CA_6  and  C_8
REMARK    6  A    between atoms: CA_6  and  N_11
REMARK    7  A    between atoms: C_12  and  C_14
REMARK    8  A    between atoms: C_14  and  O_15
REMARK    9  A    between atoms: O_15  and  N_16
REMARK   10  A    between atoms: C_20  and  C_41
REMARK   11  A    between atoms: C_25  and  C_40
REMARK   12  A    between atoms: C_36  and  C_37
REMARK   13  A    between atoms: C_36  and  O_39
REMARK                            x       y       z     vdW  Elec       q    Type
REMARK                         _______ _______ _______ _____ _____    ______ ____
ROOT
ATOM      1  N   UNK A   0      -7.019  -6.008  -1.889  0.00  0.00    -0.089 NA
ATOM      2  C   UNK A   0      -6.979  -7.160  -2.480  0.00  0.00    +0.080 C 
ATOM      3  C   UNK A   0      -5.687  -7.730  -3.033  0.00  0.00    +0.059 C 
ATOM      4  C   UNK A   0      -5.567  -9.166  -2.524  0.00  0.00    +0.017 C 
ATOM      5  C   UNK A   0      -6.759 -10.010  -2.938  0.00  0.00    -0.007 C 
ATOM      6  C   UNK A   0      -6.809 -11.274  -2.070  0.00  0.00    +0.002 C 
ATOM      7  C   UNK A   0      -5.503 -12.045  -2.233  0.00  0.00    +0.005 C 
ATOM      8  C   UNK A   0      -5.538 -13.388  -1.486  0.00  0.00    +0.011 C 
ATOM      9  C   UNK A   0      -6.721 -14.169  -2.026  0.00  0.00    +0.011 C 
ATOM     10  C   UNK A   0      -8.003 -13.386  -1.637  0.00  0.00    +0.002 C 
ATOM     11  C   UNK A   0      -8.018 -12.127  -2.484  0.00  0.00    -0.003 C 
ATOM     12  C   UNK A   0      -9.303 -11.343  -2.200  0.00  0.00    +0.008 C 
ATOM     13  C   UNK A   0      -9.346 -10.104  -3.097  0.00  0.00    +0.031 C 
ATOM     14  C   UNK A   0      -8.072  -9.293  -2.867  0.00  0.00    -0.062 C 
ATOM     15  C   UNK A   0      -8.186  -7.990  -2.646  0.00  0.00    +0.026 C 
ATOM     16  C   UNK A   0      -9.099 -14.411  -1.952  0.00  0.00    +0.008 C 
ATOM     17  C   UNK A   0      -8.494 -15.741  -1.426  0.00  0.00    +0.049 C 
ATOM     18  C   UNK A   0      -6.956 -15.550  -1.425  0.00  0.00    +0.132 C 
ATOM     19  C   UNK A   0      -6.618 -14.277  -3.549  0.00  0.00    +0.015 C 
ATOM     20  C   UNK A   0      -6.542 -10.459  -4.384  0.00  0.00    +0.016 C 
ENDROOT
BRANCH  18  21
ATOM     21  C   UNK A   0      -6.437 -15.603  -0.048  0.00  0.00    -0.070 C 
ATOM     22  C   UNK A   0      -6.023 -15.645   1.049  0.00  0.00    +0.007 C 
ENDBRANCH  18  21
BRANCH  18  23
ATOM     23  O   UNK A   0      -6.333 -16.553  -2.229  0.00  0.00    -0.376 OA
ATOM     24  H   UNK A   0      -6.449 -17.454  -1.896  0.00  0.00    +0.211 HD
ENDBRANCH  18  23
BRANCH   1  25
ATOM     25  O   UNK A   0      -5.836  -5.242  -1.750  0.00  0.00    -0.384 OA
BRANCH  25  26
ATOM     26  C   UNK A   0      -6.027  -3.995  -1.079  0.00  0.00    +0.358 C 
BRANCH  26  28
ATOM     27  N   ILE A   1      -4.647  -2.061  -0.392  0.00  0.00    -0.299 N 
ATOM     28  C   UNK A   0      -4.710  -3.267  -0.989  0.00  0.00    +0.254 C 
ATOM     29  O   UNK A   0      -3.708  -3.768  -1.453  0.00  0.00    -0.272 OA
ATOM     30  H   ILE A   1      -5.449  -1.661  -0.020  0.00  0.00    +0.150 HD
BRANCH  27  31
ATOM     31  CA  ILE A   1      -3.367  -1.353  -0.303  0.00  0.00    +0.189 C 
BRANCH  31  32
ATOM     32  C   ILE A   1      -2.611  -1.832   0.909  0.00  0.00    +0.376 C 
ATOM     33  O   ILE A   1      -3.219  -2.220   1.893  0.00  0.00    -0.244 OA
ATOM     34  OXT ILE A   1      -1.392  -1.831   0.907  0.00  0.00    -0.244 OA
ENDBRANCH  31  32
BRANCH  31  35
ATOM     35  CB  ILE A   1      -3.623   0.150  -0.184  0.00  0.00    +0.017 C 
ATOM     36  CG2 ILE A   1      -4.339   0.443   1.136  0.00  0.00    +0.010 C 
BRANCH  35  38
ATOM     37  CD1 ILE A   1      -2.550   2.406  -0.223  0.00  0.00    +0.004 C 
ATOM     38  CG1 ILE A   1      -2.289   0.899  -0.217  0.00  0.00    +0.002 C 
ENDBRANCH  35  38
ENDBRANCH  31  35
ENDBRANCH  27  31
ENDBRANCH  26  28
ENDBRANCH  25  26
ENDBRANCH   1  25
TORSDOF 9
