REMARK  Name = ZINC48337403
REMARK  7 active torsions:
REMARK  status: ('A' for Active; 'I' for Inactive)
REMARK    1  A    between atoms: C_1  and  N_2
REMARK    2  A    between atoms: C_10  and  C_14
REMARK    3  A    between atoms: C_14  and  N_15
REMARK    4  A    between atoms: C_16  and  C_18
REMARK    5  A    between atoms: C_18  and  N_19
REMARK    6  A    between atoms: C_20  and  C_22
REMARK    7  A    between atoms: C_23  and  C_24
REMARK                            x       y       z     vdW  Elec       q    Type
REMARK                         _______ _______ _______ _____ _____    ______ ____
ROOT
ATOM      1  C   UNL     1       4.279  -5.475   2.388  0.00  0.00    +0.139 C 
ENDROOT
BRANCH   1  11
ATOM      2  C   UNL     1      -0.018   1.464   0.045  0.00  0.00    -0.096 C 
ATOM      3  N   UNL     1       0.002  -0.004   0.019  0.00  0.00    +0.380 N 
ATOM      4  C   UNL     1       0.696  -0.461  -1.192  0.00  0.00    -0.060 C 
ATOM      5  C   UNL     1       0.617  -1.989  -1.278  0.00  0.00    +0.088 C 
ATOM      6  N   UNL     1       1.144  -2.555  -0.027  0.00  0.00    -0.320 N 
ATOM      7  C   UNL     1       0.619  -2.034   1.245  0.00  0.00    +0.088 C 
ATOM      8  C   UNL     1       0.697  -0.504   1.212  0.00  0.00    -0.060 C 
ATOM      9  C   UNL     1       2.111  -3.553  -0.045  0.00  0.00    +0.099 A 
ATOM     10  C   UNL     1       2.679  -3.985   1.149  0.00  0.00    +0.047 A 
ATOM     11  C   UNL     1       3.640  -4.979   1.117  0.00  0.00    -0.026 A 
ATOM     12  C   UNL     1       4.003  -5.510  -0.115  0.00  0.00    +0.023 A 
ATOM     13  C   UNL     1       3.399  -5.033  -1.261  0.00  0.00    +0.084 A 
ATOM     14  N   UNL     1       2.480  -4.088  -1.199  0.00  0.00    -0.350 N 
ATOM     15  H   UNL     1       2.069  -3.774  -2.019  0.00  0.00    +0.166 HD
ATOM     16  H   UNL     1      -0.945  -0.352   0.013  0.00  0.00    -0.082 HD
ENDBRANCH   1  11
BRANCH   1  17
ATOM     17  N   UNL     1       3.499  -6.594   2.922  0.00  0.00    -0.310 N 
ATOM     18  C   UNL     1       3.885  -7.201   4.062  0.00  0.00    +0.230 C 
ATOM     19  O   UNL     1       4.878  -6.821   4.645  0.00  0.00    -0.274 OA
ATOM     20  H   UNL     1       2.705  -6.899   2.456  0.00  0.00    +0.149 HD
BRANCH  18  21
ATOM     21  C   UNL     1       3.083  -8.353   4.612  0.00  0.00    +0.200 C 
BRANCH  21  22
ATOM     22  N   UNL     1       3.704  -8.835   5.848  0.00  0.00    -0.303 N 
ATOM     23  C   UNL     1       3.156  -9.867   6.519  0.00  0.00    +0.237 C 
ATOM     24  O   UNL     1       2.144 -10.398   6.099  0.00  0.00    -0.271 OA
ATOM     25  H   UNL     1       4.510  -8.412   6.182  0.00  0.00    +0.149 HD
BRANCH  23  26
ATOM     26  C   UNL     1       3.757 -10.332   7.714  0.00  0.00    +0.071 C 
ATOM     27  C   UNL     1       3.205 -11.371   8.390  0.00  0.00    +0.051 C 
BRANCH  27  28
ATOM     28  C   UNL     1       3.806 -11.837   9.584  0.00  0.00    +0.128 A 
ATOM     29  C   UNL     1       3.357 -12.881  10.366  0.00  0.00    +0.049 A 
ATOM     30  C   UNL     1       4.253 -12.989  11.441  0.00  0.00    +0.042 A 
ATOM     31  C   UNL     1       5.191 -12.029  11.277  0.00  0.00    +0.195 A 
ATOM     32  O   UNL     1       4.922 -11.342  10.158  0.00  0.00    -0.464 OA
ENDBRANCH  27  28
ENDBRANCH  23  26
ENDBRANCH  21  22
ENDBRANCH  18  21
ENDBRANCH   1  17
TORSDOF 6
