REMARK  Name = ZINC37606968
REMARK  3 active torsions:
REMARK  status: ('A' for Active; 'I' for Inactive)
REMARK    1  A    between atoms: C_3  and  N_8
REMARK    2  A    between atoms: N_12  and  C_15
REMARK    3  A    between atoms: C_18  and  N_21
REMARK                            x       y       z     vdW  Elec       q    Type
REMARK                         _______ _______ _______ _____ _____    ______ ____
ROOT
ATOM      1  N   UNL     1       3.584   2.125  -0.006  0.00  0.00    -0.246 N 
ATOM      2  C   UNL     1       4.944   1.560  -0.055  0.00  0.00    +0.212 C 
ATOM      3  C   UNL     1       5.838   2.785  -0.064  0.00  0.00    +0.245 C 
ATOM      4  O   UNL     1       7.050   2.806  -0.101  0.00  0.00    -0.273 OA
ATOM      5  N   UNL     1       5.006   3.844  -0.024  0.00  0.00    -0.193 N 
ATOM      6  C   UNL     1       3.723   3.463   0.004  0.00  0.00    +0.320 C 
ATOM      7  O   UNL     1       2.789   4.239   0.038  0.00  0.00    -0.251 OA
ENDROOT
BRANCH   1  10
ATOM      8  C   UNL     1      -0.015   1.377   0.085  0.00  0.00    +0.003 A 
ATOM      9  C   UNL     1       1.170   2.086   0.060  0.00  0.00    +0.023 A 
ATOM     10  C   UNL     1       2.382   1.409   0.020  0.00  0.00    +0.040 A 
ATOM     11  C   UNL     1       2.399   0.021   0.004  0.00  0.00    +0.043 A 
ATOM     12  C   UNL     1       1.210  -0.683   0.029  0.00  0.00    +0.043 A 
ATOM     13  C   UNL     1       0.004  -0.005   0.069  0.00  0.00    +0.020 A 
ATOM     14 CL   UNL     1       1.228  -2.419   0.009  0.00  0.00    -0.083 Cl
ENDBRANCH   1  10
BRANCH   5  15
ATOM     15  C   UNL     1       5.431   5.181  -0.017  0.00  0.00    +0.046 A 
ATOM     16  C   UNL     1       4.499   6.207  -0.095  0.00  0.00    +0.026 A 
ATOM     17  C   UNL     1       4.918   7.523  -0.088  0.00  0.00    +0.024 A 
ATOM     18  C   UNL     1       6.271   7.820  -0.003  0.00  0.00    +0.025 A 
ATOM     19  C   UNL     1       7.204   6.794   0.076  0.00  0.00    +0.024 A 
ATOM     20  C   UNL     1       6.785   5.479   0.074  0.00  0.00    +0.026 A 
BRANCH  18  21
ATOM     21  N   UNL     1       6.696   9.153   0.004  0.00  0.00    -0.358 N 
ATOM     22  H   UNL     1       6.044   9.869  -0.051  0.00  0.00    +0.142 HD
ATOM     23  H   UNL     1       7.641   9.360   0.064  0.00  0.00    +0.142 HD
ENDBRANCH  18  21
ENDBRANCH   5  15
TORSDOF 3
