REMARK  Name = ZINC37718922
REMARK  4 active torsions:
REMARK  status: ('A' for Active; 'I' for Inactive)
REMARK    1  A    between atoms: C_1  and  C_2
REMARK    2  A    between atoms: C_7  and  C_8
REMARK    3  A    between atoms: C_8  and  N_9
REMARK    4  A    between atoms: N_9  and  C_10
REMARK                            x       y       z     vdW  Elec       q    Type
REMARK                         _______ _______ _______ _____ _____    ______ ____
ROOT
ATOM      1  C   UNL     1      -1.339   1.206   4.100  0.00  0.00    +0.050 C 
ATOM      2  C   UNL     1      -2.747   1.597   4.489  0.00  0.00    -0.018 A 
ATOM      3  C   UNL     1      -2.765   2.985   4.544  0.00  0.00    +0.036 A 
ATOM      4  C   UNL     1      -3.953   3.630   4.884  0.00  0.00    +0.023 A 
ATOM      5  C   UNL     1      -5.087   2.894   5.160  0.00  0.00    +0.003 A 
ATOM      6  C   UNL     1      -5.056   1.514   5.101  0.00  0.00    +0.015 A 
ATOM      7  C   UNL     1      -3.880   0.864   4.764  0.00  0.00    +0.022 A 
ATOM      8 BR   UNL     1      -3.830  -1.024   4.683  0.00  0.00    -0.050 Br
ATOM      9  N   UNL     1      -1.507   3.497   4.227  0.00  0.00    -0.286 N 
ATOM     10  C   UNL     1      -0.614   2.526   3.956  0.00  0.00    +0.208 C 
ATOM     11  O   UNL     1       0.551   2.679   3.653  0.00  0.00    -0.277 OA
ATOM     12  H   UNL     1      -1.298   4.444   4.206  0.00  0.00    +0.155 HD
ENDROOT
BRANCH   1  13
ATOM     13  N   UNL     1      -1.342   0.478   2.824  0.00  0.00    +0.392 N 
ATOM     14  H   UNL     1      -1.682   1.083   2.092  0.00  0.00    -0.084 HD
ATOM     15  H   UNL     1      -1.942  -0.330   2.898  0.00  0.00    -0.084 HD
BRANCH  13  16
ATOM     16  C   UNL     1       0.025   0.045   2.504  0.00  0.00    -0.045 C 
BRANCH  16  23
ATOM     17  C   UNL     1      -0.018   1.503   0.010  0.00  0.00    +0.044 C 
ATOM     18  C   UNL     1       0.002  -0.004   0.002  0.00  0.00    -0.049 A 
ATOM     19  C   UNL     1       0.006  -0.689  -1.199  0.00  0.00    +0.003 A 
ATOM     20  C   UNL     1       0.025  -2.071  -1.207  0.00  0.00    +0.000 A 
ATOM     21  C   UNL     1       0.040  -2.768  -0.013  0.00  0.00    +0.000 A 
ATOM     22  C   UNL     1       0.037  -2.084   1.188  0.00  0.00    +0.002 A 
ATOM     23  C   UNL     1       0.023  -0.702   1.195  0.00  0.00    -0.061 A 
ENDBRANCH  16  23
ENDBRANCH  13  16
ENDBRANCH   1  13
TORSDOF 3
