REMARK  Name = ZINC01430911
REMARK  5 active torsions:
REMARK  status: ('A' for Active; 'I' for Inactive)
REMARK    1  A    between atoms: C_1  and  S_2
REMARK    2  A    between atoms: S_2  and  C_3
REMARK    3  A    between atoms: C_10  and  N_23
REMARK    4  A    between atoms: C_11  and  C_21
REMARK    5  A    between atoms: C_12  and  C_14
REMARK                            x       y       z     vdW  Elec       q    Type
REMARK                         _______ _______ _______ _____ _____    ______ ____
ROOT
ATOM      1  C   UNL     1      -3.529   1.616   0.028  0.00  0.00    +0.193 A 
ATOM      2  N   UNL     1      -2.370   0.972   0.019  0.00  0.00    -0.207 NA
ATOM      3  C   UNL     1      -1.221   1.642   0.017  0.00  0.00    +0.128 A 
ATOM      4  C   UNL     1      -1.253   3.035   0.030  0.00  0.00    +0.067 A 
ATOM      5  C   UNL     1      -2.481   3.674   0.034  0.00  0.00    +0.232 A 
ATOM      6  N   UNL     1      -3.591   2.940   0.035  0.00  0.00    -0.186 NA
ATOM      7  O   UNL     1      -2.562   5.023   0.042  0.00  0.00    -0.423 OA
ATOM      8  C   UNL     1      -1.501   5.760  -0.331  0.00  0.00    +0.200 C 
ATOM      9  C   UNL     1      -0.247   5.251  -0.362  0.00  0.00    +0.098 C 
ATOM     10  C   UNL     1       0.027   3.823   0.022  0.00  0.00    +0.103 C 
ATOM     11  N   UNL     1      -0.011   0.966   0.007  0.00  0.00    -0.343 N 
ATOM     12  H   UNL     1       0.002  -0.004   0.002  0.00  0.00    +0.144 HD
ATOM     13  H   UNL     1       0.822   1.462   0.002  0.00  0.00    +0.144 HD
ENDROOT
BRANCH  10  14
ATOM     14  C   UNL     1       0.637   3.784   1.400  0.00  0.00    -0.033 A 
ATOM     15  C   UNL     1       1.894   3.238   1.584  0.00  0.00    +0.004 A 
ATOM     16  C   UNL     1       2.454   3.202   2.847  0.00  0.00    +0.002 A 
ATOM     17  C   UNL     1       1.758   3.712   3.927  0.00  0.00    +0.020 A 
ATOM     18  C   UNL     1       0.501   4.259   3.743  0.00  0.00    +0.041 A 
ATOM     19  C   UNL     1      -0.058   4.299   2.478  0.00  0.00    +0.024 A 
ATOM     20 CL   UNL     1      -0.373   4.901   5.099  0.00  0.00    -0.084 Cl
ENDBRANCH  10  14
BRANCH   8  21
ATOM     21  N   UNL     1      -1.696   7.070  -0.690  0.00  0.00    -0.328 N 
ATOM     22  H   UNL     1      -2.588   7.450  -0.673  0.00  0.00    +0.145 HD
ATOM     23  H   UNL     1      -0.941   7.616  -0.961  0.00  0.00    +0.145 HD
ENDBRANCH   8  21
BRANCH   1  25
ATOM     24  C   UNL     1      -4.353  -0.993   0.016  0.00  0.00    +0.093 C 
ATOM     25  S   UNL     1      -5.026   0.687   0.029  0.00  0.00    -0.089 S 
ENDBRANCH   1  25
BRANCH   9  26
ATOM     26  C   UNL     1       0.840   6.089  -0.769  0.00  0.00    +0.101 C 
ATOM     27  N   UNL     1       1.703   6.754  -1.091  0.00  0.00    -0.191 NA
ENDBRANCH   9  26
TORSDOF 4
