REMARK  Name = ZINC65506489
REMARK  6 active torsions:
REMARK  status: ('A' for Active; 'I' for Inactive)
REMARK    1  A    between atoms: C_1  and  C_2
REMARK    2  A    between atoms: C_2  and  C_28
REMARK    3  A    between atoms: C_4  and  C_9
REMARK    4  A    between atoms: C_11  and  C_22
REMARK    5  A    between atoms: N_15  and  C_16
REMARK    6  A    between atoms: C_16  and  C_17
REMARK                            x       y       z     vdW  Elec       q    Type
REMARK                         _______ _______ _______ _____ _____    ______ ____
ROOT
ATOM      1  C   UNL     1      -2.853  -2.617   0.162  0.00  0.00    -0.041 C 
ATOM      2  C   UNL     1      -3.667  -2.103  -1.044  0.00  0.00    +0.069 C 
ATOM      3  N   UNL     1      -4.516  -3.270  -1.410  0.00  0.00    -0.327 NA
ATOM      4  C   UNL     1      -3.614  -4.427  -1.176  0.00  0.00    +0.006 C 
ATOM      5  N   UNL     1      -2.857  -4.091   0.052  0.00  0.00    +0.396 N 
ATOM      6  H   UNL     1      -5.332  -3.322  -0.820  0.00  0.00    +0.120 HD
ATOM      7  H   UNL     1      -1.910  -4.433  -0.023  0.00  0.00    -0.079 HD
ENDROOT
BRANCH   1  11
ATOM      8  C   UNL     1       1.613  -2.615   2.408  0.00  0.00    +0.041 C 
ATOM      9  C   UNL     1       0.813  -2.091   1.213  0.00  0.00    +0.064 C 
ATOM     10  C   UNL     1      -0.639  -2.563   1.326  0.00  0.00    +0.036 C 
ATOM     11  C   UNL     1      -1.419  -2.086   0.097  0.00  0.00    -0.018 C 
ATOM     12  C   UNL     1      -0.733  -2.614  -1.167  0.00  0.00    +0.030 C 
ATOM     13  C   UNL     1       0.723  -2.140  -1.183  0.00  0.00    +0.161 C 
ATOM     14  O   UNL     1       1.382  -2.591   0.002  0.00  0.00    -0.374 OA
ATOM     15  C   UNL     1       0.854  -0.562   1.203  0.00  0.00    +0.041 C 
ENDBRANCH   1  11
BRANCH   2  16
ATOM     16  C   UNL     1      -4.520  -0.926  -0.647  0.00  0.00    -0.032 A 
ATOM     17  C   UNL     1      -5.651  -1.121   0.123  0.00  0.00    +0.005 A 
ATOM     18  C   UNL     1      -6.434  -0.041   0.487  0.00  0.00    +0.000 A 
ATOM     19  C   UNL     1      -6.084   1.234   0.082  0.00  0.00    +0.000 A 
ATOM     20  C   UNL     1      -4.952   1.429  -0.687  0.00  0.00    +0.000 A 
ATOM     21  C   UNL     1      -4.168   0.349  -1.048  0.00  0.00    +0.005 A 
ENDBRANCH   2  16
BRANCH   5  22
ATOM     22  C   UNL     1      -3.515  -4.679   1.226  0.00  0.00    -0.001 C 
BRANCH  22  23
ATOM     23  C   UNL     1      -3.405  -6.181   1.163  0.00  0.00    +0.090 A 
ATOM     24  N   UNL     1      -2.456  -6.927   1.769  0.00  0.00    -0.350 N 
ATOM     25  C   UNL     1      -2.713  -8.236   1.463  0.00  0.00    +0.103 A 
ATOM     26  C   UNL     1      -3.810  -8.245   0.681  0.00  0.00    +0.130 A 
ATOM     27  N   UNL     1      -4.214  -6.977   0.519  0.00  0.00    -0.243 NA
ATOM     28  H   UNL     1      -1.728  -6.596   2.318  0.00  0.00    +0.166 HD
ENDBRANCH  22  23
ENDBRANCH   5  22
TORSDOF 4
