REMARK  Name = ZINC20905180
REMARK  13 active torsions:
REMARK  status: ('A' for Active; 'I' for Inactive)
REMARK    1  A    between atoms: C_1  and  C_2
REMARK    2  A    between atoms: C_3  and  C_11
REMARK    3  A    between atoms: C_4  and  C_10
REMARK    4  A    between atoms: N_5  and  C_7
REMARK    5  A    between atoms: C_7  and  C_8
REMARK    6  A    between atoms: C_7  and  C_9
REMARK    7  A    between atoms: N_12  and  N_13
REMARK    8  A    between atoms: C_16  and  S_19
REMARK    9  A    between atoms: S_19  and  C_20
REMARK   10  A    between atoms: C_20  and  C_21
REMARK   11  A    between atoms: C_21  and  C_22
REMARK   12  A    between atoms: N_24  and  C_25
REMARK   13  A    between atoms: C_26  and  C_34
REMARK                            x       y       z     vdW  Elec       q    Type
REMARK                         _______ _______ _______ _____ _____    ______ ____
ROOT
ATOM      1  N   UNL     1      -4.632  11.488 -10.233  0.00  0.00    -0.205 N 
ATOM      2  C   UNL     1      -4.256  10.766  -9.109  0.00  0.00    +0.232 A 
ATOM      3  N   UNL     1      -4.109  11.266  -7.845  0.00  0.00    -0.186 NA
ATOM      4  C   UNL     1      -3.730  10.240  -7.027  0.00  0.00    +0.210 A 
ATOM      5  N   UNL     1      -3.642   9.152  -7.755  0.00  0.00    -0.144 NA
ATOM      6  N   UNL     1      -3.980   9.485  -9.073  0.00  0.00    -0.245 N 
ATOM      7  H   UNL     1      -4.842  12.564 -10.150  0.00  0.00    +0.177 HD
ATOM      8  H   UNL     1      -4.041   8.883  -9.991  0.00  0.00    +0.192 HD
ENDROOT
BRANCH   1  10
ATOM      9  C   UNL     1      -5.096  11.520 -12.524  0.00  0.00    +0.141 C 
ATOM     10  N   UNL     1      -4.744  10.845 -11.473  0.00  0.00    -0.187 NA
BRANCH   9  13
ATOM     11  C   UNL     1      -4.559   8.443 -13.073  0.00  0.00    +0.068 C 
ATOM     12  C   UNL     1      -4.979   9.475 -14.088  0.00  0.00    +0.069 A 
ATOM     13  C   UNL     1      -5.215  10.843 -13.830  0.00  0.00    +0.038 A 
ATOM     14  C   UNL     1      -5.581  11.427 -15.023  0.00  0.00    +0.045 A 
ATOM     15  N   UNL     1      -5.562  10.464 -15.966  0.00  0.00    -0.265 N 
ATOM     16  N   UNL     1      -5.188   9.259 -15.359  0.00  0.00    -0.175 NA
ATOM     17  C   UNL     1      -5.936  12.877 -15.235  0.00  0.00    +0.066 C 
BRANCH  15  18
ATOM     18  C   UNL     1      -5.883  10.646 -17.384  0.00  0.00    +0.101 C 
ATOM     19  C   UNL     1      -4.672  10.259 -18.235  0.00  0.00    +0.032 C 
ATOM     20  C   UNL     1      -7.072   9.757 -17.756  0.00  0.00    +0.032 C 
ENDBRANCH  15  18
ENDBRANCH   9  13
ENDBRANCH   1  10
BRANCH   4  21
ATOM     21  S   UNL     1      -3.410  10.358  -5.298  0.00  0.00    -0.084 S 
BRANCH  21  22
ATOM     22  C   UNL     1      -2.960   8.667  -4.819  0.00  0.00    +0.086 C 
BRANCH  22  23
ATOM     23  C   UNL     1      -2.653   8.627  -3.320  0.00  0.00    +0.107 C 
BRANCH  23  24
ATOM     24  C   UNL     1      -2.279   7.222  -2.922  0.00  0.00    +0.218 C 
ATOM     25  O   UNL     1      -2.260   6.341  -3.755  0.00  0.00    -0.275 OA
ATOM     26  N   UNL     1      -1.965   6.946  -1.641  0.00  0.00    -0.279 N 
ATOM     27  H   UNL     1      -1.982   7.746  -0.886  0.00  0.00    +0.155 HD
BRANCH  26  28
ATOM     28  C   UNL     1      -1.621   5.653  -1.274  0.00  0.00    +0.090 A 
ATOM     29  C   UNL     1      -1.271   5.177  -0.019  0.00  0.00    +0.084 A 
ATOM     30  C   UNL     1      -0.951   3.765   0.100  0.00  0.00    -0.018 A 
ATOM     31  C   UNL     1      -1.032   3.059  -1.049  0.00  0.00    -0.004 A 
ATOM     32  S   UNL     1      -1.524   4.240  -2.273  0.00  0.00    -0.077 S 
ATOM     33  C   UNL     1      -0.761   1.597  -1.232  0.00  0.00    +0.043 C 
ATOM     34  C   UNL     1      -0.013   1.086   0.008  0.00  0.00    +0.005 C 
ATOM     35  C   UNL     1      -0.735   1.583   1.264  0.00  0.00    +0.005 C 
ATOM     36  C   UNL     1      -0.551   3.094   1.407  0.00  0.00    +0.037 C 
BRANCH  29  37
ATOM     37  C   UNL     1      -1.226   6.046   1.118  0.00  0.00    +0.102 C 
ATOM     38  N   UNL     1      -1.191   6.736   2.020  0.00  0.00    -0.191 NA
ENDBRANCH  29  37
ENDBRANCH  26  28
ENDBRANCH  23  24
ENDBRANCH  22  23
ENDBRANCH  21  22
ENDBRANCH   4  21
TORSDOF 9
