REMARK  Name = ZINC58407828
REMARK  8 active torsions:
REMARK  status: ('A' for Active; 'I' for Inactive)
REMARK    1  A    between atoms: C_1  and  C_2
REMARK    2  A    between atoms: C_4  and  N_22
REMARK    3  A    between atoms: C_9  and  C_12
REMARK    4  A    between atoms: C_10  and  C_11
REMARK    5  A    between atoms: C_15  and  O_18
REMARK    6  A    between atoms: O_18  and  C_19
REMARK    7  A    between atoms: C_19  and  C_20
REMARK    8  A    between atoms: C_19  and  C_21
REMARK                            x       y       z     vdW  Elec       q    Type
REMARK                         _______ _______ _______ _____ _____    ______ ____
ROOT
ATOM      1  C   UNL     1       0.510   1.453   0.003  0.00  0.00    +0.047 C 
ATOM      2  C   UNL     1       0.256  -0.032  -0.001  0.00  0.00    -0.008 A 
ATOM      3  C   UNL     1       0.137  -0.703  -1.178  0.00  0.00    +0.031 A 
ATOM      4  C   UNL     1      -0.101  -2.092  -1.167  0.00  0.00    +0.042 A 
ATOM      5  C   UNL     1      -0.211  -2.755   0.010  0.00  0.00    +0.115 A 
ATOM      6  N   UNL     1      -0.093  -2.087   1.197  0.00  0.00    -0.303 N 
ATOM      7  C   UNL     1       0.145  -0.738   1.214  0.00  0.00    +0.119 A 
ATOM      8  N   UNL     1       0.222  -0.345   2.478  0.00  0.00    -0.339 N 
ATOM      9  C   UNL     1       0.046  -1.407   3.280  0.00  0.00    +0.068 A 
ATOM     10  C   UNL     1      -0.160  -2.503   2.497  0.00  0.00    +0.046 A 
ATOM     11  C   UNL     1      -0.400  -3.912   2.975  0.00  0.00    +0.066 C 
ATOM     12  H   UNL     1       0.380   0.565   2.776  0.00  0.00    +0.167 HD
ENDROOT
BRANCH   9  13
ATOM     13  C   UNL     1       0.061  -1.388   4.763  0.00  0.00    +0.000 A 
ATOM     14  C   UNL     1       0.770  -2.360   5.467  0.00  0.00    +0.013 A 
ATOM     15  C   UNL     1       0.782  -2.340   6.846  0.00  0.00    +0.046 A 
ATOM     16  C   UNL     1       0.090  -1.352   7.533  0.00  0.00    +0.121 A 
ATOM     17  C   UNL     1      -0.617  -0.383   6.835  0.00  0.00    +0.046 A 
ATOM     18  C   UNL     1      -0.629  -0.395   5.456  0.00  0.00    +0.013 A 
BRANCH  16  19
ATOM     19  O   UNL     1       0.104  -1.335   8.892  0.00  0.00    -0.489 OA
BRANCH  19  20
ATOM     20  C   UNL     1       0.947  -2.287   9.544  0.00  0.00    +0.167 C 
ATOM     21  C   UNL     1       1.328  -1.765  10.931  0.00  0.00    +0.051 C 
ATOM     22  C   UNL     1       0.200  -3.615   9.687  0.00  0.00    +0.051 C 
ENDBRANCH  19  20
ENDBRANCH  16  19
ENDBRANCH   9  13
BRANCH   4  23
ATOM     23  N   UNL     1      -0.224  -2.790  -2.377  0.00  0.00    -0.357 N 
ATOM     24  H   UNL     1      -0.145  -2.316  -3.220  0.00  0.00    +0.142 HD
ATOM     25  H   UNL     1      -0.387  -3.746  -2.371  0.00  0.00    +0.142 HD
ENDBRANCH   4  23
TORSDOF 4
