REMARK  Name = ZINC41166765
REMARK  7 active torsions:
REMARK  status: ('A' for Active; 'I' for Inactive)
REMARK    1  A    between atoms: C_1  and  C_2
REMARK    2  A    between atoms: C_3  and  C_16
REMARK    3  A    between atoms: C_4  and  C_15
REMARK    4  A    between atoms: N_5  and  C_7
REMARK    5  A    between atoms: C_16  and  N_17
REMARK    6  A    between atoms: N_17  and  C_18
REMARK    7  A    between atoms: C_18  and  C_19
REMARK                            x       y       z     vdW  Elec       q    Type
REMARK                         _______ _______ _______ _____ _____    ______ ____
ROOT
ATOM      1  C   UNL     1      -0.018   1.503   0.010  0.00  0.00    +0.068 C 
ATOM      2  C   UNL     1       0.002  -0.004   0.002  0.00  0.00    +0.062 A 
ATOM      3  C   UNL     1       0.008  -0.818  -1.135  0.00  0.00    -0.021 A 
ATOM      4  C   UNL     1       0.028  -2.107  -0.725  0.00  0.00    +0.038 A 
ATOM      5  N   UNL     1       0.034  -2.109   0.625  0.00  0.00    -0.263 N 
ATOM      6  N   UNL     1       0.023  -0.777   1.058  0.00  0.00    -0.176 NA
ATOM      7  C   UNL     1       0.040  -3.323  -1.615  0.00  0.00    +0.065 C 
ENDROOT
BRANCH   5   8
ATOM      8  C   UNL     1       0.055  -3.295   1.485  0.00  0.00    +0.130 C 
ATOM      9  C   UNL     1       1.308  -3.258   2.374  0.00  0.00    +0.051 C 
ATOM     10  C   UNL     1       1.149  -4.341   3.480  0.00  0.00    +0.168 C 
ATOM     11  S   UNL     1      -0.630  -4.128   3.906  0.00  0.00    -0.029 S 
ATOM     12  O   UNL     1      -1.237  -5.409   4.011  0.00  0.00    -0.174 OA
ATOM     13  O   UNL     1      -0.741  -3.212   4.987  0.00  0.00    -0.174 OA
ATOM     14  C   UNL     1      -1.217  -3.312   2.367  0.00  0.00    +0.192 C 
ENDBRANCH   5   8
BRANCH   3  15
ATOM     15  C   UNL     1      -0.006  -0.343  -2.566  0.00  0.00    -0.043 C 
BRANCH  15  16
ATOM     16  N   UNL     1       1.374  -0.169  -3.038  0.00  0.00    +0.383 N 
ATOM     17  H   UNL     1       1.843   0.513  -2.461  0.00  0.00    -0.085 HD
ATOM     18  H   UNL     1       1.863  -1.050  -2.981  0.00  0.00    -0.085 HD
BRANCH  16  19
ATOM     19  C   UNL     1       1.360   0.294  -4.432  0.00  0.00    -0.050 C 
BRANCH  19  20
ATOM     20  C   UNL     1       2.798   0.475  -4.923  0.00  0.00    +0.101 C 
ATOM     21  C   UNL     1       2.793   1.075  -6.345  0.00  0.00    +0.032 C 
ATOM     22  C   UNL     1       3.953   0.304  -7.032  0.00  0.00    +0.030 C 
ATOM     23  C   UNL     1       3.831  -1.081  -6.349  0.00  0.00    +0.160 C 
ATOM     24  O   UNL     1       3.452  -0.798  -4.991  0.00  0.00    -0.378 OA
ENDBRANCH  19  20
ENDBRANCH  16  19
ENDBRANCH  15  16
ENDBRANCH   3  15
TORSDOF 5
