REMARK  Name = ZINC55195974
REMARK  4 active torsions:
REMARK  status: ('A' for Active; 'I' for Inactive)
REMARK    1  A    between atoms: C_1  and  C_2
REMARK    2  A    between atoms: C_2  and  C_3
REMARK    3  A    between atoms: C_2  and  C_14
REMARK    4  A    between atoms: C_2  and  N_21
REMARK                            x       y       z     vdW  Elec       q    Type
REMARK                         _______ _______ _______ _____ _____    ______ ____
ROOT
ATOM      1  C   UNL     1      -0.248   1.505   0.029  0.00  0.00    -0.001 C 
ATOM      2  C   UNL     1       0.002  -0.004   0.002  0.00  0.00    -0.020 C 
ENDROOT
BRANCH   2   3
ATOM      3  C   UNL     1       0.649  -0.429   1.295  0.00  0.00    -0.051 A 
ATOM      4  C   UNL     1      -0.101  -0.481   2.456  0.00  0.00    +0.006 A 
ATOM      5  C   UNL     1       0.486  -0.871   3.646  0.00  0.00    +0.049 A 
ATOM      6  C   UNL     1       1.828  -1.210   3.672  0.00  0.00    +0.162 A 
ATOM      7  C   UNL     1       2.580  -1.158   2.507  0.00  0.00    +0.162 A 
ATOM      8  C   UNL     1       1.989  -0.772   1.316  0.00  0.00    +0.052 A 
ATOM      9  O   UNL     1       3.902  -1.495   2.542  0.00  0.00    -0.488 OA
ATOM     10  C   UNL     1       4.756  -0.601   3.258  0.00  0.00    +0.232 C 
ATOM     11  C   UNL     1       4.749  -0.922   4.745  0.00  0.00    +0.082 C 
ATOM     12  C   UNL     1       3.386  -0.696   5.380  0.00  0.00    +0.232 C 
ATOM     13  O   UNL     1       2.419  -1.598   4.839  0.00  0.00    -0.488 OA
ENDBRANCH   2   3
BRANCH   2  14
ATOM     14  C   UNL     1      -1.309  -0.728  -0.166  0.00  0.00    -0.037 A 
ATOM     15  C   UNL     1      -2.474  -0.011  -0.366  0.00  0.00    +0.004 A 
ATOM     16  C   UNL     1      -3.676  -0.675  -0.520  0.00  0.00    +0.000 A 
ATOM     17  C   UNL     1      -3.715  -2.056  -0.474  0.00  0.00    +0.001 A 
ATOM     18  C   UNL     1      -2.551  -2.774  -0.274  0.00  0.00    +0.020 A 
ATOM     19  C   UNL     1      -1.346  -2.110  -0.126  0.00  0.00    +0.043 A 
ATOM     20 CL   UNL     1       0.117  -3.011   0.119  0.00  0.00    -0.083 Cl
ENDBRANCH   2  14
BRANCH   2  21
ATOM     21  N   UNL     1       0.890  -0.333  -1.121  0.00  0.00    +0.387 N 
ATOM     22  H   UNL     1       1.768   0.152  -1.008  0.00  0.00    -0.088 HD
ATOM     23  H   UNL     1       1.055  -1.328  -1.139  0.00  0.00    -0.088 HD
ATOM     24  H   UNL     1       0.457  -0.048  -1.987  0.00  0.00    -0.088 HD
ENDBRANCH   2  21
TORSDOF 3
