REMARK  Name = ZINC55003691
REMARK  9 active torsions:
REMARK  status: ('A' for Active; 'I' for Inactive)
REMARK    1  A    between atoms: C_1  and  C_2
REMARK    2  A    between atoms: C_2  and  C_3
REMARK    3  A    between atoms: C_2  and  C_4
REMARK    4  A    between atoms: C_2  and  C_5
REMARK    5  A    between atoms: C_6  and  C_20
REMARK    6  A    between atoms: N_10  and  C_11
REMARK    7  A    between atoms: N_10  and  C_12
REMARK    8  A    between atoms: N_17  and  C_19
REMARK    9  A    between atoms: C_20  and  O_21
REMARK                            x       y       z     vdW  Elec       q    Type
REMARK                         _______ _______ _______ _____ _____    ______ ____
ROOT
ATOM      1  C   UNL     1       0.690  -0.434  -1.196  0.00  0.00    +0.061 A 
ATOM      2  C   UNL     1       0.777  -1.759  -1.467  0.00  0.00    +0.040 A 
ATOM      3  S   UNL     1       1.634  -1.724  -3.033  0.00  0.00    -0.055 S 
ATOM      4  C   UNL     1       1.790  -0.054  -3.176  0.00  0.00    +0.161 A 
ATOM      5  N   UNL     1       1.208   0.396  -2.084  0.00  0.00    -0.229 NA
ATOM      6  N   UNL     1       2.382   0.672  -4.197  0.00  0.00    -0.311 N 
ATOM      7  C   UNL     1       2.416   2.135  -4.133  0.00  0.00    +0.131 C 
ENDROOT
BRANCH   6   8
ATOM      8  C   UNL     1       2.975  -0.025  -5.342  0.00  0.00    +0.058 C 
ATOM      9  C   UNL     1       2.275   0.420  -6.629  0.00  0.00    +0.019 C 
ATOM     10  C   UNL     1       2.953  -0.254  -7.826  0.00  0.00    -0.017 C 
ATOM     11  C   UNL     1       4.442   0.097  -7.825  0.00  0.00    -0.079 C 
ATOM     12  N   UNL     1       5.059  -0.377  -6.581  0.00  0.00    +0.379 N 
ATOM     13  C   UNL     1       4.464   0.317  -5.433  0.00  0.00    -0.057 C 
ATOM     14  C   UNL     1       6.503  -0.108  -6.619  0.00  0.00    -0.096 C 
ATOM     15  H   UNL     1       4.907  -1.370  -6.488  0.00  0.00    -0.082 HD
ENDBRANCH   6   8
BRANCH   1  17
ATOM     16  C   UNL     1      -0.057   1.597   0.014  0.00  0.00    +0.017 C 
ATOM     17  C   UNL     1       0.027   0.070   0.060  0.00  0.00    +0.005 C 
ATOM     18  C   UNL     1       0.847  -0.359   1.278  0.00  0.00    +0.017 C 
ATOM     19  C   UNL     1      -1.383  -0.516   0.162  0.00  0.00    +0.017 C 
ENDBRANCH   1  17
BRANCH   2  20
ATOM     20  C   UNL     1       0.285  -2.938  -0.667  0.00  0.00    +0.200 C 
BRANCH  20  21
ATOM     21  O   UNL     1      -0.995  -3.345  -1.156  0.00  0.00    -0.390 OA
ATOM     22  H   UNL     1      -1.373  -4.100  -0.686  0.00  0.00    +0.210 HD
ENDBRANCH  20  21
ENDBRANCH   2  20
TORSDOF 4
