REMARK  Name = ZINC23145933
REMARK  5 active torsions:
REMARK  status: ('A' for Active; 'I' for Inactive)
REMARK    1  A    between atoms: C_7  and  N_18
REMARK    2  A    between atoms: C_9  and  O_17
REMARK    3  A    between atoms: C_21  and  C_24
REMARK    4  A    between atoms: C_24  and  C_25
REMARK    5  A    between atoms: C_25  and  N_26
REMARK                            x       y       z     vdW  Elec       q    Type
REMARK                         _______ _______ _______ _____ _____    ______ ____
ROOT
ATOM      1  C   UNL     1      -3.355   5.243   2.537  0.00  0.00    +0.000 A 
ATOM      2  C   UNL     1      -2.379   5.568   3.460  0.00  0.00    +0.000 A 
ATOM      3  C   UNL     1      -1.603   4.574   4.023  0.00  0.00    +0.004 A 
ATOM      4  C   UNL     1      -1.799   3.250   3.667  0.00  0.00    -0.037 A 
ATOM      5  C   UNL     1      -2.776   2.925   2.743  0.00  0.00    -0.055 A 
ATOM      6  C   UNL     1      -3.552   3.923   2.180  0.00  0.00    +0.002 A 
ATOM      7  C   UNL     1      -2.794   1.427   2.523  0.00  0.00    -0.007 C 
ATOM      8  C   UNL     1      -2.026   0.832   3.724  0.00  0.00    +0.116 C 
ATOM      9  C   UNL     1      -1.100   1.994   4.128  0.00  0.00    +0.017 C 
ATOM     10  C   UNL     1      -0.915   2.013   5.643  0.00  0.00    -0.005 C 
ATOM     11  C   UNL     1      -0.176   0.745   6.079  0.00  0.00    -0.082 C 
ATOM     12  N   UNL     1       1.121   0.675   5.394  0.00  0.00    +0.379 N 
ATOM     13  C   UNL     1       0.951   0.588   3.938  0.00  0.00    -0.082 C 
ATOM     14  C   UNL     1       0.250   1.851   3.430  0.00  0.00    -0.005 C 
ATOM     15  H   UNL     1       1.707   1.577   5.625  0.00  0.00    -0.086 HD
ATOM     16  H   UNL     1       1.669  -0.216   5.737  0.00  0.00    -0.086 HD
ENDROOT
BRANCH   7  17
ATOM     17  N   UNL     1      -2.115   1.088   1.265  0.00  0.00    +0.386 N 
ATOM     18  C   UNL     1      -2.662   1.866   0.146  0.00  0.00    -0.078 C 
ATOM     19  C   UNL     1      -1.838   1.596  -1.115  0.00  0.00    -0.015 C 
ATOM     20  C   UNL     1      -1.883   0.100  -1.438  0.00  0.00    -0.013 C 
ATOM     21  C   UNL     1      -1.353  -0.690  -0.238  0.00  0.00    -0.015 C 
ATOM     22  C   UNL     1      -2.191  -0.354   0.998  0.00  0.00    -0.078 C 
ATOM     23  H   UNL     1      -1.053   1.353   1.371  0.00  0.00    -0.081 HD
BRANCH  20  24
ATOM     24  C   UNL     1      -1.011  -0.186  -2.663  0.00  0.00    +0.026 C 
BRANCH  24  25
ATOM     25  C   UNL     1      -1.154  -1.656  -3.059  0.00  0.00    +0.143 C 
BRANCH  25  26
ATOM     26  N   UNL     1      -0.319  -1.929  -4.232  0.00  0.00    -0.271 N 
ATOM     27  C   UNL     1       0.632  -2.882  -4.325  0.00  0.00    +0.108 A 
ATOM     28  C   UNL     1       1.167  -2.810  -5.566  0.00  0.00    +0.041 A 
ATOM     29  C   UNL     1       0.528  -1.772  -6.251  0.00  0.00    +0.134 A 
ATOM     30  N   UNL     1      -0.363  -1.244  -5.453  0.00  0.00    -0.180 NA
ENDBRANCH  25  26
ENDBRANCH  24  25
ENDBRANCH  20  24
ENDBRANCH   7  17
BRANCH   8  31
ATOM     31  O   UNL     1      -2.922   0.502   4.787  0.00  0.00    -0.392 OA
ATOM     32  H   UNL     1      -2.532   0.067   5.719  0.00  0.00    +0.210 HD
ENDBRANCH   8  31
TORSDOF 5
