REMARK  Name = ZINC39944254
REMARK  5 active torsions:
REMARK  status: ('A' for Active; 'I' for Inactive)
REMARK    1  A    between atoms: C_1  and  C_2
REMARK    2  A    between atoms: C_2  and  C_16
REMARK    3  A    between atoms: N_3  and  N_4
REMARK    4  A    between atoms: C_5  and  C_7
REMARK    5  A    between atoms: C_21  and  O_22
REMARK                            x       y       z     vdW  Elec       q    Type
REMARK                         _______ _______ _______ _____ _____    ______ ____
ROOT
ATOM      1  N   UNL     1       0.024   0.035   2.340  0.00  0.00    -0.201 N 
ATOM      2  C   UNL     1       0.044  -0.645   3.503  0.00  0.00    +0.283 C 
ATOM      3  O   UNL     1       0.060  -1.861   3.497  0.00  0.00    -0.267 OA
ATOM      4  H   UNL     1       0.011   1.005   2.345  0.00  0.00    +0.178 HD
ENDROOT
BRANCH   2   5
ATOM      5  C   UNL     1       0.046   0.086   4.786  0.00  0.00    +0.150 C 
ATOM      6  C   UNL     1       0.071  -0.485   5.989  0.00  0.00    -0.011 C 
ATOM      7  C   UNL     1      -0.134  -1.653   6.919  0.00  0.00    +0.035 C 
ATOM      8  C   UNL     1      -0.769  -1.063   8.200  0.00  0.00    +0.007 C 
ATOM      9  C   UNL     1      -0.812   0.473   7.982  0.00  0.00    +0.033 C 
ATOM     10  C   UNL     1       0.296   0.695   6.942  0.00  0.00    +0.156 C 
ATOM     11  N   UNL     1       0.110   1.851   6.078  0.00  0.00    -0.179 NA
ATOM     12  N   UNL     1       0.029   1.445   4.910  0.00  0.00    -0.149 NA
ENDBRANCH   2   5
BRANCH   1  15
ATOM     13  C   UNL     1      -0.018   1.503   0.010  0.00  0.00    +0.068 C 
ATOM     14  C   UNL     1       0.002  -0.004   0.002  0.00  0.00    +0.067 C 
ATOM     15  N   UNL     1       0.022  -0.659   1.123  0.00  0.00    -0.184 NA
BRANCH  14  16
ATOM     16  C   UNL     1      -0.000  -0.734  -1.278  0.00  0.00    +0.039 A 
ATOM     17  C   UNL     1      -0.015  -0.033  -2.486  0.00  0.00    +0.013 A 
ATOM     18  C   UNL     1      -0.017  -0.722  -3.681  0.00  0.00    +0.001 A 
ATOM     19  C   UNL     1      -0.004  -2.107  -3.688  0.00  0.00    +0.004 A 
ATOM     20  C   UNL     1       0.011  -2.812  -2.499  0.00  0.00    +0.046 A 
ATOM     21  C   UNL     1       0.019  -2.135  -1.290  0.00  0.00    +0.126 A 
BRANCH  21  22
ATOM     22  O   UNL     1       0.039  -2.827  -0.122  0.00  0.00    -0.506 OA
ATOM     23  H   UNL     1      -0.839  -3.040   0.224  0.00  0.00    +0.292 HD
ENDBRANCH  21  22
ENDBRANCH  14  16
ENDBRANCH   1  15
TORSDOF 4
