REMARK  Name = ZINC51884680
REMARK  4 active torsions:
REMARK  status: ('A' for Active; 'I' for Inactive)
REMARK    1  A    between atoms: C_5  and  C_7
REMARK    2  A    between atoms: C_7  and  O_8
REMARK    3  A    between atoms: C_9  and  C_11
REMARK    4  A    between atoms: C_17  and  C_19
REMARK                            x       y       z     vdW  Elec       q    Type
REMARK                         _______ _______ _______ _____ _____    ______ ____
ROOT
ATOM      1  C   UNL     1       4.414   1.867  -0.408  0.00  0.00    +0.078 C 
ATOM      2  C   UNL     1       3.928   3.064  -1.228  0.00  0.00    +0.032 C 
ATOM      3  C   UNL     1       4.793   4.286  -0.902  0.00  0.00    +0.108 C 
ATOM      4  N   UNL     1       6.204   3.938  -1.120  0.00  0.00    -0.301 N 
ATOM      5  C   UNL     1       6.750   2.750  -0.451  0.00  0.00    +0.108 C 
ATOM      6  C   UNL     1       5.863   1.545  -0.782  0.00  0.00    +0.032 C 
ATOM      7  C   UNL     1       6.982   4.694  -1.920  0.00  0.00    +0.219 C 
ATOM      8  O   UNL     1       6.519   5.672  -2.468  0.00  0.00    -0.275 OA
ENDROOT
BRANCH   1  14
ATOM      9  C   UNL     1       0.854   0.453   1.884  0.00  0.00    +0.026 C 
ATOM     10  C   UNL     1       2.120   1.126   1.313  0.00  0.00    +0.108 C 
ATOM     11  N   UNL     1       2.482   0.403   0.085  0.00  0.00    -0.301 N 
ATOM     12  C   UNL     1       1.492  -0.665  -0.145  0.00  0.00    +0.113 C 
ATOM     13  C   UNL     1       0.900  -0.965   1.255  0.00  0.00    +0.033 C 
ATOM     14  C   UNL     1       3.543   0.672  -0.701  0.00  0.00    +0.219 C 
ATOM     15  O   UNL     1       3.798  -0.048  -1.643  0.00  0.00    -0.275 OA
BRANCH  13  16
ATOM     16  C   UNL     1      -0.505  -1.560   1.141  0.00  0.00    +0.161 C 
BRANCH  16  17
ATOM     17  O   UNL     1      -1.031  -1.794   2.448  0.00  0.00    -0.395 OA
ATOM     18  H   UNL     1      -1.921  -2.172   2.452  0.00  0.00    +0.209 HD
ENDBRANCH  16  17
ENDBRANCH  13  16
ENDBRANCH   1  14
BRANCH   7  19
ATOM     19  C   UNL     1       8.427   4.324  -2.134  0.00  0.00    +0.075 C 
ATOM     20  C   UNL     1       9.489   5.252  -1.541  0.00  0.00    +0.013 C 
ATOM     21  C   UNL     1       9.257   5.222  -3.053  0.00  0.00    +0.013 C 
ENDBRANCH   7  19
TORSDOF 4
