REMARK  Name = ZINC54999042
REMARK  6 active torsions:
REMARK  status: ('A' for Active; 'I' for Inactive)
REMARK    1  A    between atoms: C_1  and  C_2
REMARK    2  A    between atoms: C_2  and  C_3
REMARK    3  A    between atoms: C_2  and  C_4
REMARK    4  A    between atoms: C_2  and  C_5
REMARK    5  A    between atoms: C_6  and  C_21
REMARK    6  A    between atoms: C_21  and  N_22
REMARK                            x       y       z     vdW  Elec       q    Type
REMARK                         _______ _______ _______ _____ _____    ______ ____
ROOT
ATOM      1  C   UNL     1       1.037  -0.656  -1.111  0.00  0.00    +0.057 A 
ATOM      2  C   UNL     1       0.861  -1.889  -1.644  0.00  0.00    -0.003 A 
ATOM      3  S   UNL     1       1.675  -1.691  -3.220  0.00  0.00    -0.059 S 
ATOM      4  C   UNL     1       2.148  -0.086  -3.038  0.00  0.00    +0.161 A 
ATOM      5  N   UNL     1       1.687   0.229  -1.846  0.00  0.00    -0.229 NA
ATOM      6  N   UNL     1       2.847   0.712  -3.930  0.00  0.00    -0.302 N 
ATOM      7  C   UNL     1       3.173   2.103  -3.580  0.00  0.00    +0.135 C 
ATOM      8  C   UNL     1       4.670   2.308  -3.850  0.00  0.00    +0.179 C 
ATOM      9  O   UNL     1       4.941   1.949  -5.204  0.00  0.00    -0.373 OA
ATOM     10  C   UNL     1       4.725   0.575  -5.530  0.00  0.00    +0.139 C 
ATOM     11  C   UNL     1       3.270   0.177  -5.220  0.00  0.00    +0.104 C 
ATOM     12  C   UNL     1       2.449   0.788  -6.366  0.00  0.00    +0.025 C 
ATOM     13  C   UNL     1       3.419   0.966  -7.548  0.00  0.00    +0.004 C 
ATOM     14  C   UNL     1       4.783   0.451  -7.077  0.00  0.00    +0.033 C 
ENDROOT
BRANCH   1  16
ATOM     15  C   UNL     1       0.718   1.185   0.518  0.00  0.00    +0.017 C 
ATOM     16  C   UNL     1       0.511  -0.308   0.257  0.00  0.00    +0.005 C 
ATOM     17  C   UNL     1       1.262  -1.119   1.315  0.00  0.00    +0.017 C 
ATOM     18  C   UNL     1      -0.982  -0.636   0.328  0.00  0.00    +0.017 C 
ENDBRANCH   1  16
BRANCH   2  19
ATOM     19  C   UNL     1       0.168  -3.096  -1.065  0.00  0.00    -0.041 C 
BRANCH  19  20
ATOM     20  N   UNL     1      -1.208  -3.163  -1.577  0.00  0.00    +0.381 N 
ATOM     21  H   UNL     1      -1.704  -3.907  -1.111  0.00  0.00    -0.090 HD
ATOM     22  H   UNL     1      -1.675  -2.286  -1.403  0.00  0.00    -0.090 HD
ATOM     23  H   UNL     1      -1.189  -3.342  -2.570  0.00  0.00    -0.090 HD
ENDBRANCH  19  20
ENDBRANCH   2  19
TORSDOF 3
