REMARK  Name = ZINC43705234
REMARK  3 active torsions:
REMARK  status: ('A' for Active; 'I' for Inactive)
REMARK    1  A    between atoms: C_6  and  C_7
REMARK    2  A    between atoms: C_7  and  C_8
REMARK    3  A    between atoms: C_10  and  C_13
REMARK                            x       y       z     vdW  Elec       q    Type
REMARK                         _______ _______ _______ _____ _____    ______ ____
ROOT
ATOM      1  C   UNL     1      -1.738  -1.024  -1.408  0.00  0.00    +0.176 A 
ATOM      2  N   UNL     1      -2.520  -0.215  -2.131  0.00  0.00    -0.194 NA
ATOM      3  C   UNL     1      -2.715  -0.723  -3.316  0.00  0.00    +0.254 A 
ATOM      4  O   UNL     1      -2.055  -1.886  -3.388  0.00  0.00    -0.335 OA
ATOM      5  N   UNL     1      -1.419  -2.060  -2.130  0.00  0.00    -0.061 NA
ENDROOT
BRANCH   3   6
ATOM      6  C   UNL     1      -3.540  -0.107  -4.416  0.00  0.00    +0.189 C 
ATOM      7  C   UNL     1      -4.868  -0.858  -4.541  0.00  0.00    -0.041 C 
ATOM      8  N   UNL     1      -5.646  -0.292  -5.652  0.00  0.00    +0.383 N 
ATOM      9  C   UNL     1      -4.885  -0.430  -6.901  0.00  0.00    -0.054 C 
ATOM     10  C   UNL     1      -3.557   0.320  -6.772  0.00  0.00    +0.142 C 
ATOM     11  O   UNL     1      -2.829  -0.196  -5.654  0.00  0.00    -0.371 OA
ATOM     12  H   UNL     1      -6.522  -0.786  -5.735  0.00  0.00    -0.086 HD
ATOM     13  H   UNL     1      -5.826   0.684  -5.474  0.00  0.00    -0.086 HD
ENDBRANCH   3   6
BRANCH   1  14
ATOM     14  C   UNL     1      -1.293  -0.775   0.010  0.00  0.00    +0.114 C 
BRANCH  14  20
ATOM     15  C   UNL     1      -0.017   1.378   0.010  0.00  0.00    +0.005 A 
ATOM     16  C   UNL     1       1.171   2.086   0.002  0.00  0.00    +0.015 A 
ATOM     17  C   UNL     1       2.378   1.411  -0.013  0.00  0.00    +0.018 A 
ATOM     18  C   UNL     1       2.396   0.027  -0.021  0.00  0.00    +0.015 A 
ATOM     19  C   UNL     1       1.208  -0.679  -0.013  0.00  0.00    +0.005 A 
ATOM     20  C   UNL     1       0.002  -0.004   0.002  0.00  0.00    -0.040 A 
ATOM     21 BR   UNL     1       4.003   2.378  -0.024  0.00  0.00    -0.050 Br
ENDBRANCH  14  20
ENDBRANCH   1  14
TORSDOF 3
