REMARK  Name = ZINC37226384
REMARK  11 active torsions:
REMARK  status: ('A' for Active; 'I' for Inactive)
REMARK    1  A    between atoms: C_1  and  C_2
REMARK    2  A    between atoms: C_2  and  N_3
REMARK    3  A    between atoms: C_4  and  C_6
REMARK    4  A    between atoms: C_6  and  C_8
REMARK    5  A    between atoms: C_6  and  O_9
REMARK    6  A    between atoms: O_9  and  C_10
REMARK    7  A    between atoms: C_12  and  N_20
REMARK    8  A    between atoms: C_13  and  C_18
REMARK    9  A    between atoms: C_15  and  O_16
REMARK   10  A    between atoms: O_16  and  C_17
REMARK   11  A    between atoms: C_18  and  N_19
REMARK                            x       y       z     vdW  Elec       q    Type
REMARK                         _______ _______ _______ _____ _____    ______ ____
ROOT
ATOM      1  C   UNL     1       2.671  -4.264  -3.329  0.00  0.00    +0.165 A 
ATOM      2  C   UNL     1       3.595  -3.454  -3.969  0.00  0.00    +0.082 A 
ATOM      3  C   UNL     1       4.627  -4.021  -4.693  0.00  0.00    +0.131 A 
ATOM      4  C   UNL     1       4.740  -5.396  -4.780  0.00  0.00    -0.031 A 
ATOM      5  C   UNL     1       3.821  -6.210  -4.144  0.00  0.00    +0.053 A 
ATOM      6  C   UNL     1       2.787  -5.648  -3.412  0.00  0.00    +0.162 A 
ENDROOT
BRANCH   3   7
ATOM      7  N   UNL     1       5.614  -3.155  -5.376  0.00  0.00    +0.057 N 
ATOM      8  O   UNL     1       5.516  -1.952  -5.300  0.00  0.00    -0.126 OA
ATOM      9  O   UNL     1       6.517  -3.649  -6.009  0.00  0.00    -0.126 OA
ENDBRANCH   3   7
BRANCH   6  10
ATOM     10  O   UNL     1       1.886  -6.447  -2.781  0.00  0.00    -0.491 OA
ATOM     11  C   UNL     1       2.068  -7.859  -2.910  0.00  0.00    +0.277 C 
ENDBRANCH   6  10
BRANCH   1  12
ATOM     12  O   UNL     1       1.655  -3.708  -2.616  0.00  0.00    -0.476 OA
BRANCH  12  13
ATOM     13  C   UNL     1       1.669  -2.286  -2.468  0.00  0.00    +0.256 C 
ATOM     14  C   UNL     1       1.008  -1.640  -3.688  0.00  0.00    +0.062 C 
BRANCH  13  16
ATOM     15  N   UNL     1       0.875  -0.617  -0.825  0.00  0.00    -0.313 N 
ATOM     16  C   UNL     1       0.909  -1.904  -1.224  0.00  0.00    +0.254 C 
ATOM     17  O   UNL     1       0.330  -2.753  -0.582  0.00  0.00    -0.272 OA
ATOM     18  H   UNL     1       1.339   0.063  -1.338  0.00  0.00    +0.149 HD
BRANCH  15  20
ATOM     19  C   UNL     1       0.257   1.264   0.612  0.00  0.00    +0.024 C 
ATOM     20  C   UNL     1       0.137  -0.245   0.385  0.00  0.00    +0.101 C 
ENDBRANCH  15  20
ENDBRANCH  13  16
ENDBRANCH  12  13
ENDBRANCH   1  12
BRANCH   4  21
ATOM     21  C   UNL     1       5.867  -6.010  -5.571  0.00  0.00    -0.048 C 
BRANCH  21  22
ATOM     22  N   UNL     1       7.095  -5.996  -4.765  0.00  0.00    +0.381 N 
ATOM     23  H   UNL     1       7.330  -5.044  -4.527  0.00  0.00    -0.090 HD
ATOM     24  H   UNL     1       6.949  -6.528  -3.920  0.00  0.00    -0.090 HD
ATOM     25  H   UNL     1       7.849  -6.406  -5.294  0.00  0.00    -0.090 HD
ENDBRANCH  21  22
ENDBRANCH   4  21
TORSDOF 8
