REMARK  Name = ZINC13570967
REMARK  8 active torsions:
REMARK  status: ('A' for Active; 'I' for Inactive)
REMARK    1  A    between atoms: C_1  and  C_2
REMARK    2  A    between atoms: C_2  and  C_4
REMARK    3  A    between atoms: C_2  and  N_21
REMARK    4  A    between atoms: C_22  and  C_24
REMARK    5  A    between atoms: C_24  and  C_25
REMARK    6  A    between atoms: C_25  and  C_26
REMARK    7  A    between atoms: C_29  and  O_32
REMARK    8  A    between atoms: O_32  and  C_33
REMARK                            x       y       z     vdW  Elec       q    Type
REMARK                         _______ _______ _______ _____ _____    ______ ____
ROOT
ATOM      1  C   UNL     1       0.836  -0.462   1.171  0.00  0.00    +0.236 C 
ATOM      2  O   UNL     1       0.368  -1.228   1.986  0.00  0.00    -0.274 OA
ATOM      3  N   UNL     1       2.100  -0.017   1.312  0.00  0.00    -0.300 N 
ATOM      4  C   UNL     1       2.642   1.000   0.401  0.00  0.00    +0.110 C 
ATOM      5  C   UNL     1       3.949   0.475  -0.202  0.00  0.00    +0.047 C 
ATOM      6  C   UNL     1       4.899   0.067   0.924  0.00  0.00    +0.064 C 
ATOM      7  C   UNL     1       4.267  -1.049   1.756  0.00  0.00    +0.047 C 
ATOM      8  C   UNL     1       2.961  -0.537   2.383  0.00  0.00    +0.110 C 
ATOM      9  C   UNL     1       6.203  -0.407   0.342  0.00  0.00    +0.057 A 
ATOM     10  C   UNL     1       7.334   0.336   0.332  0.00  0.00    +0.039 A 
ATOM     11  N   UNL     1       8.294  -0.382  -0.253  0.00  0.00    -0.349 N 
ATOM     12  C   UNL     1       7.805  -1.542  -0.609  0.00  0.00    +0.171 A 
ATOM     13  N   UNL     1       6.500  -1.592  -0.254  0.00  0.00    -0.348 N 
ATOM     14  H   UNL     1       5.891  -2.334  -0.397  0.00  0.00    +0.166 HD
ATOM     15  C   UNL     1       7.407   1.730   0.904  0.00  0.00    +0.070 C 
ATOM     16  C   UNL     1       5.972   2.242   1.085  0.00  0.00    +0.088 C 
ATOM     17  N   UNL     1       5.168   1.230   1.785  0.00  0.00    -0.305 NA
ATOM     18  H   UNL     1       4.310   1.629   2.134  0.00  0.00    +0.123 HD
ATOM     19  H   UNL     1       9.209  -0.090  -0.391  0.00  0.00    +0.166 HD
ENDROOT
BRANCH   1  21
ATOM     20  C   UNL     1      -0.623   1.354   0.320  0.00  0.00    +0.038 C 
ATOM     21  C   UNL     1       0.003  -0.005   0.001  0.00  0.00    +0.156 C 
BRANCH  21  22
ATOM     22  N   UNL     1      -1.058  -0.983  -0.254  0.00  0.00    -0.304 N 
ATOM     23  C   UNL     1      -1.597  -1.087  -1.485  0.00  0.00    +0.214 C 
ATOM     24  O   UNL     1      -1.203  -0.372  -2.382  0.00  0.00    -0.276 OA
ATOM     25  H   UNL     1      -1.373  -1.555   0.463  0.00  0.00    +0.149 HD
BRANCH  23  26
ATOM     26  C   UNL     1      -2.688  -2.093  -1.747  0.00  0.00    +0.100 C 
BRANCH  26  27
ATOM     27  C   UNL     1      -3.120  -2.006  -3.212  0.00  0.00    +0.044 C 
BRANCH  27  28
ATOM     28  C   UNL     1      -4.211  -3.012  -3.475  0.00  0.00    -0.047 A 
ATOM     29  C   UNL     1      -3.886  -4.293  -3.881  0.00  0.00    +0.007 A 
ATOM     30  C   UNL     1      -4.885  -5.217  -4.122  0.00  0.00    +0.046 A 
ATOM     31  C   UNL     1      -6.214  -4.858  -3.957  0.00  0.00    +0.120 A 
ATOM     32  C   UNL     1      -6.538  -3.572  -3.549  0.00  0.00    +0.046 A 
ATOM     33  C   UNL     1      -5.536  -2.654  -3.303  0.00  0.00    +0.007 A 
BRANCH  31  34
ATOM     34  O   UNL     1      -7.198  -5.765  -4.194  0.00  0.00    -0.495 OA
ATOM     35  C   UNL     1      -8.545  -5.326  -4.003  0.00  0.00    +0.277 C 
ENDBRANCH  31  34
ENDBRANCH  27  28
ENDBRANCH  26  27
ENDBRANCH  23  26
ENDBRANCH  21  22
ENDBRANCH   1  21
TORSDOF 6
