REMARK  Name = ZINC41542351
REMARK  9 active torsions:
REMARK  status: ('A' for Active; 'I' for Inactive)
REMARK    1  A    between atoms: C_1  and  C_2
REMARK    2  A    between atoms: C_4  and  C_10
REMARK    3  A    between atoms: C_7  and  O_8
REMARK    4  A    between atoms: O_8  and  C_9
REMARK    5  A    between atoms: C_10  and  C_12
REMARK    6  A    between atoms: C_10  and  C_23
REMARK    7  A    between atoms: C_12  and  C_13
REMARK    8  A    between atoms: N_15  and  C_22
REMARK    9  A    between atoms: C_23  and  N_24
REMARK                            x       y       z     vdW  Elec       q    Type
REMARK                         _______ _______ _______ _____ _____    ______ ____
ROOT
ATOM      1  C   UNL     1       0.027  -2.816  -2.517  0.00  0.00    +0.006 C 
ENDROOT
BRANCH   1   5
ATOM      2  C   UNL     1      -0.018   1.503   0.010  0.00  0.00    +0.047 C 
ATOM      3  C   UNL     1       0.002  -0.004   0.002  0.00  0.00    -0.009 A 
ATOM      4  C   UNL     1       0.006  -0.689  -1.198  0.00  0.00    +0.010 A 
ATOM      5  C   UNL     1       0.024  -2.071  -1.206  0.00  0.00    -0.045 A 
ATOM      6  C   UNL     1       0.039  -2.772  -0.014  0.00  0.00    +0.007 A 
ATOM      7  C   UNL     1       0.036  -2.092   1.188  0.00  0.00    +0.046 A 
ATOM      8  C   UNL     1       0.023  -0.705   1.199  0.00  0.00    +0.123 A 
BRANCH   8   9
ATOM      9  O   UNL     1       0.025  -0.033   2.381  0.00  0.00    -0.495 OA
ATOM     10  C   UNL     1       0.048  -0.820   3.574  0.00  0.00    +0.277 C 
ENDBRANCH   8   9
ENDBRANCH   1   5
BRANCH   1  11
ATOM     11  C   UNL     1       1.287  -3.678  -2.610  0.00  0.00    +0.043 C 
BRANCH  11  12
ATOM     12  C   UNL     1       1.352  -4.327  -3.969  0.00  0.00    -0.022 A 
ATOM     13  C   UNL     1       0.913  -5.554  -4.290  0.00  0.00    +0.090 A 
ATOM     14  N   UNL     1       1.140  -5.799  -5.617  0.00  0.00    -0.349 N 
ATOM     15  C   UNL     1       1.748  -4.708  -6.197  0.00  0.00    +0.049 A 
ATOM     16  C   UNL     1       1.901  -3.735  -5.192  0.00  0.00    +0.003 A 
ATOM     17  C   UNL     1       2.490  -2.506  -5.495  0.00  0.00    +0.010 A 
ATOM     18  C   UNL     1       2.911  -2.253  -6.771  0.00  0.00    +0.001 A 
ATOM     19  C   UNL     1       2.758  -3.207  -7.766  0.00  0.00    +0.002 A 
ATOM     20  C   UNL     1       2.188  -4.430  -7.486  0.00  0.00    +0.026 A 
ATOM     21  C   UNL     1       0.790  -7.038  -6.316  0.00  0.00    +0.149 C 
ENDBRANCH  11  12
ENDBRANCH   1  11
BRANCH   1  22
ATOM     22  C   UNL     1      -1.211  -3.711  -2.597  0.00  0.00    -0.078 C 
BRANCH  22  23
ATOM     23  N   UNL     1      -2.419  -2.875  -2.628  0.00  0.00    +0.379 N 
ATOM     24  H   UNL     1      -3.235  -3.466  -2.681  0.00  0.00    -0.090 HD
ATOM     25  H   UNL     1      -2.462  -2.316  -1.789  0.00  0.00    -0.090 HD
ATOM     26  H   UNL     1      -2.389  -2.270  -3.434  0.00  0.00    -0.090 HD
ENDBRANCH  22  23
ENDBRANCH   1  22
TORSDOF 6
