REMARK  Name = ZINC00901258
REMARK  9 active torsions:
REMARK  status: ('A' for Active; 'I' for Inactive)
REMARK    1  A    between atoms: C_1  and  N_2
REMARK    2  A    between atoms: C_7  and  O_24
REMARK    3  A    between atoms: C_8  and  O_23
REMARK    4  A    between atoms: C_11  and  C_13
REMARK    5  A    between atoms: C_13  and  C_14
REMARK    6  A    between atoms: C_17  and  O_21
REMARK    7  A    between atoms: C_18  and  O_20
REMARK    8  A    between atoms: O_21  and  C_22
REMARK    9  A    between atoms: O_24  and  C_25
REMARK                            x       y       z     vdW  Elec       q    Type
REMARK                         _______ _______ _______ _____ _____    ______ ____
ROOT
ATOM      1  C   UNL     1       0.279   1.883   0.128  0.00  0.00    -0.095 C 
ATOM      2  N   UNL     1       0.084   0.438  -0.052  0.00  0.00    +0.383 N 
ATOM      3  C   UNL     1      -1.353   0.127  -0.012  0.00  0.00    -0.074 C 
ATOM      4  C   UNL     1      -1.555  -1.308  -0.501  0.00  0.00    +0.017 C 
ATOM      5  C   UNL     1      -0.632  -2.237   0.246  0.00  0.00    -0.044 A 
ATOM      6  C   UNL     1      -0.891  -3.599   0.209  0.00  0.00    +0.053 A 
ATOM      7  C   UNL     1      -0.066  -4.485   0.879  0.00  0.00    +0.162 A 
ATOM      8  C   UNL     1       1.028  -4.003   1.592  0.00  0.00    +0.159 A 
ATOM      9  C   UNL     1       1.280  -2.643   1.627  0.00  0.00    +0.051 A 
ATOM     10  C   UNL     1       0.449  -1.758   0.955  0.00  0.00    -0.054 A 
ATOM     11  C   UNL     1       0.759  -0.286   1.029  0.00  0.00    -0.033 C 
ATOM     12  H   UNL     1       0.468   0.153  -0.940  0.00  0.00    -0.081 HD
ENDROOT
BRANCH   8  13
ATOM     13  O   UNL     1       1.846  -4.866   2.253  0.00  0.00    -0.503 OA
ATOM     14  H   UNL     1       2.586  -5.191   1.722  0.00  0.00    +0.292 HD
ENDBRANCH   8  13
BRANCH   7  15
ATOM     15  O   UNL     1      -0.323  -5.820   0.840  0.00  0.00    -0.491 OA
ATOM     16  C   UNL     1      -1.463  -6.240   0.088  0.00  0.00    +0.277 C 
ENDBRANCH   7  15
BRANCH  11  17
ATOM     17  C   UNL     1       2.270  -0.082   0.906  0.00  0.00    +0.024 C 
BRANCH  17  18
ATOM     18  C   UNL     1       2.737  -0.582  -0.437  0.00  0.00    -0.045 A 
ATOM     19  C   UNL     1       3.211  -1.874  -0.565  0.00  0.00    +0.007 A 
ATOM     20  C   UNL     1       3.640  -2.338  -1.795  0.00  0.00    +0.049 A 
ATOM     21  C   UNL     1       3.595  -1.507  -2.903  0.00  0.00    +0.161 A 
ATOM     22  C   UNL     1       3.118  -0.206  -2.774  0.00  0.00    +0.159 A 
ATOM     23  C   UNL     1       2.684   0.251  -1.539  0.00  0.00    +0.052 A 
BRANCH  22  24
ATOM     24  O   UNL     1       3.071   0.614  -3.858  0.00  0.00    -0.503 OA
ATOM     25  H   UNL     1       2.240   0.568  -4.351  0.00  0.00    +0.292 HD
ENDBRANCH  22  24
BRANCH  21  26
ATOM     26  O   UNL     1       4.018  -1.961  -4.113  0.00  0.00    -0.491 OA
ATOM     27  C   UNL     1       4.496  -3.306  -4.170  0.00  0.00    +0.277 C 
ENDBRANCH  21  26
ENDBRANCH  17  18
ENDBRANCH  11  17
TORSDOF 6
