REMARK  Name = ZINC45547799
REMARK  8 active torsions:
REMARK  status: ('A' for Active; 'I' for Inactive)
REMARK    1  A    between atoms: C_1  and  C_2
REMARK    2  A    between atoms: C_2  and  C_3
REMARK    3  A    between atoms: C_2  and  C_4
REMARK    4  A    between atoms: C_2  and  N_5
REMARK    5  A    between atoms: C_6  and  C_8
REMARK    6  A    between atoms: C_8  and  N_9
REMARK    7  A    between atoms: N_12  and  C_13
REMARK    8  A    between atoms: C_16  and  O_19
REMARK                            x       y       z     vdW  Elec       q    Type
REMARK                         _______ _______ _______ _____ _____    ______ ____
ROOT
ATOM      1  N   UNL     1       4.051  -0.111  -2.677  0.00  0.00    -0.291 N 
ATOM      2  C   UNL     1       4.876  -0.420  -3.698  0.00  0.00    +0.300 C 
ATOM      3  O   UNL     1       4.479  -1.119  -4.610  0.00  0.00    -0.253 OA
ATOM      4  N   UNL     1       6.140   0.046  -3.707  0.00  0.00    -0.297 N 
ATOM      5  H   UNL     1       4.368   0.447  -1.950  0.00  0.00    +0.151 HD
ATOM      6  H   UNL     1       6.457   0.605  -2.980  0.00  0.00    +0.151 HD
ENDROOT
BRANCH   4   7
ATOM      7  C   UNL     1       7.037  -0.289  -4.816  0.00  0.00    +0.075 C 
ATOM      8  C   UNL     1       7.694  -1.644  -4.548  0.00  0.00    +0.025 C 
ATOM      9  C   UNL     1       8.630  -1.995  -5.707  0.00  0.00    +0.033 C 
ATOM     10  C   UNL     1       9.711  -0.919  -5.833  0.00  0.00    +0.115 C 
ATOM     11  C   UNL     1       9.053   0.436  -6.101  0.00  0.00    +0.033 C 
ATOM     12  C   UNL     1       8.117   0.786  -4.942  0.00  0.00    +0.025 C 
BRANCH  10  13
ATOM     13  O   UNL     1      10.585  -1.247  -6.915  0.00  0.00    -0.392 OA
ATOM     14  H   UNL     1      11.297  -0.607  -7.053  0.00  0.00    +0.210 HD
ENDBRANCH  10  13
ENDBRANCH   4   7
BRANCH   1  15
ATOM     15  C   UNL     1       2.677  -0.618  -2.667  0.00  0.00    +0.201 C 
BRANCH  15  17
ATOM     16  N   UNL     1       0.688  -0.476  -1.203  0.00  0.00    -0.309 N 
ATOM     17  C   UNL     1       1.972  -0.132  -1.427  0.00  0.00    +0.231 C 
ATOM     18  O   UNL     1       2.559   0.569  -0.630  0.00  0.00    -0.274 OA
ATOM     19  H   UNL     1       0.218  -1.037  -1.840  0.00  0.00    +0.149 HD
BRANCH  16  21
ATOM     20  C   UNL     1      -0.019   1.526   0.010  0.00  0.00    +0.031 C 
ATOM     21  C   UNL     1       0.002  -0.004   0.002  0.00  0.00    +0.026 C 
ATOM     22  C   UNL     1       0.742  -0.511   1.242  0.00  0.00    +0.031 C 
ATOM     23  C   UNL     1      -1.433  -0.534   0.013  0.00  0.00    +0.031 C 
ENDBRANCH  16  21
ENDBRANCH  15  17
ENDBRANCH   1  15
TORSDOF 5
