REMARK  Name = ZINC43343691
REMARK  7 active torsions:
REMARK  status: ('A' for Active; 'I' for Inactive)
REMARK    1  A    between atoms: C_1  and  C_2
REMARK    2  A    between atoms: C_2  and  C_3
REMARK    3  A    between atoms: N_11  and  C_12
REMARK    4  A    between atoms: C_12  and  C_14
REMARK    5  A    between atoms: C_12  and  C_15
REMARK    6  A    between atoms: N_18  and  C_21
REMARK    7  A    between atoms: C_19  and  C_20
REMARK                            x       y       z     vdW  Elec       q    Type
REMARK                         _______ _______ _______ _____ _____    ______ ____
ROOT
ATOM      1  C   UNL     1       0.707  -0.490  -1.238  0.00  0.00    +0.103 A 
ATOM      2  N   UNL     1       1.982  -0.759  -1.434  0.00  0.00    -0.145 NA
ATOM      3  N   UNL     1       2.358  -1.161  -2.572  0.00  0.00    -0.126 NA
ATOM      4  C   UNL     1       1.510  -1.319  -3.570  0.00  0.00    +0.189 A 
ATOM      5  S   UNL     1       0.050  -0.872  -2.855  0.00  0.00    -0.035 S 
ATOM      6  N   UNL     1       1.756  -1.748  -4.870  0.00  0.00    -0.247 N 
ATOM      7  C   UNL     1       3.010  -2.067  -5.248  0.00  0.00    +0.306 C 
ATOM      8  O   UNL     1       3.925  -1.981  -4.453  0.00  0.00    -0.252 OA
ATOM      9  N   UNL     1       3.248  -2.483  -6.508  0.00  0.00    -0.292 N 
ATOM     10  H   UNL     1       1.026  -1.816  -5.504  0.00  0.00    +0.158 HD
ATOM     11  H   UNL     1       2.517  -2.551  -7.142  0.00  0.00    +0.151 HD
ENDROOT
BRANCH   1  13
ATOM     12  C   UNL     1      -0.019   1.526   0.010  0.00  0.00    +0.011 C 
ATOM     13  C   UNL     1       0.002  -0.004   0.002  0.00  0.00    +0.061 C 
ENDBRANCH   1  13
BRANCH   9  14
ATOM     14  C   UNL     1       4.610  -2.830  -6.920  0.00  0.00    +0.105 C 
ATOM     15  C   UNL     1       4.902  -4.284  -6.542  0.00  0.00    +0.033 C 
BRANCH  14  16
ATOM     16  C   UNL     1       4.742  -2.663  -8.411  0.00  0.00    +0.013 A 
ATOM     17  C   UNL     1       3.690  -2.624  -9.332  0.00  0.00    +0.140 A 
ATOM     18  N   UNL     1       4.197  -2.467 -10.527  0.00  0.00    -0.179 NA
ATOM     19  N   UNL     1       5.591  -2.401 -10.405  0.00  0.00    -0.271 N 
ATOM     20  C   UNL     1       5.900  -2.518  -9.097  0.00  0.00    +0.041 A 
ATOM     21  C   UNL     1       7.286  -2.496  -8.505  0.00  0.00    +0.065 C 
ATOM     22  C   UNL     1       6.545  -2.228 -11.504  0.00  0.00    +0.172 C 
ENDBRANCH  14  16
ENDBRANCH   9  14
TORSDOF 3
