REMARK  Name = ZINC04896144
REMARK  7 active torsions:
REMARK  status: ('A' for Active; 'I' for Inactive)
REMARK    1  A    between atoms: C_6  and  C_7
REMARK    2  A    between atoms: C_6  and  N_38
REMARK    3  A    between atoms: C_7  and  O_19
REMARK    4  A    between atoms: C_8  and  O_18
REMARK    5  A    between atoms: C_10  and  O_17
REMARK    6  A    between atoms: C_12  and  C_15
REMARK    7  A    between atoms: C_15  and  O_16
REMARK                            x       y       z     vdW  Elec       q    Type
REMARK                         _______ _______ _______ _____ _____    ______ ____
ROOT
ATOM      1  C   UNL     1      -0.452   3.112   3.691  0.00  0.00    +0.182 C 
ATOM      2  C   UNL     1      -1.099   3.539   5.026  0.00  0.00    +0.202 C 
ATOM      3  C   UNL     1      -0.816   2.314   5.937  0.00  0.00    +0.179 C 
ATOM      4  C   UNL     1      -0.911   1.157   4.911  0.00  0.00    +0.178 C 
ATOM      5  O   UNL     1      -0.348   1.683   3.699  0.00  0.00    -0.340 OA
ENDROOT
BRANCH   3   6
ATOM      6  O   UNL     1       0.491   2.389   6.510  0.00  0.00    -0.386 OA
ATOM      7  H   UNL     1       0.711   1.644   7.086  0.00  0.00    +0.210 HD
ENDBRANCH   3   6
BRANCH   2   8
ATOM      8  O   UNL     1      -0.469   4.714   5.543  0.00  0.00    -0.384 OA
ATOM      9  H   UNL     1      -0.841   5.022   6.380  0.00  0.00    +0.210 HD
ENDBRANCH   2   8
BRANCH   1  10
ATOM     10  O   UNL     1       0.848   3.694   3.574  0.00  0.00    -0.364 OA
ATOM     11  H   UNL     1       1.310   3.462   2.757  0.00  0.00    +0.213 HD
ENDBRANCH   1  10
BRANCH   1  12
ATOM     12  C   UNL     1      -1.329   3.562   2.521  0.00  0.00    -0.010 C 
BRANCH  12  18
ATOM     13  C   UNL     1      -0.366   2.361  -1.468  0.00  0.00    -0.004 C 
ATOM     14  C   UNL     1       0.207   1.576  -0.285  0.00  0.00    -0.019 C 
ATOM     15  C   UNL     1      -0.642   1.844   0.960  0.00  0.00    -0.079 C 
ATOM     16  C   UNL     1      -1.228   4.053   0.153  0.00  0.00    -0.079 C 
ATOM     17  C   UNL     1      -0.396   3.851  -1.115  0.00  0.00    -0.019 C 
ATOM     18  N   UNL     1      -0.610   3.292   1.259  0.00  0.00    +0.383 N 
ATOM     19  H   UNL     1       0.367   3.589   1.363  0.00  0.00    -0.082 HD
ENDBRANCH  12  18
ENDBRANCH   1  12
BRANCH   4  20
ATOM     20  C   UNL     1      -0.102  -0.049   5.394  0.00  0.00    +0.190 C 
BRANCH  20  21
ATOM     21  O   UNL     1      -0.295  -1.143   4.496  0.00  0.00    -0.392 OA
ATOM     22  H   UNL     1       0.189  -1.944   4.741  0.00  0.00    +0.210 HD
ENDBRANCH  20  21
ENDBRANCH   4  20
TORSDOF 7
