REMARK  Name = ZINC34814535
REMARK  5 active torsions:
REMARK  status: ('A' for Active; 'I' for Inactive)
REMARK    1  A    between atoms: C_1  and  C_2
REMARK    2  A    between atoms: C_6  and  C_8
REMARK    3  A    between atoms: C_8  and  N_9
REMARK    4  A    between atoms: C_24  and  C_35
REMARK    5  A    between atoms: C_31  and  C_34
REMARK                            x       y       z     vdW  Elec       q    Type
REMARK                         _______ _______ _______ _____ _____    ______ ____
ROOT
ATOM      1  N   UNL     1       0.687  -4.199   4.804  0.00  0.00    -0.295 N 
ATOM      2  C   UNL     1       1.701  -3.739   4.046  0.00  0.00    +0.303 C 
ATOM      3  O   UNL     1       1.469  -3.215   2.973  0.00  0.00    -0.253 OA
ATOM      4  N   UNL     1       2.973  -3.859   4.475  0.00  0.00    -0.284 N 
ATOM      5  C   UNL     1       3.204  -4.596   5.718  0.00  0.00    +0.111 C 
ATOM      6  C   UNL     1       3.602  -6.013   5.356  0.00  0.00    +0.040 C 
ATOM      7  C   UNL     1       5.112  -6.099   5.120  0.00  0.00    +0.119 C 
ATOM      8  N   UNL     1       5.634  -4.946   4.371  0.00  0.00    -0.357 N 
ATOM      9  C   UNL     1       4.965  -4.380   3.213  0.00  0.00    +0.136 C 
ATOM     10  C   UNL     1       3.997  -3.267   3.687  0.00  0.00    +0.130 C 
ATOM     11  C   UNL     1       6.751  -4.404   4.766  0.00  0.00    +0.110 C 
ATOM     12  N   UNL     1       7.283  -3.319   4.106  0.00  0.00    -0.298 N 
ATOM     13  C   UNL     1       7.527  -2.099   4.762  0.00  0.00    +0.075 A 
ATOM     14  C   UNL     1       7.855  -1.021   3.938  0.00  0.00    +0.027 A 
ATOM     15  C   UNL     1       8.115   0.222   4.475  0.00  0.00    +0.005 A 
ATOM     16  C   UNL     1       8.050   0.403   5.844  0.00  0.00    -0.047 A 
ATOM     17  C   UNL     1       7.726  -0.657   6.663  0.00  0.00    +0.051 A 
ATOM     18  C   UNL     1       7.458  -1.921   6.129  0.00  0.00    +0.150 A 
ATOM     19  O   UNL     1       7.145  -2.880   7.029  0.00  0.00    -0.453 OA
ATOM     20  C   UNL     1       7.708  -4.107   7.035  0.00  0.00    +0.139 A 
ATOM     21  C   UNL     1       7.478  -4.935   5.937  0.00  0.00    +0.055 A 
ATOM     22  C   UNL     1       7.950  -6.245   5.956  0.00  0.00    +0.018 A 
ATOM     23  C   UNL     1       8.683  -6.689   7.039  0.00  0.00    -0.050 A 
ATOM     24  C   UNL     1       8.953  -5.840   8.099  0.00  0.00    +0.007 A 
ATOM     25  C   UNL     1       8.473  -4.556   8.096  0.00  0.00    +0.047 A 
ATOM     26  C   UNL     1       9.191  -8.108   7.068  0.00  0.00    +0.044 C 
ATOM     27  C   UNL     1       8.335   1.757   6.440  0.00  0.00    +0.044 C 
ATOM     28  H   UNL     1       0.875  -4.684   5.623  0.00  0.00    +0.151 HD
ATOM     29  H   UNL     1       7.495  -3.398   3.162  0.00  0.00    +0.154 HD
ENDROOT
BRANCH   1  30
ATOM     30  C   UNL     1      -0.700  -3.966   4.393  0.00  0.00    +0.141 C 
BRANCH  30  36
ATOM     31  C   UNL     1      -3.369  -7.872   6.026  0.00  0.00    +0.044 C 
ATOM     32  C   UNL     1      -2.911  -6.445   6.187  0.00  0.00    -0.050 A 
ATOM     33  C   UNL     1      -3.348  -5.696   7.264  0.00  0.00    +0.003 A 
ATOM     34  C   UNL     1      -2.928  -4.388   7.411  0.00  0.00    +0.001 A 
ATOM     35  C   UNL     1      -2.071  -3.828   6.482  0.00  0.00    +0.005 A 
ATOM     36  C   UNL     1      -1.634  -4.577   5.406  0.00  0.00    -0.030 A 
ATOM     37  C   UNL     1      -2.050  -5.887   5.261  0.00  0.00    +0.008 A 
ENDBRANCH  30  36
ENDBRANCH   1  30
TORSDOF 2
