REMARK  Name = ZINC12388869
REMARK  10 active torsions:
REMARK  status: ('A' for Active; 'I' for Inactive)
REMARK    1  A    between atoms: C_1  and  C_2
REMARK    2  A    between atoms: C_14  and  O_34
REMARK    3  A    between atoms: C_15  and  C_16
REMARK    4  A    between atoms: C_19  and  C_22
REMARK    5  A    between atoms: C_25  and  O_32
REMARK    6  A    between atoms: C_26  and  O_30
REMARK    7  A    between atoms: C_27  and  O_28
REMARK    8  A    between atoms: O_28  and  C_29
REMARK    9  A    between atoms: O_30  and  C_31
REMARK   10  A    between atoms: O_32  and  C_33
REMARK                            x       y       z     vdW  Elec       q    Type
REMARK                         _______ _______ _______ _____ _____    ______ ____
ROOT
ATOM      1  C   UNL     1      -3.193  -0.683   1.520  0.00  0.00    +0.072 C 
ATOM      2  N   UNL     1      -2.683  -1.307   0.515  0.00  0.00    -0.190 NA
ATOM      3  N   UNL     1      -2.254  -0.472  -0.515  0.00  0.00    -0.261 N 
ATOM      4  C   UNL     1      -2.518   0.925  -0.137  0.00  0.00    +0.129 C 
ATOM      5  C   UNL     1      -3.164   0.806   1.258  0.00  0.00    +0.086 C 
ATOM      6  H   UNL     1      -1.847  -0.765  -1.346  0.00  0.00    +0.169 HD
ENDROOT
BRANCH   1  21
ATOM      7  C   UNL     1      -1.428  -1.153   3.751  0.00  0.00    +0.044 C 
ATOM      8  C   UNL     1      -2.878  -1.557   3.829  0.00  0.00    -0.035 A 
ATOM      9  C   UNL     1      -3.360  -2.153   4.973  0.00  0.00    +0.051 A 
ATOM     10  C   UNL     1      -4.694  -2.529   5.059  0.00  0.00    +0.143 A 
ATOM     11  C   UNL     1      -5.557  -2.299   3.971  0.00  0.00    +0.063 A 
ATOM     12  C   UNL     1      -6.962  -2.699   4.080  0.00  0.00    -0.023 A 
ATOM     13  C   UNL     1      -7.380  -3.280   5.231  0.00  0.00    +0.041 A 
ATOM     14  C   UNL     1      -6.458  -3.482   6.283  0.00  0.00    +0.341 A 
ATOM     15  O   UNL     1      -6.842  -4.006   7.314  0.00  0.00    -0.245 OA
ATOM     16  O   UNL     1      -5.173  -3.114   6.179  0.00  0.00    -0.422 OA
ATOM     17  C   UNL     1      -8.854  -3.614   5.137  0.00  0.00    +0.043 C 
ATOM     18  C   UNL     1      -9.382  -2.774   3.953  0.00  0.00    +0.010 C 
ATOM     19  C   UNL     1      -8.107  -2.584   3.101  0.00  0.00    +0.037 C 
ATOM     20  C   UNL     1      -5.070  -1.689   2.807  0.00  0.00    +0.137 A 
ATOM     21  C   UNL     1      -3.722  -1.322   2.738  0.00  0.00    +0.043 A 
BRANCH  20  22
ATOM     22  O   UNL     1      -5.897  -1.460   1.756  0.00  0.00    -0.505 OA
ATOM     23  H   UNL     1      -5.937  -2.189   1.122  0.00  0.00    +0.292 HD
ENDBRANCH  20  22
ENDBRANCH   1  21
BRANCH   4  24
ATOM     24  C   UNL     1      -1.232   1.707  -0.061  0.00  0.00    +0.020 A 
ATOM     25  C   UNL     1      -0.020   1.042  -0.041  0.00  0.00    +0.013 A 
ATOM     26  C   UNL     1       1.162   1.754   0.022  0.00  0.00    +0.050 A 
ATOM     27  C   UNL     1       1.137   3.140   0.072  0.00  0.00    +0.165 A 
ATOM     28  C   UNL     1      -0.079   3.812   0.058  0.00  0.00    +0.204 A 
ATOM     29  C   UNL     1      -1.266   3.092  -0.006  0.00  0.00    +0.170 A 
BRANCH  29  30
ATOM     30  O   UNL     1      -2.459   3.745  -0.021  0.00  0.00    -0.491 OA
ATOM     31  C   UNL     1      -3.004   4.128   1.243  0.00  0.00    +0.277 C 
ENDBRANCH  29  30
BRANCH  28  32
ATOM     32  O   UNL     1      -0.108   5.172   0.107  0.00  0.00    -0.488 OA
ATOM     33  C   UNL     1      -0.004   5.868  -1.137  0.00  0.00    +0.277 C 
ENDBRANCH  28  32
BRANCH  27  34
ATOM     34  O   UNL     1       2.301   3.840   0.135  0.00  0.00    -0.491 OA
ATOM     35  C   UNL     1       3.514   3.084   0.147  0.00  0.00    +0.277 C 
ENDBRANCH  27  34
ENDBRANCH   4  24
TORSDOF 6
