REMARK  Name = ZINC63695590
REMARK  10 active torsions:
REMARK  status: ('A' for Active; 'I' for Inactive)
REMARK    1  A    between atoms: C_1  and  C_2
REMARK    2  A    between atoms: C_2  and  C_3
REMARK    3  A    between atoms: C_3  and  C_4
REMARK    4  A    between atoms: C_4  and  N_5
REMARK    5  A    between atoms: N_8  and  C_9
REMARK    6  A    between atoms: C_9  and  C_15
REMARK    7  A    between atoms: N_17  and  C_18
REMARK    8  A    between atoms: C_18  and  C_19
REMARK    9  A    between atoms: C_19  and  N_20
REMARK   10  A    between atoms: N_23  and  C_26
REMARK                            x       y       z     vdW  Elec       q    Type
REMARK                         _______ _______ _______ _____ _____    ______ ____
ROOT
ATOM      1  C   UNL     1       2.442  -5.688  -3.989  0.00  0.00    +0.112 C 
ATOM      2  C   UNL     1       1.177  -6.518  -4.215  0.00  0.00    +0.035 C 
ATOM      3  C   UNL     1       0.416  -5.969  -5.424  0.00  0.00    +0.003 C 
ATOM      4  C   UNL     1       1.307  -6.047  -6.665  0.00  0.00    +0.000 C 
ATOM      5  C   UNL     1       2.572  -5.217  -6.439  0.00  0.00    +0.003 C 
ATOM      6  C   UNL     1       3.333  -5.766  -5.231  0.00  0.00    +0.035 C 
ENDROOT
BRANCH   1  10
ATOM      7  N   UNL     1       1.114  -2.675  -2.357  0.00  0.00    -0.299 N 
ATOM      8  C   UNL     1       1.367  -3.968  -2.638  0.00  0.00    +0.300 C 
ATOM      9  O   UNL     1       0.961  -4.843  -1.897  0.00  0.00    -0.253 OA
ATOM     10  N   UNL     1       2.072  -4.292  -3.740  0.00  0.00    -0.285 N 
ATOM     11  H   UNL     1       1.438  -1.977  -2.947  0.00  0.00    +0.150 HD
ATOM     12  H   UNL     1       2.334  -3.602  -4.369  0.00  0.00    +0.151 HD
BRANCH   7  13
ATOM     13  C   UNL     1       0.348  -2.323  -1.159  0.00  0.00    +0.106 C 
BRANCH  13  14
ATOM     14  C   UNL     1       0.203  -0.802  -1.075  0.00  0.00    +0.018 C 
BRANCH  14  16
ATOM     15  C   UNL     1      -0.742   1.087   0.260  0.00  0.00    +0.004 C 
ATOM     16  C   UNL     1      -0.597  -0.434   0.176  0.00  0.00    -0.002 C 
ENDBRANCH  14  16
ENDBRANCH  13  14
ENDBRANCH   7  13
ENDBRANCH   1  10
BRANCH   1  17
ATOM     17  C   UNL     1       3.192  -6.229  -2.799  0.00  0.00    +0.237 C 
ATOM     18  O   UNL     1       3.042  -7.384  -2.461  0.00  0.00    -0.273 OA
ATOM     19  N   UNL     1       4.029  -5.429  -2.109  0.00  0.00    -0.312 N 
ATOM     20  H   UNL     1       4.206  -4.527  -2.421  0.00  0.00    +0.149 HD
BRANCH  19  21
ATOM     21  C   UNL     1       4.673  -5.920  -0.889  0.00  0.00    +0.119 C 
BRANCH  21  22
ATOM     22  C   UNL     1       5.566  -4.823  -0.306  0.00  0.00    +0.103 C 
BRANCH  22  23
ATOM     23  N   UNL     1       6.212  -5.316   0.918  0.00  0.00    -0.304 NA
ATOM     24  C   UNL     1       5.221  -5.553   1.978  0.00  0.00    +0.066 C 
ATOM     25  C   UNL     1       5.925  -6.120   3.212  0.00  0.00    -0.064 C 
ATOM     26  N   UNL     1       6.945  -5.170   3.675  0.00  0.00    +0.379 N 
ATOM     27  C   UNL     1       7.940  -4.963   2.615  0.00  0.00    -0.064 C 
ATOM     28  C   UNL     1       7.253  -4.385   1.376  0.00  0.00    +0.066 C 
ATOM     29  C   UNL     1       7.607  -5.707   4.871  0.00  0.00    -0.096 C 
ATOM     30  H   UNL     1       6.506  -4.290   3.901  0.00  0.00    -0.082 HD
ENDBRANCH  22  23
ENDBRANCH  21  22
ENDBRANCH  19  21
ENDBRANCH   1  17
TORSDOF 8
