REMARK  Name = ZINC20718838
REMARK  8 active torsions:
REMARK  status: ('A' for Active; 'I' for Inactive)
REMARK    1  A    between atoms: C_1  and  O_2
REMARK    2  A    between atoms: O_2  and  C_3
REMARK    3  A    between atoms: C_5  and  C_13
REMARK    4  A    between atoms: C_6  and  O_11
REMARK    5  A    between atoms: C_8  and  O_9
REMARK    6  A    between atoms: O_9  and  C_10
REMARK    7  A    between atoms: O_11  and  C_12
REMARK    8  A    between atoms: C_22  and  O_25
REMARK                            x       y       z     vdW  Elec       q    Type
REMARK                         _______ _______ _______ _____ _____    ______ ____
ROOT
ATOM      1  C   UNL     1       2.401   0.384  -4.230  0.00  0.00    +0.115 C 
ATOM      2  C   UNL     1       3.854   0.589  -3.923  0.00  0.00    +0.033 A 
ATOM      3  C   UNL     1       4.344   0.550  -2.652  0.00  0.00    +0.112 A 
ATOM      4  N   UNL     1       5.668   0.779  -2.704  0.00  0.00    -0.282 N 
ATOM      5  H   UNL     1       6.272   0.809  -1.946  0.00  0.00    +0.188 HD
ATOM      6  N   UNL     1       6.021   0.964  -4.041  0.00  0.00    -0.154 NA
ATOM      7  C   UNL     1       4.924   0.845  -4.790  0.00  0.00    +0.182 A 
ATOM      8  N   UNL     1       4.978   0.961  -6.136  0.00  0.00    -0.195 NA
ATOM      9  C   UNL     1       4.161   0.903  -7.081  0.00  0.00    +0.199 C 
ATOM     10  C   UNL     1       2.696   0.723  -7.063  0.00  0.00    +0.165 C 
ATOM     11  S   UNL     1       2.136  -0.435  -5.807  0.00  0.00    -0.138 S 
ENDROOT
BRANCH   1  14
ATOM     12  C   UNL     1       0.607  -0.608  -1.057  0.00  0.00    +0.162 A 
ATOM     13  C   UNL     1       1.173   0.160  -2.062  0.00  0.00    +0.058 A 
ATOM     14  C   UNL     1       1.787  -0.453  -3.138  0.00  0.00    +0.015 A 
ATOM     15  C   UNL     1       1.838  -1.837  -3.214  0.00  0.00    +0.128 A 
ATOM     16  C   UNL     1       1.272  -2.609  -2.211  0.00  0.00    +0.095 A 
ATOM     17  C   UNL     1       0.661  -1.996  -1.129  0.00  0.00    +0.165 A 
BRANCH  12  19
ATOM     18  C   UNL     1      -0.017   1.425   0.010  0.00  0.00    +0.277 C 
ATOM     19  O   UNL     1       0.002  -0.004   0.002  0.00  0.00    -0.491 OA
ENDBRANCH  12  19
BRANCH  17  20
ATOM     20  O   UNL     1       0.112  -2.751  -0.140  0.00  0.00    -0.491 OA
ATOM     21  C   UNL     1       0.205  -4.170  -0.279  0.00  0.00    +0.277 C 
ENDBRANCH  17  20
BRANCH  15  22
ATOM     22  O   UNL     1       2.442  -2.437  -4.274  0.00  0.00    -0.495 OA
ATOM     23  C   UNL     1       2.458  -3.866  -4.288  0.00  0.00    +0.277 C 
ENDBRANCH  15  22
ENDBRANCH   1  14
BRANCH   9  24
ATOM     24  O   UNL     1       4.703   1.026  -8.310  0.00  0.00    -0.495 OA
ATOM     25  H   UNL     1       5.663   1.144  -8.306  0.00  0.00    +0.293 HD
ENDBRANCH   9  24
TORSDOF 5
