REMARK  Name = ZINC40103727
REMARK  7 active torsions:
REMARK  status: ('A' for Active; 'I' for Inactive)
REMARK    1  A    between atoms: C_1  and  C_2
REMARK    2  A    between atoms: C_5  and  O_26
REMARK    3  A    between atoms: C_6  and  C_8
REMARK    4  A    between atoms: C_8  and  C_10
REMARK    5  A    between atoms: C_8  and  N_11
REMARK    6  A    between atoms: N_14  and  C_15
REMARK    7  A    between atoms: O_26  and  C_27
REMARK                            x       y       z     vdW  Elec       q    Type
REMARK                         _______ _______ _______ _____ _____    ______ ____
ROOT
ATOM      1  N   UNL     1      -0.552  -2.013   3.541  0.00  0.00    -0.292 N 
ATOM      2  C   UNL     1      -1.094  -2.594   4.629  0.00  0.00    +0.304 C 
ATOM      3  O   UNL     1      -1.097  -3.805   4.733  0.00  0.00    -0.252 OA
ATOM      4  N   UNL     1      -1.633  -1.832   5.601  0.00  0.00    -0.268 N 
ATOM      5  H   UNL     1      -0.550  -1.046   3.457  0.00  0.00    +0.151 HD
ATOM      6  H   UNL     1      -1.559  -0.866   5.558  0.00  0.00    +0.156 HD
ENDROOT
BRANCH   4   7
ATOM      7  C   UNL     1      -2.301  -2.437   6.676  0.00  0.00    +0.052 A 
ATOM      8  C   UNL     1      -2.862  -3.697   6.524  0.00  0.00    +0.073 A 
ATOM      9  C   UNL     1      -3.522  -4.295   7.586  0.00  0.00    +0.164 A 
ATOM     10  C   UNL     1      -3.620  -3.631   8.803  0.00  0.00    +0.163 A 
ATOM     11  C   UNL     1      -3.061  -2.371   8.951  0.00  0.00    +0.066 A 
ATOM     12  C   UNL     1      -2.398  -1.777   7.893  0.00  0.00    +0.043 A 
ATOM     13 BR   UNL     1      -1.629  -0.062   8.103  0.00  0.00    -0.048 Br
ATOM     14  O   UNL     1      -4.259  -4.205   9.861  0.00  0.00    -0.485 OA
ATOM     15  C   UNL     1      -5.128  -5.304   9.568  0.00  0.00    +0.270 C 
ATOM     16  C   UNL     1      -4.395  -6.255   8.611  0.00  0.00    +0.270 C 
ATOM     17  O   UNL     1      -4.070  -5.530   7.420  0.00  0.00    -0.485 OA
ENDBRANCH   4   7
BRANCH   1  18
ATOM     18  C   UNL     1       0.034  -2.841   2.483  0.00  0.00    +0.105 C 
ATOM     19  C   UNL     1       1.482  -3.178   2.844  0.00  0.00    +0.033 C 
BRANCH  18  25
ATOM     20  C   UNL     1      -0.079   1.496  -0.011  0.00  0.00    +0.044 C 
ATOM     21  C   UNL     1      -0.050  -0.011  -0.015  0.00  0.00    -0.050 A 
ATOM     22  C   UNL     1      -0.052  -0.698  -1.215  0.00  0.00    +0.007 A 
ATOM     23  C   UNL     1      -0.026  -2.079  -1.222  0.00  0.00    +0.046 A 
ATOM     24  C   UNL     1       0.002  -2.777  -0.023  0.00  0.00    +0.125 A 
ATOM     25  C   UNL     1       0.004  -2.086   1.179  0.00  0.00    +0.014 A 
ATOM     26  C   UNL     1      -0.017  -0.704   1.181  0.00  0.00    +0.012 A 
BRANCH  24  27
ATOM     27  O   UNL     1       0.026  -4.136  -0.027  0.00  0.00    -0.495 OA
ATOM     28  C   UNL     1       0.022  -4.781  -1.302  0.00  0.00    +0.277 C 
ENDBRANCH  24  27
ENDBRANCH  18  25
ENDBRANCH   1  18
TORSDOF 4
