REMARK  Name = ZINC24215566
REMARK  10 active torsions:
REMARK  status: ('A' for Active; 'I' for Inactive)
REMARK    1  A    between atoms: C_1  and  C_2
REMARK    2  A    between atoms: C_3  and  C_14
REMARK    3  A    between atoms: C_4  and  C_13
REMARK    4  A    between atoms: N_5  and  C_7
REMARK    5  A    between atoms: N_21  and  C_22
REMARK    6  A    between atoms: C_22  and  C_23
REMARK    7  A    between atoms: N_25  and  C_26
REMARK    8  A    between atoms: C_31  and  S_32
REMARK    9  A    between atoms: S_32  and  C_33
REMARK   10  A    between atoms: C_33  and  C_34
REMARK                            x       y       z     vdW  Elec       q    Type
REMARK                         _______ _______ _______ _____ _____    ______ ____
ROOT
ATOM      1  C   UNL     1      -1.741   0.209   0.617  0.00  0.00    +0.054 C 
ATOM      2  C   UNL     1      -3.197  -0.080   0.388  0.00  0.00    +0.204 C 
ATOM      3  O   UNL     1      -3.973   0.081   1.306  0.00  0.00    -0.277 OA
ATOM      4  N   UNL     1      -3.674  -0.506  -0.787  0.00  0.00    -0.318 N 
ATOM      5  C   UNL     1      -2.821  -0.765  -1.943  0.00  0.00    +0.085 C 
ATOM      6  C   UNL     1      -1.469  -0.071  -1.763  0.00  0.00    -0.058 C 
ATOM      7  N   UNL     1      -0.933  -0.419  -0.437  0.00  0.00    +0.397 N 
ATOM      8  H   UNL     1      -4.761  -0.661  -0.859  0.00  0.00    +0.149 HD
ATOM      9  H   UNL     1      -0.986  -1.511  -0.313  0.00  0.00    -0.079 HD
ENDROOT
BRANCH   1  12
ATOM     10  C   UNL     1      -1.231  -2.843   1.303  0.00  0.00    +0.068 C 
ATOM     11  C   UNL     1      -1.101  -1.688   2.262  0.00  0.00    +0.063 A 
ATOM     12  C   UNL     1      -1.327  -0.341   1.958  0.00  0.00    -0.009 A 
ATOM     13  C   UNL     1      -1.103   0.383   3.079  0.00  0.00    +0.044 A 
ATOM     14  N   UNL     1      -0.755  -0.479   4.062  0.00  0.00    -0.237 N 
ATOM     15  N   UNL     1      -0.759  -1.772   3.522  0.00  0.00    -0.171 NA
ATOM     16  C   UNL     1      -1.223   1.879   3.211  0.00  0.00    +0.066 C 
BRANCH  14  17
ATOM     17  C   UNL     1      -0.441  -0.139   5.385  0.00  0.00    +0.066 A 
ATOM     18  C   UNL     1       0.573  -0.811   6.054  0.00  0.00    +0.028 A 
ATOM     19  C   UNL     1       0.883  -0.469   7.356  0.00  0.00    +0.002 A 
ATOM     20  C   UNL     1       0.178   0.533   7.997  0.00  0.00    +0.000 A 
ATOM     21  C   UNL     1      -0.836   1.200   7.335  0.00  0.00    +0.002 A 
ATOM     22  C   UNL     1      -1.147   0.867   6.031  0.00  0.00    +0.028 A 
ENDBRANCH  14  17
ENDBRANCH   1  12
BRANCH   7  23
ATOM     23  C   UNL     1       0.479  -0.028  -0.322  0.00  0.00    +0.020 C 
BRANCH  23  24
ATOM     24  C   UNL     1       1.310  -0.866  -1.258  0.00  0.00    +0.201 C 
ATOM     25  O   UNL     1       0.797  -1.774  -1.877  0.00  0.00    -0.278 OA
ATOM     26  N   UNL     1       2.625  -0.610  -1.404  0.00  0.00    -0.286 N 
ATOM     27  H   UNL     1       3.105   0.168  -0.792  0.00  0.00    +0.155 HD
BRANCH  26  28
ATOM     28  C   UNL     1       3.381  -1.335  -2.335  0.00  0.00    +0.047 A 
ATOM     29  C   UNL     1       3.000  -2.620  -2.692  0.00  0.00    +0.024 A 
ATOM     30  C   UNL     1       3.744  -3.331  -3.614  0.00  0.00    +0.002 A 
ATOM     31  C   UNL     1       4.877  -2.770  -4.176  0.00  0.00    +0.001 A 
ATOM     32  C   UNL     1       5.268  -1.493  -3.823  0.00  0.00    +0.016 A 
ATOM     33  C   UNL     1       4.523  -0.769  -2.902  0.00  0.00    +0.029 A 
BRANCH  33  34
ATOM     34  S   UNL     1       5.020   0.860  -2.450  0.00  0.00    -0.119 S 
BRANCH  34  35
ATOM     35  C   UNL     1       6.521   1.149  -3.426  0.00  0.00    +0.101 C 
BRANCH  35  36
ATOM     36  C   UNL     1       7.056   2.526  -3.130  0.00  0.00    -0.024 C 
ATOM     37  C   UNL     1       8.220   2.665  -2.544  0.00  0.00    +0.005 C 
ENDBRANCH  35  36
ENDBRANCH  34  35
ENDBRANCH  33  34
ENDBRANCH  26  28
ENDBRANCH  23  24
ENDBRANCH   7  23
TORSDOF 8
