REMARK  Name = ZINC63488669
REMARK  7 active torsions:
REMARK  status: ('A' for Active; 'I' for Inactive)
REMARK    1  A    between atoms: C_1  and  C_2
REMARK    2  A    between atoms: C_2  and  C_3
REMARK    3  A    between atoms: C_2  and  N_15
REMARK    4  A    between atoms: C_7  and  C_9
REMARK    5  A    between atoms: C_16  and  C_18
REMARK    6  A    between atoms: C_18  and  O_19
REMARK    7  A    between atoms: O_19  and  C_20
REMARK                            x       y       z     vdW  Elec       q    Type
REMARK                         _______ _______ _______ _____ _____    ______ ____
ROOT
ATOM      1  N   UNL     1       0.688  -0.476  -1.203  0.00  0.00    -0.303 N 
ATOM      2  C   UNL     1       2.031  -0.587  -1.215  0.00  0.00    +0.251 C 
ATOM      3  O   UNL     1       2.672  -0.295  -0.228  0.00  0.00    -0.272 OA
ATOM      4  H   UNL     1       0.175  -0.710  -1.993  0.00  0.00    +0.149 HD
ENDROOT
BRANCH   1   6
ATOM      5  C   UNL     1      -0.019   1.526   0.010  0.00  0.00    +0.036 C 
ATOM      6  C   UNL     1       0.002  -0.004   0.002  0.00  0.00    +0.134 C 
BRANCH   6   7
ATOM      7  C   UNL     1      -1.412  -0.526   0.013  0.00  0.00    +0.105 A 
ATOM      8  N   UNL     1      -2.156  -0.797  -1.082  0.00  0.00    -0.348 N 
ATOM      9  H   UNL     1      -1.879  -0.692  -2.005  0.00  0.00    +0.167 HD
ATOM     10  C   UNL     1      -3.372  -1.247  -0.648  0.00  0.00    +0.110 A 
ATOM     11  C   UNL     1      -3.331  -1.236   0.710  0.00  0.00    +0.064 A 
ATOM     12  N   UNL     1      -2.112  -0.793   1.079  0.00  0.00    -0.342 N 
ATOM     13  H   UNL     1      -1.805  -0.689   1.994  0.00  0.00    +0.167 HD
BRANCH  11  14
ATOM     14  C   UNL     1      -4.428  -1.643   1.622  0.00  0.00    -0.000 A 
ATOM     15  C   UNL     1      -4.251  -1.576   3.002  0.00  0.00    +0.010 A 
ATOM     16  C   UNL     1      -5.274  -1.956   3.846  0.00  0.00    +0.001 A 
ATOM     17  C   UNL     1      -6.474  -2.405   3.324  0.00  0.00    +0.000 A 
ATOM     18  C   UNL     1      -6.655  -2.474   1.954  0.00  0.00    +0.001 A 
ATOM     19  C   UNL     1      -5.641  -2.090   1.101  0.00  0.00    +0.010 A 
ENDBRANCH  11  14
ENDBRANCH   6   7
ENDBRANCH   1   6
BRANCH   2  20
ATOM     20  C   UNL     1       2.736  -1.073  -2.455  0.00  0.00    +0.324 C 
BRANCH  20  21
ATOM     21  O   UNL     1       4.146  -1.103  -2.220  0.00  0.00    -0.483 OA
BRANCH  21  22
ATOM     22  C   UNL     1       4.933  -1.522  -3.246  0.00  0.00    +0.122 A 
ATOM     23  C   UNL     1       4.360  -1.889  -4.455  0.00  0.00    +0.047 A 
ATOM     24  C   UNL     1       5.159  -2.315  -5.498  0.00  0.00    +0.027 A 
ATOM     25  C   UNL     1       6.537  -2.374  -5.336  0.00  0.00    +0.037 A 
ATOM     26  C   UNL     1       7.110  -2.005  -4.126  0.00  0.00    -0.022 A 
ATOM     27  C   UNL     1       6.310  -1.575  -3.086  0.00  0.00    +0.051 A 
ATOM     28  C   UNL     1       8.605  -2.070  -3.954  0.00  0.00    +0.046 C 
ATOM     29  C   UNL     1       9.162  -3.245  -4.757  0.00  0.00    +0.101 C 
ATOM     30  C   UNL     1       8.609  -3.219  -6.157  0.00  0.00    +0.218 C 
ATOM     31  O   UNL     1       9.306  -3.574  -7.083  0.00  0.00    -0.275 OA
ATOM     32  N   UNL     1       7.351  -2.804  -6.391  0.00  0.00    -0.285 N 
ATOM     33  H   UNL     1       7.005  -2.804  -7.298  0.00  0.00    +0.155 HD
ENDBRANCH  21  22
ENDBRANCH  20  21
ENDBRANCH   2  20
TORSDOF 6
