REMARK  Name = ZINC50911000
REMARK  7 active torsions:
REMARK  status: ('A' for Active; 'I' for Inactive)
REMARK    1  A    between atoms: C_1  and  C_2
REMARK    2  A    between atoms: C_2  and  C_3
REMARK    3  A    between atoms: C_3  and  C_4
REMARK    4  A    between atoms: C_3  and  C_5
REMARK    5  A    between atoms: C_3  and  C_6
REMARK    6  A    between atoms: C_10  and  N_24
REMARK    7  A    between atoms: C_12  and  N_15
REMARK                            x       y       z     vdW  Elec       q    Type
REMARK                         _______ _______ _______ _____ _____    ______ ____
ROOT
ATOM      1  C   UNL     1       1.309  -2.002  -1.745  0.00  0.00    -0.007 C 
ATOM      2  C   UNL     1       0.011  -2.462  -1.078  0.00  0.00    +0.002 C 
ATOM      3  C   UNL     1      -0.031  -3.991  -1.044  0.00  0.00    -0.018 C 
ATOM      4  C   UNL     1       0.028  -4.534  -2.474  0.00  0.00    -0.089 C 
ATOM      5  C   UNL     1       1.326  -4.074  -3.141  0.00  0.00    -0.082 C 
ATOM      6  C   UNL     1       1.369  -2.545  -3.174  0.00  0.00    -0.013 C 
ENDROOT
BRANCH   5   7
ATOM      7  N   UNL     1       2.475  -4.579  -2.377  0.00  0.00    +0.386 N 
ATOM      8  C   UNL     1       3.744  -4.106  -2.974  0.00  0.00    -0.042 C 
ATOM      9  C   UNL     1       4.739  -5.223  -2.756  0.00  0.00    -0.063 A 
ATOM     10  C   UNL     1       6.120  -5.248  -2.803  0.00  0.00    +0.002 A 
ATOM     11  C   UNL     1       6.800  -6.427  -2.558  0.00  0.00    +0.000 A 
ATOM     12  C   UNL     1       6.098  -7.581  -2.267  0.00  0.00    +0.000 A 
ATOM     13  C   UNL     1       4.716  -7.557  -2.219  0.00  0.00    +0.002 A 
ATOM     14  C   UNL     1       4.037  -6.379  -2.463  0.00  0.00    -0.063 A 
ATOM     15  C   UNL     1       2.560  -6.053  -2.481  0.00  0.00    -0.042 C 
ATOM     16  H   UNL     1       2.409  -4.296  -1.411  0.00  0.00    -0.081 HD
ENDBRANCH   5   7
BRANCH   4  17
ATOM     17  N   UNL     1      -0.012  -6.002  -2.441  0.00  0.00    +0.379 N 
ATOM     18  H   UNL     1      -0.966  -6.309  -2.320  0.00  0.00    -0.090 HD
ATOM     19  H   UNL     1       0.351  -6.367  -3.309  0.00  0.00    -0.090 HD
ATOM     20  H   UNL     1       0.550  -6.337  -1.674  0.00  0.00    -0.090 HD
ENDBRANCH   4  17
BRANCH   1  21
ATOM     21  C   UNL     1       1.352  -0.473  -1.778  0.00  0.00    -0.032 C 
ATOM     22  C   UNL     1       0.155   0.053  -2.574  0.00  0.00    +0.011 C 
ATOM     23  C   UNL     1       2.650  -0.013  -2.445  0.00  0.00    +0.011 C 
BRANCH  21  25
ATOM     24  C   UNL     1       1.335   1.599  -0.383  0.00  0.00    +0.004 C 
ATOM     25  C   UNL     1       1.292   0.070  -0.349  0.00  0.00    +0.003 C 
ENDBRANCH  21  25
ENDBRANCH   1  21
TORSDOF 4
