REMARK  Name = ZINC65460121
REMARK  5 active torsions:
REMARK  status: ('A' for Active; 'I' for Inactive)
REMARK    1  A    between atoms: C_1  and  O_2
REMARK    2  A    between atoms: O_2  and  C_3
REMARK    3  A    between atoms: C_8  and  C_13
REMARK    4  A    between atoms: C_26  and  C_30
REMARK    5  A    between atoms: C_27  and  N_29
REMARK                            x       y       z     vdW  Elec       q    Type
REMARK                         _______ _______ _______ _____ _____    ______ ____
ROOT
ATOM      1  C   UNL     1      -4.780  -4.766  -1.201  0.00  0.00    +0.059 C 
ATOM      2  C   UNL     1      -5.517  -5.877  -1.192  0.00  0.00    +0.018 C 
ATOM      3  C   UNL     1      -5.732  -6.223  -2.639  0.00  0.00    +0.118 C 
ATOM      4  C   UNL     1      -5.532  -7.692  -2.996  0.00  0.00    +0.132 C 
ATOM      5  N   UNL     1      -5.571  -7.754  -4.474  0.00  0.00    -0.296 N 
ATOM      6  C   UNL     1      -4.730  -6.847  -5.265  0.00  0.00    +0.125 C 
ATOM      7  C   UNL     1      -4.824  -5.412  -4.712  0.00  0.00    +0.125 C 
ATOM      8  N   UNL     1      -4.622  -5.469  -3.284  0.00  0.00    -0.219 NA
ATOM      9  N   UNL     1      -4.525  -4.361  -2.519  0.00  0.00    -0.278 N 
ATOM     10  C   UNL     1      -6.397  -8.661  -5.108  0.00  0.00    +0.220 A 
ATOM     11  N   UNL     1      -7.152  -9.466  -4.371  0.00  0.00    -0.221 NA
ATOM     12  C   UNL     1      -7.958 -10.349  -4.933  0.00  0.00    +0.136 A 
ATOM     13  C   UNL     1      -8.010 -10.431  -6.329  0.00  0.00    +0.109 A 
ATOM     14  C   UNL     1      -7.192  -9.558  -7.078  0.00  0.00    +0.139 A 
ATOM     15  N   UNL     1      -6.415  -8.697  -6.432  0.00  0.00    -0.198 NA
ATOM     16  H   UNL     1      -4.319  -3.462  -2.820  0.00  0.00    +0.166 HD
ENDROOT
BRANCH   1  22
ATOM     17  C   UNL     1      -1.198  -0.636   0.010  0.00  0.00    +0.122 A 
ATOM     18  C   UNL     1      -2.418   0.160   0.020  0.00  0.00    +0.048 A 
ATOM     19  C   UNL     1      -3.638  -0.408   0.029  0.00  0.00    +0.031 A 
ATOM     20  C   UNL     1      -3.762  -1.873   0.028  0.00  0.00    +0.061 A 
ATOM     21  N   UNL     1      -4.795  -2.665   0.036  0.00  0.00    -0.359 N 
ATOM     22  C   UNL     1      -4.295  -4.045   0.030  0.00  0.00    +0.221 C 
ATOM     23  N   UNL     1      -2.830  -3.955   0.019  0.00  0.00    -0.359 N 
ATOM     24  C   UNL     1      -2.517  -2.688   0.017  0.00  0.00    +0.064 A 
ATOM     25  C   UNL     1      -1.229  -1.991   0.003  0.00  0.00    +0.073 A 
ATOM     26  H   UNL     1      -5.726  -2.393   0.044  0.00  0.00    +0.162 HD
ATOM     27  H   UNL     1      -2.209  -4.700   0.013  0.00  0.00    +0.162 HD
BRANCH  17  29
ATOM     28  C   UNL     1      -0.017   1.425   0.010  0.00  0.00    +0.277 C 
ATOM     29  O   UNL     1       0.002  -0.004   0.002  0.00  0.00    -0.495 OA
ENDBRANCH  17  29
ENDBRANCH   1  22
BRANCH  14  30
ATOM     30  N   UNL     1      -7.203  -9.596  -8.457  0.00  0.00    -0.342 N 
ATOM     31  H   UNL     1      -7.777 -10.226  -8.921  0.00  0.00    +0.144 HD
ATOM     32  H   UNL     1      -6.637  -8.992  -8.964  0.00  0.00    +0.144 HD
ENDBRANCH  14  30
BRANCH  13  33
ATOM     33  C   UNL     1      -8.869 -11.374  -6.979  0.00  0.00    +0.104 C 
ATOM     34  N   UNL     1      -9.550 -12.123  -7.495  0.00  0.00    -0.191 NA
ENDBRANCH  13  33
TORSDOF 4
