REMARK  Name = ZINC42427145
REMARK  6 active torsions:
REMARK  status: ('A' for Active; 'I' for Inactive)
REMARK    1  A    between atoms: C_1  and  C_2
REMARK    2  A    between atoms: C_6  and  C_20
REMARK    3  A    between atoms: N_9  and  C_10
REMARK    4  A    between atoms: C_10  and  C_11
REMARK    5  A    between atoms: C_11  and  N_12
REMARK    6  A    between atoms: C_14  and  N_19
REMARK                            x       y       z     vdW  Elec       q    Type
REMARK                         _______ _______ _______ _____ _____    ______ ____
ROOT
ATOM      1  C   UNL     1      -0.019   1.526   0.010  0.00  0.00    -0.013 C 
ATOM      2  C   UNL     1       0.002  -0.004   0.002  0.00  0.00    -0.072 C 
ATOM      3  C   UNL     1      -1.434  -0.533   0.011  0.00  0.00    -0.015 C 
ATOM      4  C   UNL     1      -1.408  -2.064   0.003  0.00  0.00    +0.009 C 
ATOM      5  C   UNL     1      -0.600  -2.558   1.206  0.00  0.00    +0.058 C 
ATOM      6  C   UNL     1       0.805  -1.954   1.152  0.00  0.00    -0.066 C 
ATOM      7  N   UNL     1       0.713  -0.490   1.191  0.00  0.00    +0.383 N 
ATOM      8  H   UNL     1       0.213  -0.206   2.020  0.00  0.00    -0.081 HD
ENDROOT
BRANCH   5   9
ATOM      9  C   UNL     1      -1.283  -2.133   2.480  0.00  0.00    +0.212 C 
ATOM     10  O   UNL     1      -0.702  -1.420   3.271  0.00  0.00    -0.276 OA
ATOM     11  N   UNL     1      -2.539  -2.545   2.741  0.00  0.00    -0.329 N 
ATOM     12  H   UNL     1      -3.003  -3.116   2.109  0.00  0.00    +0.145 HD
ATOM     13  H   UNL     1      -2.979  -2.272   3.561  0.00  0.00    +0.145 HD
ENDBRANCH   5   9
BRANCH   7  14
ATOM     14  C   UNL     1       2.066   0.083   1.218  0.00  0.00    -0.056 C 
BRANCH  14  15
ATOM     15  C   UNL     1       2.764  -0.321   2.518  0.00  0.00    +0.106 C 
BRANCH  15  16
ATOM     16  N   UNL     1       4.113   0.250   2.546  0.00  0.00    -0.315 N 
ATOM     17  C   UNL     1       5.153  -0.455   2.024  0.00  0.00    +0.111 A 
ATOM     18  C   UNL     1       6.412   0.056   2.040  0.00  0.00    +0.041 A 
ATOM     19  C   UNL     1       6.645   1.325   2.598  0.00  0.00    +0.029 A 
ATOM     20  C   UNL     1       5.598   2.026   3.119  0.00  0.00    +0.072 A 
ATOM     21  C   UNL     1       4.308   1.470   3.081  0.00  0.00    +0.251 A 
ATOM     22  O   UNL     1       3.363   2.092   3.540  0.00  0.00    -0.268 OA
BRANCH  18  23
ATOM     23  N   UNL     1       7.477  -0.681   1.500  0.00  0.00    -0.357 N 
ATOM     24  H   UNL     1       7.315  -1.557   1.115  0.00  0.00    +0.142 HD
ATOM     25  H   UNL     1       8.375  -0.315   1.511  0.00  0.00    +0.142 HD
ENDBRANCH  18  23
ENDBRANCH  15  16
ENDBRANCH  14  15
ENDBRANCH   7  14
TORSDOF 5
