REMARK  Name = ZINC09339147
REMARK  5 active torsions:
REMARK  status: ('A' for Active; 'I' for Inactive)
REMARK    1  A    between atoms: C_8  and  C_26
REMARK    2  A    between atoms: C_11  and  C_12
REMARK    3  A    between atoms: C_11  and  N_54
REMARK    4  A    between atoms: N_14  and  C_15
REMARK    5  A    between atoms: C_20  and  N_21
REMARK                            x       y       z     vdW  Elec       q    Type
REMARK                         _______ _______ _______ _____ _____    ______ ____
ROOT
ATOM      1  C   UNL     1       1.499   1.177   0.524  0.00  0.00    +0.020 C 
ENDROOT
BRANCH   1  11
ATOM      2  C   UNL     1      -2.905   4.988   3.243  0.00  0.00    +0.000 A 
ATOM      3  C   UNL     1      -1.910   5.777   2.696  0.00  0.00    +0.000 A 
ATOM      4  C   UNL     1      -0.812   5.186   2.103  0.00  0.00    +0.002 A 
ATOM      5  C   UNL     1      -0.701   3.804   2.052  0.00  0.00    -0.061 A 
ATOM      6  C   UNL     1      -1.695   3.018   2.595  0.00  0.00    -0.047 A 
ATOM      7  C   UNL     1      -2.797   3.613   3.191  0.00  0.00    +0.004 A 
ATOM      8  C   UNL     1      -1.623   1.513   2.558  0.00  0.00    +0.029 C 
ATOM      9  C   UNL     1      -0.192   1.067   2.256  0.00  0.00    +0.024 C 
ATOM     10  C   UNL     1       0.519   3.206   1.403  0.00  0.00    -0.041 C 
ATOM     11  N   UNL     1       0.265   1.798   1.057  0.00  0.00    +0.396 N 
ATOM     12  H   UNL     1      -0.467   1.755   0.339  0.00  0.00    -0.080 HD
BRANCH   9  13
ATOM     13  C   UNL     1      -0.171  -0.414   1.980  0.00  0.00    +0.197 C 
ATOM     14  O   UNL     1      -0.406  -0.827   0.864  0.00  0.00    -0.278 OA
ATOM     15  N   UNL     1       0.108  -1.281   2.974  0.00  0.00    -0.331 N 
ATOM     16  H   UNL     1       0.296  -0.951   3.867  0.00  0.00    +0.145 HD
ATOM     17  H   UNL     1       0.121  -2.235   2.796  0.00  0.00    +0.145 HD
ENDBRANCH   9  13
ENDBRANCH   1  11
BRANCH   1  18
ATOM     18  C   UNL     1       1.782   1.746  -0.843  0.00  0.00    +0.201 C 
ATOM     19  O   UNL     1       1.045   2.586  -1.314  0.00  0.00    -0.278 OA
ATOM     20  N   UNL     1       2.854   1.322  -1.541  0.00  0.00    -0.286 N 
ATOM     21  H   UNL     1       3.406   0.604  -1.193  0.00  0.00    +0.155 HD
BRANCH  20  22
ATOM     22  C   UNL     1       3.172   1.919  -2.768  0.00  0.00    +0.055 A 
ATOM     23  C   UNL     1       2.178   2.515  -3.530  0.00  0.00    +0.025 A 
ATOM     24  C   UNL     1       2.494   3.107  -4.738  0.00  0.00    +0.002 A 
ATOM     25  C   UNL     1       3.799   3.099  -5.196  0.00  0.00    +0.002 A 
ATOM     26  C   UNL     1       4.795   2.502  -4.447  0.00  0.00    +0.025 A 
ATOM     27  C   UNL     1       4.488   1.909  -3.231  0.00  0.00    +0.051 A 
BRANCH  27  28
ATOM     28  N   UNL     1       5.494   1.304  -2.471  0.00  0.00    -0.328 N 
ATOM     29  C   UNL     1       6.804   1.377  -3.167  0.00  0.00    +0.105 C 
ATOM     30  C   UNL     1       7.827   1.169  -2.022  0.00  0.00    +0.020 C 
ATOM     31  C   UNL     1       7.181   1.929  -0.841  0.00  0.00    +0.020 C 
ATOM     32  C   UNL     1       5.682   2.008  -1.184  0.00  0.00    +0.105 C 
ENDBRANCH  27  28
ENDBRANCH  20  22
ENDBRANCH   1  18
TORSDOF 5
