REMARK  Name = ZINC54561420
REMARK  10 active torsions:
REMARK  status: ('A' for Active; 'I' for Inactive)
REMARK    1  A    between atoms: C_1  and  C_2
REMARK    2  A    between atoms: C_2  and  C_3
REMARK    3  A    between atoms: C_2  and  C_4
REMARK    4  A    between atoms: C_8  and  O_24
REMARK    5  A    between atoms: C_10  and  C_13
REMARK    6  A    between atoms: C_13  and  N_14
REMARK    7  A    between atoms: N_14  and  C_15
REMARK    8  A    between atoms: N_14  and  C_18
REMARK    9  A    between atoms: C_15  and  C_16
REMARK   10  A    between atoms: C_16  and  O_17
REMARK                            x       y       z     vdW  Elec       q    Type
REMARK                         _______ _______ _______ _____ _____    ______ ____
ROOT
ATOM      1  C   UNL     1      -3.524  -2.227   0.728  0.00  0.00    -0.072 C 
ENDROOT
BRANCH   1   6
ATOM      2  C   UNL     1      -1.541  -1.262  -1.200  0.00  0.00    -0.008 C 
ATOM      3  C   UNL     1      -2.442  -1.026  -2.414  0.00  0.00    +0.006 C 
ATOM      4  C   UNL     1      -3.884  -1.391  -2.057  0.00  0.00    +0.032 C 
ATOM      5  C   UNL     1      -3.952  -2.864  -1.649  0.00  0.00    +0.116 C 
ATOM      6  C   UNL     1      -3.050  -3.100  -0.436  0.00  0.00    +0.001 C 
ATOM      7  C   UNL     1      -1.608  -2.735  -0.793  0.00  0.00    +0.008 C 
BRANCH   2   9
ATOM      8  C   UNL     1      -0.031   0.576  -1.965  0.00  0.00    +0.007 C 
ATOM      9  C   UNL     1      -0.098  -0.897  -1.558  0.00  0.00    -0.014 C 
ATOM     10  C   UNL     1       0.803  -1.133  -0.344  0.00  0.00    +0.007 C 
ENDBRANCH   2   9
BRANCH   5  11
ATOM     11  O   UNL     1      -3.510  -3.679  -2.736  0.00  0.00    -0.392 OA
ATOM     12  H   UNL     1      -4.037  -3.581  -3.541  0.00  0.00    +0.210 HD
ENDBRANCH   5  11
ENDBRANCH   1   6
BRANCH   1  13
ATOM     13  N   UNL     1      -4.864  -2.657   1.150  0.00  0.00    +0.383 N 
ATOM     14  H   UNL     1      -5.487  -2.642   0.356  0.00  0.00    -0.081 HD
BRANCH  13  15
ATOM     15  C   UNL     1      -5.368  -1.745   2.185  0.00  0.00    -0.068 C 
ATOM     16  C   UNL     1      -5.561  -0.350   1.587  0.00  0.00    -0.015 C 
ATOM     17  C   UNL     1      -6.086   0.599   2.665  0.00  0.00    -0.002 C 
ATOM     18  C   UNL     1      -5.078   0.673   3.814  0.00  0.00    -0.000 C 
ATOM     19  C   UNL     1      -4.885  -0.721   4.413  0.00  0.00    -0.002 C 
ATOM     20  C   UNL     1      -4.360  -1.671   3.334  0.00  0.00    -0.015 C 
ENDBRANCH  13  15
BRANCH  13  21
ATOM     21  C   UNL     1      -4.792  -4.021   1.691  0.00  0.00    -0.050 C 
BRANCH  21  22
ATOM     22  C   UNL     1      -6.205  -4.523   1.996  0.00  0.00    +0.137 C 
BRANCH  22  23
ATOM     23  O   UNL     1      -6.958  -4.592   0.783  0.00  0.00    -0.397 OA
ATOM     24  H   UNL     1      -7.865  -4.904   0.901  0.00  0.00    +0.209 HD
ENDBRANCH  22  23
ENDBRANCH  21  22
ENDBRANCH  13  21
ENDBRANCH   1  13
TORSDOF 8
