REMARK  Name = ZINC63416518
REMARK  6 active torsions:
REMARK  status: ('A' for Active; 'I' for Inactive)
REMARK    1  A    between atoms: C_1  and  C_2
REMARK    2  A    between atoms: C_2  and  O_3
REMARK    3  A    between atoms: O_3  and  C_4
REMARK    4  A    between atoms: C_7  and  N_10
REMARK    5  A    between atoms: C_11  and  N_27
REMARK    6  A    between atoms: C_13  and  C_18
REMARK                            x       y       z     vdW  Elec       q    Type
REMARK                         _______ _______ _______ _____ _____    ______ ____
ROOT
ATOM      1  N   UNL     1      -1.989  -5.990  -0.010  0.00  0.00    -0.272 N 
ATOM      2  C   UNL     1      -3.317  -6.564   0.098  0.00  0.00    +0.162 C 
ATOM      3  C   UNL     1      -3.345  -8.025  -0.423  0.00  0.00    +0.131 C 
ATOM      4  S   UNL     1      -1.572  -8.454  -0.162  0.00  0.00    -0.092 S 
ATOM      5  C   UNL     1      -0.914  -6.795  -0.122  0.00  0.00    +0.115 C 
ATOM      6  S   UNL     1       0.731  -6.328  -0.205  0.00  0.00    -0.028 S 
ENDROOT
BRANCH   3   7
ATOM      7  C   UNL     1      -3.726  -8.085  -1.904  0.00  0.00    +0.191 C 
ATOM      8  N   UNL     1      -5.039  -7.461  -2.113  0.00  0.00    -0.362 N 
ATOM      9  C   UNL     1      -5.831  -8.371  -2.599  0.00  0.00    +0.060 A 
ATOM     10  C   UNL     1      -7.243  -8.353  -3.006  0.00  0.00    +0.027 A 
ATOM     11  C   UNL     1      -7.812  -9.477  -3.486  0.00  0.00    +0.002 A 
ATOM     12  C   UNL     1      -7.107 -10.687  -3.618  0.00  0.00    +0.002 A 
ATOM     13  C   UNL     1      -5.809 -10.813  -3.273  0.00  0.00    +0.027 A 
ATOM     14  C   UNL     1      -5.085  -9.652  -2.738  0.00  0.00    +0.060 A 
ATOM     15  N   UNL     1      -3.860  -9.483  -2.333  0.00  0.00    -0.362 N 
ATOM     16  H   UNL     1      -5.272  -6.539  -1.923  0.00  0.00    +0.162 HD
ATOM     17  H   UNL     1      -3.162 -10.157  -2.318  0.00  0.00    +0.162 HD
ENDBRANCH   3   7
BRANCH   1  21
ATOM     18  C   UNL     1      -1.498  -1.849   0.007  0.00  0.00    +0.121 A 
ATOM     19  C   UNL     1      -1.028  -2.607   1.069  0.00  0.00    +0.047 A 
ATOM     20  C   UNL     1      -1.190  -3.979   1.064  0.00  0.00    +0.027 A 
ATOM     21  C   UNL     1      -1.824  -4.599  -0.004  0.00  0.00    +0.036 A 
ATOM     22  C   UNL     1      -2.294  -3.839  -1.067  0.00  0.00    +0.027 A 
ATOM     23  C   UNL     1      -2.135  -2.467  -1.059  0.00  0.00    +0.047 A 
BRANCH  18  24
ATOM     24  O   UNL     1      -1.338  -0.499   0.013  0.00  0.00    -0.492 OA
BRANCH  24  26
ATOM     25  C   UNL     1      -0.587   1.589   0.971  0.00  0.00    +0.048 C 
ATOM     26  C   UNL     1      -0.672   0.071   1.141  0.00  0.00    +0.225 C 
ENDBRANCH  24  26
ENDBRANCH  18  24
ENDBRANCH   1  21
BRANCH   2  27
ATOM     27  N   UNL     1      -3.734  -6.550   1.506  0.00  0.00    -0.311 NA
ATOM     28  H   UNL     1      -3.778  -5.606   1.861  0.00  0.00    +0.120 HD
ATOM     29  H   UNL     1      -4.618  -7.022   1.627  0.00  0.00    +0.120 HD
ENDBRANCH   2  27
TORSDOF 5
