REMARK  Name = ZINC05727652
REMARK  8 active torsions:
REMARK  status: ('A' for Active; 'I' for Inactive)
REMARK    1  A    between atoms: C_1  and  C_2
REMARK    2  A    between atoms: C_2  and  C_20
REMARK    3  A    between atoms: C_3  and  C_7
REMARK    4  A    between atoms: C_4  and  C_5
REMARK    5  A    between atoms: C_4  and  C_6
REMARK    6  A    between atoms: N_9  and  N_10
REMARK    7  A    between atoms: N_10  and  C_11
REMARK    8  A    between atoms: C_14  and  N_17
REMARK                            x       y       z     vdW  Elec       q    Type
REMARK                         _______ _______ _______ _____ _____    ______ ____
ROOT
ATOM      1  C   UNL     1       2.350   5.558   0.153  0.00  0.00    +0.233 C 
ATOM      2  O   UNL     1       1.297   6.158   0.202  0.00  0.00    -0.274 OA
ATOM      3  N   UNL     1       2.359   4.210   0.167  0.00  0.00    -0.236 N 
ATOM      4  H   UNL     1       3.201   3.730   0.128  0.00  0.00    +0.173 HD
ENDROOT
BRANCH   1   7
ATOM      5  C   UNL     1       4.650   8.503  -0.959  0.00  0.00    +0.012 C 
ATOM      6  C   UNL     1       3.568   7.836  -0.108  0.00  0.00    -0.017 C 
ATOM      7  C   UNL     1       3.648   6.319   0.076  0.00  0.00    +0.089 C 
ATOM      8  C   UNL     1       3.992   7.249   1.241  0.00  0.00    -0.017 C 
ATOM      9  C   UNL     1       2.991   7.335   2.395  0.00  0.00    +0.012 C 
ATOM     10  C   UNL     1       5.465   7.375   1.634  0.00  0.00    +0.012 C 
ATOM     11  C   UNL     1       2.175   8.464  -0.199  0.00  0.00    +0.012 C 
ENDBRANCH   1   7
BRANCH   3  12
ATOM     12  N   UNL     1       1.152   3.502   0.239  0.00  0.00    -0.264 N 
ATOM     13  H   UNL     1       0.310   3.982   0.278  0.00  0.00    +0.170 HD
BRANCH  12  14
ATOM     14  C   UNL     1       1.161   2.106   0.254  0.00  0.00    +0.045 A 
ATOM     15  C   UNL     1      -0.035   1.403   0.325  0.00  0.00    +0.026 A 
ATOM     16  C   UNL     1      -0.022   0.022   0.339  0.00  0.00    +0.034 A 
ATOM     17  C   UNL     1       1.179  -0.661   0.282  0.00  0.00    +0.126 A 
ATOM     18  C   UNL     1       2.371   0.036   0.212  0.00  0.00    +0.034 A 
ATOM     19  C   UNL     1       2.366   1.417   0.198  0.00  0.00    +0.026 A 
BRANCH  17  20
ATOM     20  N   UNL     1       1.189  -2.141   0.297  0.00  0.00    +0.056 N 
ATOM     21  O   UNL     1       0.140  -2.756   0.359  0.00  0.00    -0.126 OA
ATOM     22  O   UNL     1       2.246  -2.744   0.247  0.00  0.00    -0.126 OA
ENDBRANCH  17  20
ENDBRANCH  12  14
ENDBRANCH   3  12
TORSDOF 4
