REMARK  Name = ZINC09111147
REMARK  5 active torsions:
REMARK  status: ('A' for Active; 'I' for Inactive)
REMARK    1  A    between atoms: C_4  and  N_7
REMARK    2  A    between atoms: C_8  and  C_18
REMARK    3  A    between atoms: C_11  and  O_17
REMARK    4  A    between atoms: C_12  and  C_15
REMARK    5  A    between atoms: C_21  and  C_23
REMARK                            x       y       z     vdW  Elec       q    Type
REMARK                         _______ _______ _______ _____ _____    ______ ____
ROOT
ATOM      1  N   UNL     1       3.621  -0.650  -0.037  0.00  0.00    -0.264 N 
ATOM      2  C   UNL     1       3.666  -2.113   0.058  0.00  0.00    +0.267 C 
ATOM      3  N   UNL     1       4.696  -2.518   1.015  0.00  0.00    -0.218 NA
ATOM      4  C   UNL     1       5.760  -1.788   1.213  0.00  0.00    +0.230 C 
ATOM      5  C   UNL     1       5.931  -0.523   0.484  0.00  0.00    +0.141 C 
ATOM      6  C   UNL     1       4.808   0.036  -0.149  0.00  0.00    +0.104 C 
ATOM      7  S   UNL     1       4.912   1.552  -1.042  0.00  0.00    -0.033 SA
ENDROOT
BRANCH   1  11
ATOM      8  C   UNL     1      -0.016   1.380   0.010  0.00  0.00    +0.000 A 
ATOM      9  C   UNL     1       0.872   1.531   1.060  0.00  0.00    +0.002 A 
ATOM     10  C   UNL     1       2.079   0.859   1.047  0.00  0.00    +0.023 A 
ATOM     11  C   UNL     1       2.400   0.031  -0.021  0.00  0.00    +0.037 A 
ATOM     12  C   UNL     1       1.505  -0.119  -1.073  0.00  0.00    +0.023 A 
ATOM     13  C   UNL     1       0.300   0.556  -1.054  0.00  0.00    +0.002 A 
ENDBRANCH   1  11
BRANCH   2  14
ATOM     14  C   UNL     1       3.986  -2.694  -1.295  0.00  0.00    +0.149 A 
ATOM     15  C   UNL     1       4.642  -3.849  -1.519  0.00  0.00    +0.049 A 
ATOM     16  C   UNL     1       4.724  -4.013  -2.916  0.00  0.00    +0.050 A 
ATOM     17  C   UNL     1       4.107  -2.938  -3.474  0.00  0.00    +0.135 A 
ATOM     18  O   UNL     1       3.659  -2.148  -2.478  0.00  0.00    -0.456 OA
BRANCH  17  19
ATOM     19  C   UNL     1       3.949  -2.682  -4.921  0.00  0.00    +0.019 A 
ATOM     20  C   UNL     1       4.453  -3.591  -5.852  0.00  0.00    +0.013 A 
ATOM     21  C   UNL     1       4.303  -3.348  -7.202  0.00  0.00    +0.022 A 
ATOM     22  C   UNL     1       3.654  -2.204  -7.634  0.00  0.00    +0.059 A 
ATOM     23  C   UNL     1       3.152  -1.297  -6.715  0.00  0.00    +0.060 A 
ATOM     24  C   UNL     1       3.291  -1.533  -5.361  0.00  0.00    +0.033 A 
ATOM     25 CL   UNL     1       2.340   0.136  -7.265  0.00  0.00    -0.082 Cl
ATOM     26 CL   UNL     1       3.470  -1.904  -9.334  0.00  0.00    -0.082 Cl
ENDBRANCH  17  19
ENDBRANCH   2  14
BRANCH   5  27
ATOM     27  C   UNL     1       7.209   0.119   0.415  0.00  0.00    +0.107 C 
ATOM     28  N   UNL     1       8.223   0.629   0.361  0.00  0.00    -0.191 NA
ENDBRANCH   5  27
BRANCH   4  29
ATOM     29  O   UNL     1       6.706  -2.196   2.090  0.00  0.00    -0.492 OA
ATOM     30  H   UNL     1       6.505  -3.039   2.521  0.00  0.00    +0.294 HD
ENDBRANCH   4  29
TORSDOF 5
