REMARK  Name = ZINC32183797
REMARK  11 active torsions:
REMARK  status: ('A' for Active; 'I' for Inactive)
REMARK    1  A    between atoms: C_1  and  C_2
REMARK    2  A    between atoms: C_2  and  C_3
REMARK    3  A    between atoms: C_2  and  C_4
REMARK    4  A    between atoms: C_9  and  O_10
REMARK    5  A    between atoms: O_10  and  C_11
REMARK    6  A    between atoms: C_14  and  C_17
REMARK    7  A    between atoms: C_17  and  C_18
REMARK    8  A    between atoms: C_17  and  C_19
REMARK    9  A    between atoms: C_17  and  O_22
REMARK   10  A    between atoms: C_19  and  N_20
REMARK   11  A    between atoms: N_20  and  C_21
REMARK                            x       y       z     vdW  Elec       q    Type
REMARK                         _______ _______ _______ _____ _____    ______ ____
ROOT
ATOM      1  C   UNL     1      -4.750   0.127   1.359  0.00  0.00    +0.128 A 
ATOM      2  C   UNL     1      -4.458   1.348   0.767  0.00  0.00    +0.046 A 
ATOM      3  C   UNL     1      -3.173   1.852   0.824  0.00  0.00    +0.010 A 
ATOM      4  C   UNL     1      -2.178   1.141   1.469  0.00  0.00    -0.018 A 
ATOM      5  C   UNL     1      -2.465  -0.078   2.055  0.00  0.00    +0.010 A 
ATOM      6  C   UNL     1      -3.749  -0.584   2.007  0.00  0.00    +0.046 A 
ENDROOT
BRANCH   4   7
ATOM      7  C   UNL     1      -0.777   1.693   1.529  0.00  0.00    +0.073 C 
ATOM      8  C   UNL     1       0.015   1.205   0.314  0.00  0.00    +0.044 C 
BRANCH   7   9
ATOM      9  O   UNL     1      -0.827   3.121   1.522  0.00  0.00    -0.386 OA
ATOM     10  H   UNL     1       0.105   3.705   1.560  0.00  0.00    +0.211 HD
ENDBRANCH   7   9
BRANCH   7  11
ATOM     11  C   UNL     1      -0.093   1.213   2.811  0.00  0.00    -0.043 C 
BRANCH  11  12
ATOM     12  N   UNL     1       1.272   1.751   2.868  0.00  0.00    +0.379 N 
ATOM     13  C   UNL     1       1.961   1.310   4.089  0.00  0.00    -0.100 C 
ATOM     14  H   UNL     1       1.842   1.400   1.995  0.00  0.00    -0.086 HD
ATOM     15  H   UNL     1       1.234   2.851   2.863  0.00  0.00    -0.086 HD
ENDBRANCH  11  12
ENDBRANCH   7  11
ENDBRANCH   4   7
BRANCH   1  16
ATOM     16  O   UNL     1      -6.012  -0.372   1.304  0.00  0.00    -0.456 OA
BRANCH  16  22
ATOM     17  C   UNL     1      -6.513  -1.781   3.155  0.00  0.00    -0.003 A 
ATOM     18  C   UNL     1      -6.734  -3.047   3.663  0.00  0.00    +0.007 A 
ATOM     19  C   UNL     1      -6.673  -4.148   2.829  0.00  0.00    +0.001 A 
ATOM     20  C   UNL     1      -6.391  -3.986   1.484  0.00  0.00    +0.004 A 
ATOM     21  C   UNL     1      -6.174  -2.722   0.971  0.00  0.00    +0.046 A 
ATOM     22  C   UNL     1      -6.230  -1.615   1.807  0.00  0.00    +0.132 A 
BRANCH  17  24
ATOM     23  C   UNL     1      -7.973  -0.490   4.688  0.00  0.00    +0.012 C 
ATOM     24  C   UNL     1      -6.579  -0.581   4.064  0.00  0.00    +0.016 C 
ATOM     25  C   UNL     1      -5.533  -0.723   5.172  0.00  0.00    +0.012 C 
ENDBRANCH  17  24
ENDBRANCH  16  22
ENDBRANCH   1  16
TORSDOF 7
