REMARK  Name = ZINC40831037
REMARK  8 active torsions:
REMARK  status: ('A' for Active; 'I' for Inactive)
REMARK    1  A    between atoms: C_1  and  C_2
REMARK    2  A    between atoms: C_2  and  C_3
REMARK    3  A    between atoms: C_2  and  C_4
REMARK    4  A    between atoms: C_2  and  N_15
REMARK    5  A    between atoms: C_4  and  N_5
REMARK    6  A    between atoms: C_6  and  C_8
REMARK    7  A    between atoms: C_8  and  N_9
REMARK    8  A    between atoms: N_18  and  C_21
REMARK                            x       y       z     vdW  Elec       q    Type
REMARK                         _______ _______ _______ _____ _____    ______ ____
ROOT
ATOM      1  N   UNL     1      -2.203   0.197  -1.017  0.00  0.00    -0.316 N 
ATOM      2  C   UNL     1      -3.546   0.102  -1.070  0.00  0.00    +0.227 C 
ATOM      3  O   UNL     1      -4.152  -0.438  -0.169  0.00  0.00    -0.274 OA
ATOM      4  H   UNL     1      -1.718   0.629  -1.737  0.00  0.00    +0.149 HD
ENDROOT
BRANCH   1   5
ATOM      5  C   UNL     1      -1.475  -0.352   0.130  0.00  0.00    +0.092 C 
BRANCH   5   7
ATOM      6  C   UNL     1       0.215   1.487   0.080  0.00  0.00    -0.008 C 
ATOM      7  C   UNL     1       0.014  -0.027  -0.008  0.00  0.00    -0.055 C 
ATOM      8  C   UNL     1       0.791  -0.711   1.118  0.00  0.00    -0.008 C 
BRANCH   7   9
ATOM      9  N   UNL     1       0.502  -0.512  -1.305  0.00  0.00    +0.386 N 
ATOM     10  C   UNL     1       0.270  -1.959  -1.406  0.00  0.00    -0.062 C 
ATOM     11  C   UNL     1       0.762  -2.461  -2.765  0.00  0.00    +0.065 C 
ATOM     12  N   UNL     1       2.196  -2.166  -2.904  0.00  0.00    -0.309 NA
ATOM     13  C   UNL     1       2.446  -0.723  -2.780  0.00  0.00    +0.065 C 
ATOM     14  C   UNL     1       1.940  -0.235  -1.421  0.00  0.00    -0.062 C 
ATOM     15  C   UNL     1       2.719  -2.684  -4.175  0.00  0.00    +0.104 C 
ATOM     16  H   UNL     1       0.009  -0.040  -2.048  0.00  0.00    -0.081 HD
ENDBRANCH   7   9
ENDBRANCH   5   7
ENDBRANCH   1   5
BRANCH   2  17
ATOM     17  C   UNL     1      -4.295   0.666  -2.250  0.00  0.00    +0.180 C 
BRANCH  17  18
ATOM     18  N   UNL     1      -5.735   0.438  -2.071  0.00  0.00    -0.298 NA
ATOM     19  C   UNL     1      -6.253   1.209  -0.933  0.00  0.00    +0.066 C 
ATOM     20  C   UNL     1      -7.740   0.898  -0.744  0.00  0.00    -0.067 C 
ATOM     21  N   UNL     1      -8.473   1.246  -1.968  0.00  0.00    +0.381 N 
ATOM     22  C   UNL     1      -7.960   0.450  -3.091  0.00  0.00    -0.067 C 
ATOM     23  C   UNL     1      -6.476   0.757  -3.299  0.00  0.00    +0.066 C 
ATOM     24  H   UNL     1      -9.454   1.052  -1.839  0.00  0.00    -0.086 HD
ATOM     25  H   UNL     1      -8.347   2.227  -2.167  0.00  0.00    -0.086 HD
ENDBRANCH  17  18
ENDBRANCH   2  17
TORSDOF 5
