REMARK  Name = ZINC51363168
REMARK  5 active torsions:
REMARK  status: ('A' for Active; 'I' for Inactive)
REMARK    1  A    between atoms: C_1  and  C_2
REMARK    2  A    between atoms: C_2  and  N_3
REMARK    3  A    between atoms: C_7  and  C_13
REMARK    4  A    between atoms: C_13  and  C_15
REMARK    5  A    between atoms: C_13  and  N_21
REMARK                            x       y       z     vdW  Elec       q    Type
REMARK                         _______ _______ _______ _____ _____    ______ ____
ROOT
ATOM      1  N   UNL     1       0.688  -0.476  -1.203  0.00  0.00    -0.274 N 
ATOM      2  C   UNL     1       0.096  -0.747  -2.437  0.00  0.00    +0.090 A 
ATOM      3  C   UNL     1      -1.208  -0.673  -2.903  0.00  0.00    +0.030 A 
ATOM      4  C   UNL     1      -1.490  -1.018  -4.211  0.00  0.00    +0.004 A 
ATOM      5  C   UNL     1      -0.475  -1.437  -5.054  0.00  0.00    -0.051 A 
ATOM      6  C   UNL     1       0.825  -1.513  -4.596  0.00  0.00    +0.051 A 
ATOM      7  C   UNL     1       1.118  -1.169  -3.286  0.00  0.00    +0.157 A 
ATOM      8  O   UNL     1       2.270  -1.145  -2.572  0.00  0.00    -0.407 OA
ATOM      9  C   UNL     1       2.007  -0.723  -1.325  0.00  0.00    +0.421 A 
ATOM     10  O   UNL     1       2.831  -0.588  -0.441  0.00  0.00    -0.223 OA
ENDROOT
BRANCH   1  12
ATOM     11  C   UNL     1      -0.019   1.526   0.010  0.00  0.00    +0.027 C 
ATOM     12  C   UNL     1       0.002  -0.004   0.002  0.00  0.00    +0.125 C 
ENDBRANCH   1  12
BRANCH   5  13
ATOM     13  C   UNL     1      -0.792  -1.812  -6.479  0.00  0.00    +0.024 C 
BRANCH  13  14
ATOM     14  C   UNL     1      -1.353  -3.210  -6.518  0.00  0.00    +0.096 A 
ATOM     15  C   UNL     1      -0.669  -4.323  -6.838  0.00  0.00    +0.044 A 
ATOM     16  C   UNL     1      -1.577  -5.403  -6.746  0.00  0.00    +0.057 A 
ATOM     17  C   UNL     1      -2.763  -4.884  -6.376  0.00  0.00    +0.170 A 
ATOM     18  O   UNL     1      -2.619  -3.557  -6.233  0.00  0.00    -0.454 OA
ATOM     19 BR   UNL     1      -4.357  -5.861  -6.095  0.00  0.00    -0.008 Br
ENDBRANCH  13  14
BRANCH  13  20
ATOM     20  N   UNL     1      -1.781  -0.872  -7.025  0.00  0.00    +0.387 N 
ATOM     21  H   UNL     1      -1.405   0.064  -6.999  0.00  0.00    -0.089 HD
ATOM     22  H   UNL     1      -1.993  -1.123  -7.979  0.00  0.00    -0.089 HD
ATOM     23  H   UNL     1      -2.624  -0.912  -6.471  0.00  0.00    -0.089 HD
ENDBRANCH  13  20
ENDBRANCH   5  13
TORSDOF 4
