REMARK  Name = ZINC19658123
REMARK  4 active torsions:
REMARK  status: ('A' for Active; 'I' for Inactive)
REMARK    1  A    between atoms: C_12  and  C_14
REMARK    2  A    between atoms: C_14  and  N_15
REMARK    3  A    between atoms: C_18  and  C_21
REMARK    4  A    between atoms: C_18  and  N_24
REMARK                            x       y       z     vdW  Elec       q    Type
REMARK                         _______ _______ _______ _____ _____    ______ ____
ROOT
ATOM      1  N   UNL     1      -3.163   0.048  -1.069  0.00  0.00    +0.386 N 
ATOM      2  C   UNL     1      -2.339   0.967  -1.865  0.00  0.00    -0.076 C 
ATOM      3  C   UNL     1      -2.053   2.232  -1.052  0.00  0.00    +0.013 C 
ATOM      4  C   UNL     1      -1.323   1.850   0.239  0.00  0.00    +0.095 C 
ATOM      5  C   UNL     1      -2.181   0.855   1.025  0.00  0.00    +0.013 C 
ATOM      6  C   UNL     1      -2.463  -0.370   0.152  0.00  0.00    -0.076 C 
ATOM      7  H   UNL     1      -4.071   0.589  -0.766  0.00  0.00    -0.081 HD
ENDROOT
BRANCH   4   8
ATOM      8  N   UNL     1      -1.097   3.054   1.050  0.00  0.00    -0.285 NA
ATOM      9  C   UNL     1      -0.374   4.078   0.282  0.00  0.00    +0.113 C 
ATOM     10  C   UNL     1      -0.213   5.334   1.143  0.00  0.00    +0.175 C 
ATOM     11  O   UNL     1       0.462   4.990   2.356  0.00  0.00    -0.377 OA
ATOM     12  C   UNL     1      -0.215   3.995   3.129  0.00  0.00    +0.175 C 
ATOM     13  C   UNL     1      -0.376   2.726   2.289  0.00  0.00    +0.113 C 
ENDBRANCH   4   8
BRANCH   4  14
ATOM     14  C   UNL     1       0.001   1.215  -0.101  0.00  0.00    +0.231 C 
ATOM     15  O   UNL     1       0.456   1.324  -1.220  0.00  0.00    -0.274 OA
ATOM     16  N   UNL     1       0.681   0.532   0.840  0.00  0.00    -0.328 N 
ATOM     17  H   UNL     1       1.648   0.068   0.592  0.00  0.00    +0.145 HD
ATOM     18  H   UNL     1       0.271   0.437   1.856  0.00  0.00    +0.145 HD
ENDBRANCH   4  14
BRANCH   1  19
ATOM     19  C   UNL     1      -3.572  -1.116  -1.866  0.00  0.00    +0.019 C 
BRANCH  19  31
ATOM     20  C   UNL     1      -8.012  -5.285   0.344  0.00  0.00    +0.002 A 
ATOM     21  C   UNL     1      -7.085  -4.564   1.073  0.00  0.00    +0.002 A 
ATOM     22  C   UNL     1      -6.124  -3.808   0.424  0.00  0.00    +0.025 A 
ATOM     23  C   UNL     1      -6.095  -3.777  -0.959  0.00  0.00    +0.058 A 
ATOM     24  C   UNL     1      -7.033  -4.501  -1.697  0.00  0.00    +0.055 A 
ATOM     25  C   UNL     1      -7.990  -5.256  -1.039  0.00  0.00    +0.025 A 
ATOM     26  N   UNL     1      -6.999  -4.449  -3.095  0.00  0.00    -0.283 N 
ATOM     27  C   UNL     1      -5.925  -3.955  -3.740  0.00  0.00    +0.235 C 
ATOM     28  O   UNL     1      -5.935  -3.880  -4.950  0.00  0.00    -0.274 OA
ATOM     29  C   UNL     1      -4.715  -3.491  -2.978  0.00  0.00    +0.209 C 
ATOM     30  N   UNL     1      -5.131  -3.024  -1.646  0.00  0.00    -0.262 N 
ATOM     31  C   UNL     1      -4.606  -1.906  -1.106  0.00  0.00    +0.204 C 
ATOM     32  O   UNL     1      -4.967  -1.536  -0.009  0.00  0.00    -0.277 OA
ATOM     33  H   UNL     1      -7.856  -4.815  -3.680  0.00  0.00    +0.155 HD
ENDBRANCH  19  31
ENDBRANCH   1  19
TORSDOF 4
