REMARK  Name = ZINC19656864
REMARK  7 active torsions:
REMARK  status: ('A' for Active; 'I' for Inactive)
REMARK    1  A    between atoms: C_7  and  C_11
REMARK    2  A    between atoms: C_11  and  C_12
REMARK    3  A    between atoms: C_12  and  N_13
REMARK    4  A    between atoms: C_14  and  C_16
REMARK    5  A    between atoms: C_16  and  N_17
REMARK    6  A    between atoms: C_20  and  C_23
REMARK    7  A    between atoms: C_20  and  N_26
REMARK                            x       y       z     vdW  Elec       q    Type
REMARK                         _______ _______ _______ _____ _____    ______ ____
ROOT
ATOM      1  N   UNL     1      -0.923   1.891  -5.517  0.00  0.00    +0.386 N 
ATOM      2  C   UNL     1      -0.617   0.551  -5.000  0.00  0.00    -0.076 C 
ATOM      3  C   UNL     1       0.348  -0.157  -5.954  0.00  0.00    +0.013 C 
ATOM      4  C   UNL     1      -0.296  -0.260  -7.339  0.00  0.00    +0.095 C 
ATOM      5  C   UNL     1      -0.650   1.145  -7.834  0.00  0.00    +0.013 C 
ATOM      6  C   UNL     1      -1.585   1.816  -6.825  0.00  0.00    -0.076 C 
ATOM      7  H   UNL     1       0.029   2.424  -5.652  0.00  0.00    -0.081 HD
ENDROOT
BRANCH   4   8
ATOM      8  N   UNL     1       0.648  -0.886  -8.274  0.00  0.00    -0.285 NA
ATOM      9  C   UNL     1       0.073  -0.974  -9.624  0.00  0.00    +0.113 C 
ATOM     10  C   UNL     1       1.109  -1.577 -10.576  0.00  0.00    +0.175 C 
ATOM     11  O   UNL     1       1.521  -2.853 -10.079  0.00  0.00    -0.377 OA
ATOM     12  C   UNL     1       2.087  -2.804  -8.767  0.00  0.00    +0.175 C 
ATOM     13  C   UNL     1       1.060  -2.214  -7.796  0.00  0.00    +0.113 C 
ENDBRANCH   4   8
BRANCH   4  14
ATOM     14  C   UNL     1      -1.549  -1.093  -7.252  0.00  0.00    +0.231 C 
ATOM     15  O   UNL     1      -2.572  -0.706  -7.775  0.00  0.00    -0.274 OA
ATOM     16  N   UNL     1      -1.532  -2.269  -6.593  0.00  0.00    -0.328 N 
ATOM     17  H   UNL     1      -2.446  -2.877  -6.530  0.00  0.00    +0.145 HD
ATOM     18  H   UNL     1      -0.603  -2.620  -6.119  0.00  0.00    +0.145 HD
ENDBRANCH   4  14
BRANCH   1  19
ATOM     19  C   UNL     1      -1.736   2.651  -4.559  0.00  0.00    +0.019 C 
BRANCH  19  21
ATOM     20  N   UNL     1      -2.610   4.955  -4.341  0.00  0.00    -0.317 N 
ATOM     21  C   UNL     1      -1.801   4.094  -4.989  0.00  0.00    +0.196 C 
ATOM     22  O   UNL     1      -1.124   4.481  -5.918  0.00  0.00    -0.278 OA
ATOM     23  H   UNL     1      -3.224   4.605  -3.498  0.00  0.00    +0.149 HD
BRANCH  20  24
ATOM     24  C   UNL     1      -2.672   6.358  -4.759  0.00  0.00    +0.109 C 
BRANCH  24  25
ATOM     25  C   UNL     1      -3.659   7.113  -3.866  0.00  0.00    +0.056 C 
BRANCH  25  32
ATOM     26  C   UNL     1      -6.124   9.373  -7.150  0.00  0.00    +0.001 A 
ATOM     27  C   UNL     1      -5.853  10.734  -7.189  0.00  0.00    +0.002 A 
ATOM     28  C   UNL     1      -4.941  11.294  -6.321  0.00  0.00    +0.026 A 
ATOM     29  C   UNL     1      -4.284  10.490  -5.396  0.00  0.00    +0.047 A 
ATOM     30  C   UNL     1      -4.562   9.111  -5.360  0.00  0.00    +0.003 A 
ATOM     31  C   UNL     1      -5.490   8.565  -6.249  0.00  0.00    +0.010 A 
ATOM     32  C   UNL     1      -3.723   8.556  -4.296  0.00  0.00    -0.021 A 
ATOM     33  C   UNL     1      -3.026   9.577  -3.772  0.00  0.00    +0.087 A 
ATOM     34  N   UNL     1      -3.345  10.739  -4.420  0.00  0.00    -0.360 N 
ATOM     35  H   UNL     1      -2.970  11.762  -4.267  0.00  0.00    +0.165 HD
ENDBRANCH  25  32
ENDBRANCH  24  25
ENDBRANCH  20  24
ENDBRANCH  19  21
ENDBRANCH   1  19
TORSDOF 7
