REMARK  Name = ZINC14184884
REMARK  7 active torsions:
REMARK  status: ('A' for Active; 'I' for Inactive)
REMARK    1  A    between atoms: C_1  and  C_2
REMARK    2  A    between atoms: C_2  and  C_4
REMARK    3  A    between atoms: C_2  and  N_9
REMARK    4  A    between atoms: N_9  and  C_10
REMARK    5  A    between atoms: C_10  and  C_11
REMARK    6  A    between atoms: N_13  and  C_14
REMARK    7  A    between atoms: C_15  and  C_22
REMARK                            x       y       z     vdW  Elec       q    Type
REMARK                         _______ _______ _______ _____ _____    ______ ____
ROOT
ATOM      1  C   UNL     1       2.851  -0.582   2.343  0.00  0.00    +0.201 C 
ATOM      2  O   UNL     1       2.255  -1.215   3.188  0.00  0.00    -0.278 OA
ATOM      3  N   UNL     1       4.165  -0.324   2.495  0.00  0.00    -0.281 N 
ATOM      4  H   UNL     1       4.642   0.182   1.819  0.00  0.00    +0.155 HD
ENDROOT
BRANCH   3   5
ATOM      5  C   UNL     1       4.836  -0.784   3.620  0.00  0.00    +0.090 A 
ATOM      6  C   UNL     1       6.168  -0.612   3.944  0.00  0.00    +0.084 A 
ATOM      7  C   UNL     1       6.635  -1.200   5.197  0.00  0.00    -0.018 A 
ATOM      8  C   UNL     1       5.680  -1.850   5.888  0.00  0.00    -0.004 A 
ATOM      9  S   UNL     1       4.215  -1.670   4.902  0.00  0.00    -0.077 S 
ATOM     10  C   UNL     1       6.213  -2.438   7.165  0.00  0.00    +0.043 C 
ATOM     11  C   UNL     1       7.748  -2.438   6.985  0.00  0.00    +0.010 C 
ATOM     12  C   UNL     1       7.946  -1.288   5.976  0.00  0.00    +0.037 C 
BRANCH   6  13
ATOM     13  C   UNL     1       7.056   0.113   3.085  0.00  0.00    +0.102 C 
ATOM     14  N   UNL     1       7.760   0.688   2.404  0.00  0.00    -0.191 NA
ENDBRANCH   6  13
ENDBRANCH   3   5
BRANCH   1  15
ATOM     15  C   UNL     1       2.122  -0.083   1.122  0.00  0.00    +0.016 C 
BRANCH  15  16
ATOM     16  N   UNL     1       0.713  -0.491   1.192  0.00  0.00    +0.389 N 
ATOM     17  H   UNL     1       0.290  -0.099   2.020  0.00  0.00    -0.084 HD
ATOM     18  H   UNL     1       0.655  -1.497   1.230  0.00  0.00    -0.084 HD
BRANCH  16  20
ATOM     19  C   UNL     1      -0.019   1.526   0.010  0.00  0.00    -0.008 C 
ATOM     20  C   UNL     1       0.002  -0.004   0.002  0.00  0.00    -0.037 C 
BRANCH  20  21
ATOM     21  C   UNL     1      -1.412  -0.526   0.013  0.00  0.00    -0.024 A 
ATOM     22  C   UNL     1      -2.157  -0.992  -1.019  0.00  0.00    +0.009 A 
ATOM     23  C   UNL     1      -3.447  -1.425  -0.772  0.00  0.00    +0.008 A 
ATOM     24  C   UNL     1      -3.927  -1.370   0.494  0.00  0.00    +0.045 A 
ATOM     25  S   UNL     1      -2.537  -0.697   1.389  0.00  0.00    -0.103 S 
ENDBRANCH  20  21
ENDBRANCH  16  20
ENDBRANCH  15  16
ENDBRANCH   1  15
TORSDOF 6
