REMARK  Name = ZINC63098824
REMARK  4 active torsions:
REMARK  status: ('A' for Active; 'I' for Inactive)
REMARK    1  A    between atoms: C_1  and  C_2
REMARK    2  A    between atoms: N_10  and  N_11
REMARK    3  A    between atoms: C_12  and  C_14
REMARK    4  A    between atoms: C_14  and  C_17
REMARK                            x       y       z     vdW  Elec       q    Type
REMARK                         _______ _______ _______ _____ _____    ______ ____
ROOT
ATOM      1  N   UNL     1       3.916  -2.767  -1.179  0.00  0.00    -0.234 N 
ATOM      2  C   UNL     1       5.011  -3.550  -1.121  0.00  0.00    +0.240 C 
ATOM      3  O   UNL     1       5.520  -3.803  -0.050  0.00  0.00    -0.273 OA
ATOM      4  H   UNL     1       3.553  -2.504  -2.039  0.00  0.00    +0.173 HD
ENDROOT
BRANCH   1  13
ATOM      5  C   UNL     1      -0.017   1.559  -0.062  0.00  0.00    +0.044 C 
ATOM      6  C   UNL     1      -0.003   0.029  -0.067  0.00  0.00    +0.210 C 
ATOM      7  C   UNL     1       0.649  -0.431  -1.358  0.00  0.00    +0.265 C 
ATOM      8  O   UNL     1       0.207  -0.110  -2.443  0.00  0.00    -0.271 OA
ATOM      9  N   UNL     1       1.736  -1.208  -1.242  0.00  0.00    -0.145 NA
ATOM     10  C   UNL     1       2.194  -1.541  -0.055  0.00  0.00    +0.218 C 
ATOM     11  N   UNL     1       1.632  -1.144   1.120  0.00  0.00    -0.253 N 
ATOM     12  N   UNL     1       0.627  -0.425   1.185  0.00  0.00    -0.197 NA
ATOM     13  N   UNL     1       3.302  -2.333   0.004  0.00  0.00    -0.235 N 
ATOM     14  H   UNL     1       3.665  -2.596   0.864  0.00  0.00    +0.173 HD
ATOM     15  H   UNL     1       2.040  -1.439   1.948  0.00  0.00    +0.191 HD
ENDBRANCH   1  13
BRANCH   2  16
ATOM     16  C   UNL     1       5.603  -4.113  -2.388  0.00  0.00    +0.073 C 
ATOM     17  C   UNL     1       7.119  -4.008  -2.567  0.00  0.00    +0.022 C 
ATOM     18  C   UNL     1       6.188  -3.121  -3.395  0.00  0.00    +0.022 C 
BRANCH  16  19
ATOM     19  C   UNL     1       4.920  -5.340  -2.935  0.00  0.00    -0.032 A 
ATOM     20  C   UNL     1       4.923  -5.583  -4.296  0.00  0.00    +0.006 A 
ATOM     21  C   UNL     1       4.298  -6.708  -4.798  0.00  0.00    +0.015 A 
ATOM     22  C   UNL     1       3.668  -7.591  -3.939  0.00  0.00    +0.018 A 
ATOM     23  C   UNL     1       3.666  -7.348  -2.578  0.00  0.00    +0.015 A 
ATOM     24  C   UNL     1       4.296  -6.224  -2.075  0.00  0.00    +0.006 A 
ATOM     25 BR   UNL     1       2.812  -9.131  -4.626  0.00  0.00    -0.050 Br
ENDBRANCH  16  19
ENDBRANCH   2  16
TORSDOF 3
