REMARK  Name = ZINC36147849
REMARK  8 active torsions:
REMARK  status: ('A' for Active; 'I' for Inactive)
REMARK    1  A    between atoms: C_1  and  C_2
REMARK    2  A    between atoms: C_2  and  N_3
REMARK    3  A    between atoms: N_3  and  C_4
REMARK    4  A    between atoms: N_3  and  C_6
REMARK    5  A    between atoms: C_4  and  C_5
REMARK    6  A    between atoms: C_18  and  C_21
REMARK    7  A    between atoms: C_21  and  C_22
REMARK    8  A    between atoms: C_21  and  C_23
REMARK                            x       y       z     vdW  Elec       q    Type
REMARK                         _______ _______ _______ _____ _____    ______ ____
ROOT
ATOM      1  C   UNL     1      -0.427  -0.190  -1.716  0.00  0.00    -0.030 C 
ATOM      2  C   UNL     1      -0.240  -0.568  -3.188  0.00  0.00    +0.035 C 
ATOM      3  C   UNL     1      -1.389   0.039  -3.993  0.00  0.00    +0.093 C 
ATOM      4  C   UNL     1      -1.299  -0.418  -5.462  0.00  0.00    +0.027 C 
ATOM      5  C   UNL     1      -2.288  -1.611  -5.511  0.00  0.00    -0.079 C 
ATOM      6  N   UNL     1      -3.388  -1.180  -4.611  0.00  0.00    +0.382 N 
ATOM      7  C   UNL     1      -2.735  -0.487  -3.477  0.00  0.00    -0.034 C 
ATOM      8  O   UNL     1      -1.337   1.457  -3.913  0.00  0.00    -0.487 OA
ATOM      9  C   UNL     1      -1.161   2.021  -2.688  0.00  0.00    +0.123 A 
ATOM     10  C   UNL     1      -0.723   1.284  -1.603  0.00  0.00    -0.019 A 
ATOM     11  C   UNL     1      -0.551   1.904  -0.376  0.00  0.00    +0.009 A 
ATOM     12  C   UNL     1      -0.815   3.252  -0.233  0.00  0.00    -0.044 A 
ATOM     13  C   UNL     1      -1.255   3.989  -1.316  0.00  0.00    +0.007 A 
ATOM     14  C   UNL     1      -1.428   3.378  -2.539  0.00  0.00    +0.046 A 
ATOM     15  H   UNL     1      -4.007  -0.548  -5.096  0.00  0.00    -0.086 HD
ATOM     16  H   UNL     1      -3.901  -1.984  -4.278  0.00  0.00    -0.086 HD
ENDROOT
BRANCH  12  17
ATOM     17  C   UNL     1      -0.624   3.919   1.105  0.00  0.00    +0.013 C 
ATOM     18  C   UNL     1       0.326   5.108   0.951  0.00  0.00    +0.012 C 
ATOM     19  C   UNL     1      -1.976   4.410   1.627  0.00  0.00    +0.012 C 
ENDBRANCH  12  17
BRANCH   1  20
ATOM     20  N   UNL     1       0.800  -0.501  -0.972  0.00  0.00    +0.384 N 
ATOM     21  H   UNL     1       0.732  -0.125  -0.037  0.00  0.00    -0.081 HD
BRANCH  20  23
ATOM     22  C   UNL     1      -0.126  -2.563  -0.030  0.00  0.00    -0.017 C 
ATOM     23  C   UNL     1       0.976  -1.958  -0.902  0.00  0.00    -0.081 C 
ENDBRANCH  20  23
BRANCH  20  24
ATOM     24  C   UNL     1       1.953   0.099  -1.657  0.00  0.00    -0.081 C 
ATOM     25  C   UNL     1       1.839   1.624  -1.608  0.00  0.00    -0.017 C 
ENDBRANCH  20  24
ENDBRANCH   1  20
TORSDOF 4
