REMARK  Name = ZINC19798670
REMARK  6 active torsions:
REMARK  status: ('A' for Active; 'I' for Inactive)
REMARK    1  A    between atoms: C_1  and  O_2
REMARK    2  A    between atoms: O_2  and  C_3
REMARK    3  A    between atoms: C_6  and  C_11
REMARK    4  A    between atoms: C_8  and  O_9
REMARK    5  A    between atoms: O_9  and  C_10
REMARK    6  A    between atoms: N_19  and  C_20
REMARK                            x       y       z     vdW  Elec       q    Type
REMARK                         _______ _______ _______ _____ _____    ______ ____
ROOT
ATOM      1  C   UNL     1       2.215  -2.520  -4.178  0.00  0.00    +0.191 C 
ATOM      2  N   UNL     1       2.229  -1.633  -5.356  0.00  0.00    -0.295 N 
ATOM      3  C   UNL     1       1.097  -1.626  -6.155  0.00  0.00    +0.189 C 
ATOM      4  N   UNL     1       0.545  -2.868  -6.452  0.00  0.00    -0.260 N 
ATOM      5  C   UNL     1       0.542  -3.799  -5.415  0.00  0.00    +0.181 C 
ATOM      6  N   UNL     1       1.671  -3.823  -4.606  0.00  0.00    -0.295 N 
ATOM      7  N   UNL     1      -0.464  -4.603  -5.216  0.00  0.00    -0.272 NA
ATOM      8  N   UNL     1       0.576  -0.510  -6.607  0.00  0.00    -0.219 NA
ATOM      9  H   UNL     1       2.997  -1.078  -5.562  0.00  0.00    +0.151 HD
ATOM     10  H   UNL     1      -0.437  -5.240  -4.486  0.00  0.00    +0.189 HD
ATOM     11  H   UNL     1       2.084  -4.658  -4.336  0.00  0.00    +0.151 HD
ATOM     12  H   UNL     1       0.184  -3.073  -7.329  0.00  0.00    +0.157 HD
ENDROOT
BRANCH   1  16
ATOM     13  C   UNL     1      -0.268  -0.838  -1.130  0.00  0.00    +0.162 A 
ATOM     14  C   UNL     1       0.418  -0.010  -2.004  0.00  0.00    +0.050 A 
ATOM     15  C   UNL     1       1.220  -0.557  -2.989  0.00  0.00    +0.011 A 
ATOM     16  C   UNL     1       1.340  -1.929  -3.103  0.00  0.00    -0.006 A 
ATOM     17  C   UNL     1       0.658  -2.761  -2.234  0.00  0.00    +0.056 A 
ATOM     18  C   UNL     1      -0.143  -2.219  -1.242  0.00  0.00    +0.162 A 
BRANCH  13  20
ATOM     19  C   UNL     1      -1.137   1.125  -0.105  0.00  0.00    +0.277 C 
ATOM     20  O   UNL     1      -1.057  -0.301  -0.161  0.00  0.00    -0.491 OA
ENDBRANCH  13  20
BRANCH  18  21
ATOM     21  O   UNL     1      -0.809  -3.035  -0.382  0.00  0.00    -0.491 OA
ATOM     22  C   UNL     1      -0.633  -4.443  -0.556  0.00  0.00    +0.277 C 
ENDBRANCH  18  21
ENDBRANCH   1  16
BRANCH   8  23
ATOM     23  C   UNL     1      -0.608  -0.537  -7.297  0.00  0.00    +0.067 A 
ATOM     24  C   UNL     1      -1.725  -1.169  -6.747  0.00  0.00    +0.028 A 
ATOM     25  C   UNL     1      -2.914  -1.192  -7.447  0.00  0.00    +0.002 A 
ATOM     26  C   UNL     1      -3.000  -0.592  -8.691  0.00  0.00    +0.000 A 
ATOM     27  C   UNL     1      -1.897   0.035  -9.241  0.00  0.00    +0.002 A 
ATOM     28  C   UNL     1      -0.703   0.071  -8.550  0.00  0.00    +0.028 A 
ENDBRANCH   8  23
TORSDOF 4
