REMARK  Name = ZINC43254583
REMARK  8 active torsions:
REMARK  status: ('A' for Active; 'I' for Inactive)
REMARK    1  A    between atoms: C_1  and  C_2
REMARK    2  A    between atoms: C_2  and  C_3
REMARK    3  A    between atoms: N_7  and  C_8
REMARK    4  A    between atoms: C_8  and  C_10
REMARK    5  A    between atoms: C_8  and  C_16
REMARK    6  A    between atoms: C_16  and  C_18
REMARK    7  A    between atoms: C_16  and  N_20
REMARK    8  A    between atoms: C_18  and  C_19
REMARK                            x       y       z     vdW  Elec       q    Type
REMARK                         _______ _______ _______ _____ _____    ______ ____
ROOT
ATOM      1  C   UNL     1      -1.628  -0.859   2.495  0.00  0.00    +0.110 C 
ENDROOT
BRANCH   1   6
ATOM      2  C   UNL     1      -1.412  -0.526   0.013  0.00  0.00    +0.087 A 
ATOM      3  N   UNL     1      -2.165  -0.702  -1.038  0.00  0.00    -0.350 N 
ATOM      4  C   UNL     1      -3.358  -1.179  -0.652  0.00  0.00    +0.101 A 
ATOM      5  C   UNL     1      -3.343  -1.303   0.689  0.00  0.00    +0.105 A 
ATOM      6  N   UNL     1      -2.107  -0.894   1.111  0.00  0.00    -0.330 N 
ATOM      7  H   UNL     1      -1.904  -0.517  -1.954  0.00  0.00    +0.166 HD
BRANCH   2   9
ATOM      8  C   UNL     1      -0.019   1.526   0.010  0.00  0.00    +0.012 C 
ATOM      9  C   UNL     1       0.002  -0.004   0.002  0.00  0.00    +0.069 C 
ENDBRANCH   2   9
ENDBRANCH   1   6
BRANCH   1  10
ATOM     10  C   UNL     1      -2.512   0.050   3.309  0.00  0.00    +0.012 A 
ATOM     11  C   UNL     1      -2.184   1.175   3.989  0.00  0.00    +0.015 A 
ATOM     12  C   UNL     1      -3.172   1.857   4.676  0.00  0.00    +0.028 A 
ATOM     13  C   UNL     1      -4.441   1.377   4.648  0.00  0.00    +0.078 A 
ATOM     14  S   UNL     1      -4.265  -0.074   3.623  0.00  0.00    -0.080 S 
ATOM     15 CL   UNL     1      -5.866   2.014   5.407  0.00  0.00    -0.076 Cl
ENDBRANCH   1  10
BRANCH   1  16
ATOM     16  C   UNL     1      -1.666  -2.271   3.083  0.00  0.00    -0.047 C 
BRANCH  16  17
ATOM     17  N   UNL     1      -0.804  -3.156   2.289  0.00  0.00    +0.382 N 
ATOM     18  H   UNL     1       0.143  -2.809   2.309  0.00  0.00    -0.090 HD
ATOM     19  H   UNL     1      -0.830  -4.087   2.678  0.00  0.00    -0.090 HD
ATOM     20  H   UNL     1      -1.134  -3.180   1.336  0.00  0.00    -0.090 HD
ENDBRANCH  16  17
BRANCH  16  21
ATOM     21  C   UNL     1      -1.166  -2.234   4.529  0.00  0.00    -0.017 C 
ATOM     22  C   UNL     1      -1.321  -3.620   5.157  0.00  0.00    +0.002 C 
ENDBRANCH  16  21
ENDBRANCH   1  16
TORSDOF 6
