REMARK  Name = ZINC36741328
REMARK  5 active torsions:
REMARK  status: ('A' for Active; 'I' for Inactive)
REMARK    1  A    between atoms: C_1  and  C_2
REMARK    2  A    between atoms: C_8  and  C_12
REMARK    3  A    between atoms: C_12  and  C_14
REMARK    4  A    between atoms: C_12  and  O_27
REMARK    5  A    between atoms: C_14  and  N_15
REMARK                            x       y       z     vdW  Elec       q    Type
REMARK                         _______ _______ _______ _____ _____    ______ ____
ROOT
ATOM      1  C   UNL     1       0.026  -2.863   3.727  0.00  0.00    +0.160 C 
ENDROOT
BRANCH   1   9
ATOM      2  C   UNL     1      -0.150   1.529   0.053  0.00  0.00    +0.044 C 
ATOM      3  C   UNL     1      -0.112   0.023   0.035  0.00  0.00    -0.050 A 
ATOM      4  C   UNL     1      -0.115  -0.651  -1.178  0.00  0.00    +0.005 A 
ATOM      5  C   UNL     1      -0.081  -2.028  -1.218  0.00  0.00    +0.026 A 
ATOM      6  C   UNL     1      -0.042  -2.752  -0.030  0.00  0.00    +0.047 A 
ATOM      7  C   UNL     1      -0.038  -2.064   1.197  0.00  0.00    +0.006 A 
ATOM      8  C   UNL     1      -0.068  -0.668   1.213  0.00  0.00    +0.013 A 
ATOM      9  C   UNL     1       0.006  -3.094   2.238  0.00  0.00    +0.007 A 
ATOM     10  C   UNL     1       0.025  -4.282   1.614  0.00  0.00    +0.089 A 
ATOM     11  N   UNL     1      -0.003  -4.098   0.258  0.00  0.00    -0.360 N 
ATOM     12  H   UNL     1       0.004  -4.809  -0.401  0.00  0.00    +0.165 HD
ENDBRANCH   1   9
BRANCH   1  13
ATOM     13  O   UNL     1      -0.503  -4.010   4.394  0.00  0.00    -0.386 OA
ATOM     14  H   UNL     1      -0.011  -4.825   4.225  0.00  0.00    +0.210 HD
ENDBRANCH   1  13
BRANCH   1  15
ATOM     15  C   UNL     1       1.465  -2.624   4.187  0.00  0.00    +0.120 C 
BRANCH  15  16
ATOM     16  N   UNL     1       1.485  -2.399   5.638  0.00  0.00    -0.297 NA
ATOM     17  C   UNL     1       0.788  -1.154   5.987  0.00  0.00    +0.103 C 
ATOM     18  C   UNL     1       0.672  -1.047   7.511  0.00  0.00    +0.122 C 
ATOM     19  N   UNL     1       2.015  -1.192   8.093  0.00  0.00    -0.314 N 
ATOM     20  C   UNL     1       2.830  -2.346   7.684  0.00  0.00    +0.122 C 
ATOM     21  C   UNL     1       2.861  -2.402   6.153  0.00  0.00    +0.103 C 
ATOM     22  C   UNL     1       2.502  -0.263   9.006  0.00  0.00    +0.099 A 
ATOM     23  C   UNL     1       1.762   0.881   9.285  0.00  0.00    +0.042 A 
ATOM     24  C   UNL     1       2.257   1.797  10.196  0.00  0.00    +0.005 A 
ATOM     25  C   UNL     1       3.481   1.536  10.799  0.00  0.00    +0.018 A 
ATOM     26  C   UNL     1       4.162   0.380  10.475  0.00  0.00    +0.084 A 
ATOM     27  N   UNL     1       3.662  -0.479   9.606  0.00  0.00    -0.350 N 
ATOM     28  H   UNL     1       4.159  -1.286   9.399  0.00  0.00    +0.166 HD
ENDBRANCH  15  16
ENDBRANCH   1  15
TORSDOF 4
