REMARK  Name = ZINC10926845
REMARK  6 active torsions:
REMARK  status: ('A' for Active; 'I' for Inactive)
REMARK    1  A    between atoms: C_1  and  N_2
REMARK    2  A    between atoms: C_3  and  C_11
REMARK    3  A    between atoms: N_7  and  C_10
REMARK    4  A    between atoms: C_11  and  N_12
REMARK    5  A    between atoms: C_19  and  S_21
REMARK    6  A    between atoms: S_21  and  N_24
REMARK                            x       y       z     vdW  Elec       q    Type
REMARK                         _______ _______ _______ _____ _____    ______ ____
ROOT
ATOM      1  N   UNL     1      -2.397   3.385   0.063  0.00  0.00    -0.324 N 
ATOM      2  C   UNL     1      -3.172   2.232   0.569  0.00  0.00    +0.110 C 
ATOM      3  C   UNL     1      -2.249   1.035   0.246  0.00  0.00    +0.056 C 
ATOM      4  C   UNL     1      -0.873   1.670   0.208  0.00  0.00    -0.023 A 
ATOM      5  C   UNL     1      -1.039   3.047   0.118  0.00  0.00    +0.033 A 
ATOM      6  C   UNL     1       0.089   3.865   0.087  0.00  0.00    +0.025 A 
ATOM      7  C   UNL     1       1.351   3.310   0.146  0.00  0.00    +0.030 A 
ATOM      8  C   UNL     1       1.505   1.939   0.235  0.00  0.00    +0.105 A 
ATOM      9  C   UNL     1       0.390   1.121   0.269  0.00  0.00    +0.034 A 
ENDROOT
BRANCH   8  10
ATOM     10  S   UNL     1       3.119   1.235   0.307  0.00  0.00    +0.056 S 
ATOM     11  O   UNL     1       3.981   2.247   0.809  0.00  0.00    -0.153 OA
ATOM     12  O   UNL     1       2.982  -0.031   0.937  0.00  0.00    -0.153 OA
BRANCH  10  13
ATOM     13  N   UNL     1       3.594   0.939  -1.252  0.00  0.00    -0.204 NA
ATOM     14  H   UNL     1       4.534   0.973  -1.487  0.00  0.00    +0.144 HD
ATOM     15  H   UNL     1       2.931   0.733  -1.930  0.00  0.00    +0.144 HD
ENDBRANCH  10  13
ENDBRANCH   8  10
BRANCH   1  16
ATOM     16  C   UNL     1      -2.671   4.592   0.854  0.00  0.00    +0.158 C 
BRANCH  16  19
ATOM     17  C   UNL     1      -5.089   3.878   2.186  0.00  0.00    +0.154 C 
ATOM     18  N   UNL     1      -3.837   3.902   2.947  0.00  0.00    -0.299 N 
ATOM     19  C   UNL     1      -2.669   4.244   2.320  0.00  0.00    +0.045 A 
ATOM     20  C   UNL     1      -1.515   4.261   3.019  0.00  0.00    +0.093 A 
ATOM     21  C   UNL     1      -1.539   3.934   4.397  0.00  0.00    +0.257 A 
ATOM     22  O   UNL     1      -0.511   3.947   5.050  0.00  0.00    -0.268 OA
ATOM     23  N   UNL     1      -2.710   3.603   4.978  0.00  0.00    -0.264 N 
ATOM     24  C   UNL     1      -3.845   3.588   4.255  0.00  0.00    +0.332 A 
ATOM     25  O   UNL     1      -4.894   3.288   4.792  0.00  0.00    -0.246 OA
ATOM     26  C   UNL     1      -2.746   3.258   6.401  0.00  0.00    +0.157 C 
ENDBRANCH  16  19
ENDBRANCH   1  16
TORSDOF 4
