REMARK  Name = ZINC49554695
REMARK  4 active torsions:
REMARK  status: ('A' for Active; 'I' for Inactive)
REMARK    1  A    between atoms: C_1  and  C_2
REMARK    2  A    between atoms: C_4  and  N_21
REMARK    3  A    between atoms: C_7  and  S_8
REMARK    4  A    between atoms: S_8  and  N_11
REMARK                            x       y       z     vdW  Elec       q    Type
REMARK                         _______ _______ _______ _____ _____    ______ ____
ROOT
ATOM      1  S   UNL     1       0.025   0.175   2.725  0.00  0.00    +0.101 S 
ATOM      2  O   UNL     1      -1.014   1.140   2.642  0.00  0.00    -0.146 OA
ATOM      3  O   UNL     1       0.076  -0.804   3.754  0.00  0.00    -0.146 OA
ENDROOT
BRANCH   1   4
ATOM      4  N   UNL     1       1.449   1.018   2.804  0.00  0.00    -0.103 NA
ATOM      5  C   UNL     1       1.712   1.763   3.849  0.00  0.00    +0.192 A 
ATOM      6  N   UNL     1       0.958   1.978   4.978  0.00  0.00    -0.336 N 
ATOM      7  C   UNL     1       1.433   2.812   5.968  0.00  0.00    +0.028 A 
ATOM      8  C   UNL     1       2.630   3.381   5.775  0.00  0.00    +0.012 A 
ATOM      9  S   UNL     1       3.150   2.765   4.194  0.00  0.00    -0.053 S 
ATOM     10  C   UNL     1       3.361   4.315   6.685  0.00  0.00    +0.044 C 
ATOM     11  C   UNL     1       2.376   4.832   7.744  0.00  0.00    +0.006 C 
ATOM     12  C   UNL     1       1.597   3.640   8.308  0.00  0.00    +0.006 C 
ATOM     13  C   UNL     1       0.644   3.093   7.245  0.00  0.00    +0.054 C 
ATOM     14  H   UNL     1       0.095   1.546   5.077  0.00  0.00    +0.168 HD
ENDBRANCH   1   4
BRANCH   1  21
ATOM     15  C   UNL     1      -0.018   1.503   0.010  0.00  0.00    +0.046 C 
ATOM     16  C   UNL     1       0.002  -0.004   0.002  0.00  0.00    -0.022 A 
ATOM     17  C   UNL     1       0.006  -0.687  -1.198  0.00  0.00    +0.028 A 
ATOM     18  C   UNL     1       0.025  -2.076  -1.205  0.00  0.00    +0.025 A 
ATOM     19  C   UNL     1       0.041  -2.773  -0.004  0.00  0.00    +0.024 A 
ATOM     20  C   UNL     1       0.037  -2.084   1.193  0.00  0.00    +0.031 A 
ATOM     21  C   UNL     1       0.023  -0.701   1.196  0.00  0.00    +0.116 A 
BRANCH  18  22
ATOM     22  N   UNL     1       0.028  -2.770  -2.417  0.00  0.00    -0.358 N 
ATOM     23  H   UNL     1       0.017  -2.282  -3.256  0.00  0.00    +0.142 HD
ATOM     24  H   UNL     1       0.042  -3.740  -2.421  0.00  0.00    +0.142 HD
ENDBRANCH  18  22
ENDBRANCH   1  21
TORSDOF 3
