REMARK  Name = ZINC57898240
REMARK  7 active torsions:
REMARK  status: ('A' for Active; 'I' for Inactive)
REMARK    1  A    between atoms: C_1  and  C_2
REMARK    2  A    between atoms: C_9  and  C_11
REMARK    3  A    between atoms: N_13  and  C_14
REMARK    4  A    between atoms: C_14  and  C_16
REMARK    5  A    between atoms: C_14  and  C_17
REMARK    6  A    between atoms: C_21  and  S_23
REMARK    7  A    between atoms: S_23  and  N_26
REMARK                            x       y       z     vdW  Elec       q    Type
REMARK                         _______ _______ _______ _____ _____    ______ ____
ROOT
ATOM      1  C   UNL     1       1.932  -5.253   2.755  0.00  0.00    +0.251 C 
ATOM      2  O   UNL     1       2.879  -4.985   3.471  0.00  0.00    -0.270 OA
ATOM      3  N   UNL     1       1.542  -6.534   2.603  0.00  0.00    -0.304 N 
ATOM      4  H   UNL     1       0.787  -6.747   2.032  0.00  0.00    +0.150 HD
ENDROOT
BRANCH   1  12
ATOM      5  C   UNL     1      -0.019   1.526   0.010  0.00  0.00    +0.008 C 
ATOM      6  C   UNL     1       0.002  -0.004   0.002  0.00  0.00    -0.009 C 
ATOM      7  C   UNL     1      -1.435  -0.533   0.009  0.00  0.00    +0.009 C 
ATOM      8  C   UNL     1      -1.408  -2.041  -0.272  0.00  0.00    +0.043 C 
ATOM      9  C   UNL     1      -0.377  -2.671   0.618  0.00  0.00    -0.006 A 
ATOM     10  C   UNL     1       0.604  -2.027   1.313  0.00  0.00    -0.036 A 
ATOM     11  C   UNL     1       1.449  -2.818   2.077  0.00  0.00    +0.024 A 
ATOM     12  C   UNL     1       1.214  -4.181   2.057  0.00  0.00    +0.074 A 
ATOM     13  S   UNL     1      -0.189  -4.294   0.963  0.00  0.00    -0.088 S 
ATOM     14  C   UNL     1       0.745  -0.509   1.239  0.00  0.00    +0.039 C 
ENDBRANCH   1  12
BRANCH   3  15
ATOM     15  C   UNL     1       2.259  -7.605   3.300  0.00  0.00    +0.100 C 
ATOM     16  C   UNL     1       1.699  -7.756   4.715  0.00  0.00    +0.033 C 
BRANCH  15  17
ATOM     17  C   UNL     1       2.082  -8.899   2.548  0.00  0.00    -0.026 A 
ATOM     18  C   UNL     1       0.857  -9.211   1.988  0.00  0.00    +0.005 A 
ATOM     19  C   UNL     1       0.695 -10.398   1.299  0.00  0.00    +0.002 A 
ATOM     20  C   UNL     1       1.757 -11.274   1.170  0.00  0.00    +0.028 A 
ATOM     21  C   UNL     1       2.982 -10.961   1.730  0.00  0.00    +0.105 A 
ATOM     22  C   UNL     1       3.146  -9.772   2.415  0.00  0.00    +0.034 A 
BRANCH  21  23
ATOM     23  S   UNL     1       4.336 -12.077   1.566  0.00  0.00    +0.056 S 
ATOM     24  O   UNL     1       5.220 -11.804   2.644  0.00  0.00    -0.153 OA
ATOM     25  O   UNL     1       3.776 -13.365   1.346  0.00  0.00    -0.153 OA
BRANCH  23  26
ATOM     26  N   UNL     1       5.142 -11.668   0.178  0.00  0.00    -0.204 NA
ATOM     27  H   UNL     1       6.097 -11.823   0.109  0.00  0.00    +0.144 HD
ATOM     28  H   UNL     1       4.659 -11.274  -0.565  0.00  0.00    +0.144 HD
ENDBRANCH  23  26
ENDBRANCH  21  23
ENDBRANCH  15  17
ENDBRANCH   3  15
TORSDOF 5
