REMARK  Name = ZINC59782713
REMARK  12 active torsions:
REMARK  status: ('A' for Active; 'I' for Inactive)
REMARK    1  A    between atoms: C_1  and  C_2
REMARK    2  A    between atoms: C_3  and  C_13
REMARK    3  A    between atoms: C_4  and  C_12
REMARK    4  A    between atoms: C_9  and  C_10
REMARK    5  A    between atoms: C_13  and  C_14
REMARK    6  A    between atoms: C_14  and  C_15
REMARK    7  A    between atoms: N_17  and  C_18
REMARK    8  A    between atoms: C_18  and  C_19
REMARK    9  A    between atoms: C_19  and  C_21
REMARK   10  A    between atoms: C_19  and  N_29
REMARK   11  A    between atoms: C_26  and  O_27
REMARK   12  A    between atoms: O_27  and  C_28
REMARK                            x       y       z     vdW  Elec       q    Type
REMARK                         _______ _______ _______ _____ _____    ______ ____
ROOT
ATOM      1  C   UNL     1      -5.476   3.425   0.603  0.00  0.00    +0.213 C 
ATOM      2  O   UNL     1      -5.361   2.361   0.032  0.00  0.00    -0.276 OA
ATOM      3  N   UNL     1      -5.816   3.457   1.907  0.00  0.00    -0.317 N 
ATOM      4  H   UNL     1      -5.909   4.308   2.364  0.00  0.00    +0.149 HD
ENDROOT
BRANCH   1   5
ATOM      5  C   UNL     1      -5.240   4.712  -0.145  0.00  0.00    +0.100 C 
BRANCH   5   6
ATOM      6  C   UNL     1      -4.870   4.397  -1.596  0.00  0.00    +0.046 C 
BRANCH   6   9
ATOM      7  C   UNL     1      -7.113   5.834  -2.774  0.00  0.00    +0.045 C 
ATOM      8  C   UNL     1      -5.711   6.369  -2.908  0.00  0.00    -0.023 A 
ATOM      9  C   UNL     1      -4.634   5.683  -2.345  0.00  0.00    -0.024 A 
ATOM     10  C   UNL     1      -3.374   6.172  -2.470  0.00  0.00    +0.019 A 
ATOM     11  N   UNL     1      -3.132   7.327  -3.137  0.00  0.00    -0.325 N 
ATOM     12  H   UNL     1      -2.221   7.653  -3.210  0.00  0.00    +0.169 HD
ATOM     13  C   UNL     1      -4.135   8.028  -3.699  0.00  0.00    +0.267 A 
ATOM     14  O   UNL     1      -3.897   9.064  -4.295  0.00  0.00    -0.266 OA
ATOM     15  C   UNL     1      -5.469   7.553  -3.600  0.00  0.00    +0.119 A 
ATOM     16  C   UNL     1      -2.224   5.418  -1.855  0.00  0.00    +0.063 C 
BRANCH  15  17
ATOM     17  C   UNL     1      -6.548   8.282  -4.196  0.00  0.00    +0.105 C 
ATOM     18  N   UNL     1      -7.403   8.860  -4.670  0.00  0.00    -0.191 NA
ENDBRANCH  15  17
ENDBRANCH   6   9
ENDBRANCH   5   6
ENDBRANCH   1   5
BRANCH   3  19
ATOM     19  C   UNL     1      -6.046   2.206   2.635  0.00  0.00    +0.093 C 
BRANCH  19  20
ATOM     20  C   UNL     1      -6.291   2.514   4.113  0.00  0.00    -0.017 C 
BRANCH  20  21
ATOM     21  N   UNL     1      -5.178   3.317   4.637  0.00  0.00    +0.385 N 
ATOM     22  C   UNL     1      -3.913   2.611   4.402  0.00  0.00    -0.078 C 
ATOM     23  C   UNL     1      -2.745   3.479   4.872  0.00  0.00    -0.019 C 
ATOM     24  C   UNL     1      -2.900   3.768   6.368  0.00  0.00    -0.004 C 
ATOM     25  C   UNL     1      -4.255   4.438   6.611  0.00  0.00    -0.019 C 
ATOM     26  C   UNL     1      -5.368   3.534   6.076  0.00  0.00    -0.078 C 
ATOM     27  H   UNL     1      -5.156   4.208   4.164  0.00  0.00    -0.081 HD
ENDBRANCH  20  21
BRANCH  20  28
ATOM     28  C   UNL     1      -7.579   3.283   4.260  0.00  0.00    -0.018 A 
ATOM     29  C   UNL     1      -7.557   4.664   4.310  0.00  0.00    +0.005 A 
ATOM     30  C   UNL     1      -8.738   5.370   4.445  0.00  0.00    +0.000 A 
ATOM     31  C   UNL     1      -9.943   4.697   4.529  0.00  0.00    +0.004 A 
ATOM     32  C   UNL     1      -9.970   3.317   4.478  0.00  0.00    +0.046 A 
ATOM     33  C   UNL     1      -8.787   2.606   4.338  0.00  0.00    +0.122 A 
BRANCH  33  34
ATOM     34  O   UNL     1      -8.811   1.248   4.282  0.00  0.00    -0.495 OA
ATOM     35  C   UNL     1     -10.090   0.618   4.368  0.00  0.00    +0.277 C 
ENDBRANCH  33  34
ENDBRANCH  20  28
ENDBRANCH  19  20
ENDBRANCH   3  19
TORSDOF 9
