REMARK  Name = ZINC52849784
REMARK  5 active torsions:
REMARK  status: ('A' for Active; 'I' for Inactive)
REMARK    1  A    between atoms: C_4  and  C_6
REMARK    2  A    between atoms: C_4  and  N_19
REMARK    3  A    between atoms: C_6  and  N_7
REMARK    4  A    between atoms: C_8  and  C_10
REMARK    5  A    between atoms: C_10  and  N_11
REMARK                            x       y       z     vdW  Elec       q    Type
REMARK                         _______ _______ _______ _____ _____    ______ ____
ROOT
ATOM      1  C   UNL     1       1.342  -1.159  -1.942  0.00  0.00    +0.092 C 
ENDROOT
BRANCH   1   5
ATOM      2  C   UNL     1      -0.258   1.347  -0.004  0.00  0.00    -0.001 C 
ATOM      3  C   UNL     1       1.184   1.887   0.166  0.00  0.00    -0.001 C 
ATOM      4  C   UNL     1       2.006   0.969  -0.772  0.00  0.00    -0.010 C 
ATOM      5  C   UNL     1       1.360  -0.422  -0.602  0.00  0.00    -0.050 C 
ATOM      6  C   UNL     1      -0.080  -0.181  -0.113  0.00  0.00    -0.010 C 
BRANCH   5   7
ATOM      7  N   UNL     1       2.104  -1.204   0.394  0.00  0.00    +0.386 N 
ATOM      8  C   UNL     1       2.135  -0.466   1.659  0.00  0.00    -0.067 C 
ATOM      9  C   UNL     1       2.567  -1.400   2.796  0.00  0.00    +0.050 C 
ATOM     10  S   UNL     1       4.254  -1.986   2.442  0.00  0.00    -0.164 S 
ATOM     11  C   UNL     1       4.123  -2.561   0.720  0.00  0.00    +0.050 C 
ATOM     12  C   UNL     1       3.458  -1.454  -0.106  0.00  0.00    -0.067 C 
ATOM     13  H   UNL     1       1.637  -2.087   0.538  0.00  0.00    -0.081 HD
ENDBRANCH   5   7
ENDBRANCH   1   5
BRANCH   1  14
ATOM     14  N   UNL     1       0.848  -2.524  -1.742  0.00  0.00    -0.316 N 
ATOM     15  C   UNL     1       0.844  -3.397  -2.769  0.00  0.00    +0.227 C 
ATOM     16  O   UNL     1       1.251  -3.053  -3.858  0.00  0.00    -0.274 OA
ATOM     17  H   UNL     1       0.523  -2.799  -0.870  0.00  0.00    +0.149 HD
BRANCH  15  18
ATOM     18  C   UNL     1       0.336  -4.800  -2.563  0.00  0.00    +0.180 C 
BRANCH  18  19
ATOM     19  N   UNL     1       0.437  -5.547  -3.824  0.00  0.00    -0.291 NA
ATOM     20  C   UNL     1      -0.432  -4.965  -4.850  0.00  0.00    +0.107 C 
ATOM     21  C   UNL     1      -0.002  -5.456  -6.236  0.00  0.00    +0.181 C 
ATOM     22  S   UNL     1      -0.196  -7.264  -6.296  0.00  0.00    -0.029 S 
ATOM     23  O   UNL     1      -1.572  -7.577  -6.127  0.00  0.00    -0.174 OA
ATOM     24  O   UNL     1       0.493  -7.756  -7.437  0.00  0.00    -0.174 OA
ATOM     25  C   UNL     1       0.704  -7.782  -4.802  0.00  0.00    +0.181 C 
ATOM     26  C   UNL     1       0.177  -6.973  -3.611  0.00  0.00    +0.107 C 
ENDBRANCH  18  19
ENDBRANCH  15  18
ENDBRANCH   1  14
TORSDOF 5
