REMARK  Name = ZINC39633338
REMARK  5 active torsions:
REMARK  status: ('A' for Active; 'I' for Inactive)
REMARK    1  A    between atoms: C_1  and  C_2
REMARK    2  A    between atoms: C_2  and  C_3
REMARK    3  A    between atoms: C_2  and  C_4
REMARK    4  A    between atoms: C_8  and  C_17
REMARK    5  A    between atoms: N_19  and  C_20
REMARK                            x       y       z     vdW  Elec       q    Type
REMARK                         _______ _______ _______ _____ _____    ______ ____
ROOT
ATOM      1  C   UNL     1      -1.550  -0.565   0.058  0.00  0.00    +0.218 C 
ATOM      2  O   UNL     1      -1.939  -1.314   0.929  0.00  0.00    -0.275 OA
ATOM      3  N   UNL     1      -2.360  -0.253  -0.974  0.00  0.00    -0.300 N 
ATOM      4  C   UNL     1      -2.064   0.630  -2.126  0.00  0.00    +0.121 C 
ATOM      5  C   UNL     1      -2.713  -0.077  -3.337  0.00  0.00    +0.100 C 
ATOM      6  C   UNL     1      -3.818  -0.958  -2.731  0.00  0.00    -0.004 C 
ATOM      7  C   UNL     1      -3.746  -0.722  -1.215  0.00  0.00    +0.115 C 
ATOM      8  C   UNL     1      -5.183  -0.538  -3.267  0.00  0.00    -0.010 C 
ATOM      9  C   UNL     1      -6.259  -1.466  -2.695  0.00  0.00    -0.082 C 
ATOM     10  N   UNL     1      -5.966  -2.852  -3.078  0.00  0.00    +0.379 N 
ATOM     11  C   UNL     1      -4.695  -3.279  -2.481  0.00  0.00    -0.082 C 
ATOM     12  C   UNL     1      -3.553  -2.428  -3.043  0.00  0.00    -0.010 C 
ATOM     13  H   UNL     1      -6.708  -3.453  -2.752  0.00  0.00    -0.086 HD
ATOM     14  H   UNL     1      -5.902  -2.916  -4.083  0.00  0.00    -0.086 HD
ENDROOT
BRANCH   5  15
ATOM     15  C   UNL     1      -3.306   0.937  -4.281  0.00  0.00    +0.218 C 
ATOM     16  O   UNL     1      -3.742   1.984  -3.851  0.00  0.00    -0.275 OA
ATOM     17  N   UNL     1      -3.351   0.681  -5.603  0.00  0.00    -0.312 N 
ATOM     18  H   UNL     1      -3.002  -0.157  -5.947  0.00  0.00    +0.149 HD
BRANCH  17  19
ATOM     19  C   UNL     1      -3.928   1.666  -6.521  0.00  0.00    +0.073 C 
ATOM     20  C   UNL     1      -5.463   1.515  -6.517  0.00  0.00    +0.022 C 
ATOM     21  C   UNL     1      -6.070   2.796  -7.021  0.00  0.00    +0.002 C 
ATOM     22  C   UNL     1      -6.357   2.756  -8.535  0.00  0.00    +0.000 C 
ATOM     23  C   UNL     1      -5.223   2.094  -9.341  0.00  0.00    +0.000 C 
ATOM     24  C   UNL     1      -3.858   2.512  -8.864  0.00  0.00    +0.002 C 
ATOM     25  C   UNL     1      -3.355   1.470  -7.844  0.00  0.00    +0.022 C 
ENDBRANCH  17  19
ENDBRANCH   5  15
BRANCH   1  27
ATOM     26  C   UNL     1      -0.252   1.544   0.177  0.00  0.00    +0.017 C 
ATOM     27  C   UNL     1      -0.162   0.018   0.129  0.00  0.00    +0.069 C 
ATOM     28  C   UNL     1       0.541  -0.492   1.388  0.00  0.00    +0.017 C 
ENDBRANCH   1  27
TORSDOF 3
