REMARK  Name = ZINC36108496
REMARK  10 active torsions:
REMARK  status: ('A' for Active; 'I' for Inactive)
REMARK    1  A    between atoms: C_1  and  C_2
REMARK    2  A    between atoms: C_7  and  C_9
REMARK    3  A    between atoms: C_7  and  C_10
REMARK    4  A    between atoms: N_11  and  C_13
REMARK    5  A    between atoms: C_13  and  C_15
REMARK    6  A    between atoms: C_13  and  C_17
REMARK    7  A    between atoms: C_15  and  N_16
REMARK    8  A    between atoms: C_21  and  O_24
REMARK    9  A    between atoms: C_22  and  O_23
REMARK   10  A    between atoms: O_24  and  C_25
REMARK                            x       y       z     vdW  Elec       q    Type
REMARK                         _______ _______ _______ _____ _____    ______ ____
ROOT
ATOM      1  C   UNL     1      -2.362  -3.098  -0.774  0.00  0.00    +0.073 C 
ENDROOT
BRANCH   1  11
ATOM      2  C   UNL     1       0.519   0.916  -0.873  0.00  0.00    +0.012 C 
ATOM      3  C   UNL     1       0.252  -0.566  -0.573  0.00  0.00    -0.017 C 
ATOM      4  C   UNL     1       0.888  -1.508  -1.632  0.00  0.00    +0.026 C 
ATOM      5  C   UNL     1       0.008  -2.770  -1.411  0.00  0.00    +0.058 C 
ATOM      6  C   UNL     1       0.444  -3.412  -0.106  0.00  0.00    +0.025 C 
ATOM      7  C   UNL     1       0.668  -2.486   1.069  0.00  0.00    -0.033 C 
ATOM      8  C   UNL     1       0.802  -1.003   0.785  0.00  0.00    +0.014 C 
ATOM      9  C   UNL     1      -0.447  -2.700   2.109  0.00  0.00    +0.011 C 
ATOM     10  C   UNL     1       1.983  -2.935   1.757  0.00  0.00    +0.011 C 
ATOM     11  N   UNL     1      -1.351  -2.209  -1.318  0.00  0.00    -0.294 NA
ATOM     12  C   UNL     1      -1.254  -0.914  -0.630  0.00  0.00    +0.092 C 
ENDBRANCH   1  11
BRANCH   1  13
ATOM     13  C   UNL     1      -2.268  -4.441  -1.452  0.00  0.00    +0.013 A 
ATOM     14  C   UNL     1      -1.809  -4.528  -2.753  0.00  0.00    +0.009 A 
ATOM     15  C   UNL     1      -1.721  -5.758  -3.378  0.00  0.00    +0.004 A 
ATOM     16  C   UNL     1      -2.092  -6.907  -2.704  0.00  0.00    +0.049 A 
ATOM     17  C   UNL     1      -2.553  -6.827  -1.399  0.00  0.00    +0.162 A 
ATOM     18  C   UNL     1      -2.635  -5.589  -0.769  0.00  0.00    +0.163 A 
BRANCH  18  19
ATOM     19  O   UNL     1      -3.081  -5.505   0.513  0.00  0.00    -0.503 OA
ATOM     20  H   UNL     1      -4.038  -5.391   0.590  0.00  0.00    +0.292 HD
ENDBRANCH  18  19
BRANCH  17  21
ATOM     21  O   UNL     1      -2.918  -7.956  -0.735  0.00  0.00    -0.491 OA
ATOM     22  C   UNL     1      -2.801  -9.191  -1.443  0.00  0.00    +0.277 C 
ENDBRANCH  17  21
ENDBRANCH   1  13
BRANCH   1  23
ATOM     23  C   UNL     1      -3.749  -2.501  -1.016  0.00  0.00    -0.062 C 
BRANCH  23  24
ATOM     24  N   UNL     1      -3.853  -1.207  -0.328  0.00  0.00    +0.379 N 
ATOM     25  H   UNL     1      -3.525  -1.304   0.621  0.00  0.00    -0.090 HD
ATOM     26  H   UNL     1      -3.289  -0.524  -0.810  0.00  0.00    -0.090 HD
ATOM     27  H   UNL     1      -4.816  -0.905  -0.322  0.00  0.00    -0.090 HD
ENDBRANCH  23  24
ENDBRANCH   1  23
TORSDOF 6
