REMARK  Name = ZINC03288682
REMARK  6 active torsions:
REMARK  status: ('A' for Active; 'I' for Inactive)
REMARK    1  A    between atoms: C_1  and  C_2
REMARK    2  A    between atoms: C_3  and  C_20
REMARK    3  A    between atoms: C_9  and  C_13
REMARK    4  A    between atoms: C_13  and  N_41
REMARK    5  A    between atoms: C_14  and  C_15
REMARK    6  A    between atoms: C_14  and  N_41
REMARK                            x       y       z     vdW  Elec       q    Type
REMARK                         _______ _______ _______ _____ _____    ______ ____
ROOT
ATOM      1  C   UNL     1      -5.130   1.978   0.059  0.00  0.00    +0.052 C 
ATOM      2  C   UNL     1      -3.653   2.277   0.048  0.00  0.00    -0.003 A 
ATOM      3  C   UNL     1      -2.619   1.402   0.034  0.00  0.00    +0.007 A 
ATOM      4  C   UNL     1      -1.258   1.925   0.018  0.00  0.00    +0.080 A 
ATOM      5  C   UNL     1      -0.015   1.215   0.009  0.00  0.00    +0.260 A 
ATOM      6  O   UNL     1       0.002  -0.004   0.002  0.00  0.00    -0.267 OA
ATOM      7  N   UNL     1       1.136   1.914   0.002  0.00  0.00    -0.312 N 
ATOM      8  H   UNL     1       2.007   1.423  -0.009  0.00  0.00    +0.170 HD
ATOM      9  C   UNL     1       1.136   3.271   0.008  0.00  0.00    +0.094 A 
ATOM     10  N   UNL     1       0.018   3.947   0.022  0.00  0.00    -0.229 NA
ATOM     11  C   UNL     1      -1.158   3.325   0.030  0.00  0.00    +0.116 A 
ATOM     12  S   UNL     1      -2.847   3.867   0.048  0.00  0.00    -0.073 S 
ENDROOT
BRANCH   3  13
ATOM     13  C   UNL     1      -2.866  -0.060   0.029  0.00  0.00    -0.016 A 
ATOM     14  C   UNL     1      -2.465  -0.841   1.112  0.00  0.00    +0.008 A 
ATOM     15  C   UNL     1      -2.703  -2.200   1.103  0.00  0.00    +0.001 A 
ATOM     16  C   UNL     1      -3.327  -2.790   0.019  0.00  0.00    +0.000 A 
ATOM     17  C   UNL     1      -3.723  -2.020  -1.060  0.00  0.00    +0.001 A 
ATOM     18  C   UNL     1      -3.496  -0.659  -1.061  0.00  0.00    +0.008 A 
ENDBRANCH   3  13
BRANCH   9  19
ATOM     19  C   UNL     1       2.449   4.012  -0.000  0.00  0.00    -0.006 C 
BRANCH  19  20
ATOM     20  N   UNL     1       2.185   5.463   0.009  0.00  0.00    +0.388 N 
ATOM     21  H   UNL     1       1.654   5.705   0.854  0.00  0.00    -0.085 HD
ATOM     22  H   UNL     1       1.638   5.713  -0.823  0.00  0.00    -0.085 HD
BRANCH  20  23
ATOM     23  C   UNL     1       3.455   6.214   0.001  0.00  0.00    -0.006 C 
BRANCH  23  24
ATOM     24  C   UNL     1       3.155   7.691   0.012  0.00  0.00    +0.088 A 
ATOM     25  C   UNL     1       3.009   8.456   1.108  0.00  0.00    +0.042 A 
ATOM     26  C   UNL     1       2.739   9.769   0.658  0.00  0.00    +0.041 A 
ATOM     27  C   UNL     1       2.736   9.727  -0.686  0.00  0.00    +0.195 A 
ATOM     28  O   UNL     1       2.994   8.467  -1.072  0.00  0.00    -0.470 OA
ENDBRANCH  23  24
ENDBRANCH  20  23
ENDBRANCH  19  20
ENDBRANCH   9  19
TORSDOF 5
