REMARK  Name = ZINC65429709
REMARK  6 active torsions:
REMARK  status: ('A' for Active; 'I' for Inactive)
REMARK    1  A    between atoms: C_1  and  C_2
REMARK    2  A    between atoms: C_7  and  C_13
REMARK    3  A    between atoms: C_11  and  C_12
REMARK    4  A    between atoms: C_13  and  N_14
REMARK    5  A    between atoms: C_20  and  C_25
REMARK    6  A    between atoms: N_27  and  C_28
REMARK                            x       y       z     vdW  Elec       q    Type
REMARK                         _______ _______ _______ _____ _____    ______ ____
ROOT
ATOM      1  N   UNL     1       2.513  -4.385   1.438  0.00  0.00    -0.298 NA
ATOM      2  C   UNL     1       2.451  -4.252  -0.020  0.00  0.00    +0.090 C 
ATOM      3  C   UNL     1       3.552  -3.298  -0.519  0.00  0.00    +0.068 C 
ATOM      4  C   UNL     1       4.843  -3.785   0.106  0.00  0.00    +0.044 C 
ATOM      5  N   UNL     1       5.955  -4.034  -0.430  0.00  0.00    -0.195 NA
ATOM      6  N   UNL     1       6.900  -4.591   0.434  0.00  0.00    -0.256 N 
ATOM      7  C   UNL     1       6.281  -4.759   1.763  0.00  0.00    +0.184 C 
ATOM      8  C   UNL     1       4.920  -4.075   1.601  0.00  0.00    +0.080 C 
ATOM      9  C   UNL     1       3.755  -5.017   1.913  0.00  0.00    +0.096 C 
ATOM     10  H   UNL     1       7.811  -4.828   0.200  0.00  0.00    +0.169 HD
ENDROOT
BRANCH   7  11
ATOM     11  C   UNL     1       6.112  -6.220   2.091  0.00  0.00    +0.235 C 
ATOM     12  O   UNL     1       6.145  -7.048   1.205  0.00  0.00    -0.274 OA
ATOM     13  N   UNL     1       5.924  -6.607   3.368  0.00  0.00    -0.317 N 
ATOM     14  C   UNL     1       5.759  -8.027   3.687  0.00  0.00    +0.128 C 
ATOM     15  H   UNL     1       5.898  -5.945   4.077  0.00  0.00    +0.148 HD
ENDBRANCH   7  11
BRANCH   1  16
ATOM     16  C   UNL     1       1.332  -5.091   1.952  0.00  0.00    +0.131 C 
BRANCH  16  23
ATOM     17  C   UNL     1       0.473   1.746   0.692  0.00  0.00    +0.044 C 
ATOM     18  C   UNL     1       0.277   0.254   0.622  0.00  0.00    -0.045 A 
ATOM     19  C   UNL     1      -0.136  -0.316  -0.596  0.00  0.00    +0.006 A 
ATOM     20  C   UNL     1      -0.335  -1.641  -0.748  0.00  0.00    +0.027 A 
ATOM     21  C   UNL     1      -0.119  -2.542   0.392  0.00  0.00    +0.060 A 
ATOM     22  N   UNL     1      -0.231  -3.831   0.535  0.00  0.00    -0.362 N 
ATOM     23  C   UNL     1       0.124  -4.153   1.923  0.00  0.00    +0.188 C 
ATOM     24  N   UNL     1       0.459  -2.878   2.571  0.00  0.00    -0.362 N 
ATOM     25  C   UNL     1       0.318  -1.939   1.681  0.00  0.00    +0.063 A 
ATOM     26  C   UNL     1       0.509  -0.482   1.727  0.00  0.00    -0.023 A 
ATOM     27  C   UNL     1       0.955   0.184   3.002  0.00  0.00    +0.046 C 
ATOM     28  H   UNL     1       0.735  -2.758   3.494  0.00  0.00    +0.162 HD
ATOM     29  H   UNL     1      -0.500  -4.463  -0.149  0.00  0.00    +0.162 HD
ENDBRANCH  16  23
ENDBRANCH   1  16
TORSDOF 3
