REMARK  Name = ZINC36256193
REMARK  9 active torsions:
REMARK  status: ('A' for Active; 'I' for Inactive)
REMARK    1  A    between atoms: C_1  and  C_2
REMARK    2  A    between atoms: C_2  and  C_3
REMARK    3  A    between atoms: C_2  and  C_4
REMARK    4  A    between atoms: C_5  and  C_20
REMARK    5  A    between atoms: C_7  and  C_12
REMARK    6  A    between atoms: C_17  and  O_18
REMARK    7  A    between atoms: O_18  and  C_19
REMARK    8  A    between atoms: C_20  and  C_21
REMARK    9  A    between atoms: C_21  and  N_22
REMARK                            x       y       z     vdW  Elec       q    Type
REMARK                         _______ _______ _______ _____ _____    ______ ____
ROOT
ATOM      1  C   UNL     1      -1.412  -0.526   0.013  0.00  0.00    +0.066 A 
ATOM      2  C   UNL     1      -1.968  -1.308  -0.927  0.00  0.00    +0.046 A 
ATOM      3  N   UNL     1      -3.281  -1.564  -0.542  0.00  0.00    -0.290 N 
ATOM      4  C   UNL     1      -4.377  -2.264  -1.016  0.00  0.00    +0.066 A 
ATOM      5  C   UNL     1      -5.530  -2.270  -0.321  0.00  0.00    +0.075 A 
ATOM      6  S   UNL     1      -5.118  -1.254   1.089  0.00  0.00    -0.057 S 
ATOM      7  C   UNL     1      -3.435  -0.897   0.644  0.00  0.00    +0.178 A 
ATOM      8  N   UNL     1      -2.327  -0.292   0.966  0.00  0.00    -0.226 NA
ENDROOT
BRANCH   4   9
ATOM      9  C   UNL     1      -4.281  -3.006  -2.291  0.00  0.00    +0.041 A 
ATOM     10  C   UNL     1      -4.288  -2.319  -3.505  0.00  0.00    +0.013 A 
ATOM     11  C   UNL     1      -4.197  -3.018  -4.692  0.00  0.00    +0.001 A 
ATOM     12  C   UNL     1      -4.101  -4.398  -4.682  0.00  0.00    +0.004 A 
ATOM     13  C   UNL     1      -4.094  -5.090  -3.485  0.00  0.00    +0.046 A 
ATOM     14  C   UNL     1      -4.178  -4.402  -2.286  0.00  0.00    +0.129 A 
BRANCH  14  15
ATOM     15  O   UNL     1      -4.165  -5.081  -1.108  0.00  0.00    -0.494 OA
ATOM     16  C   UNL     1      -4.057  -6.504  -1.181  0.00  0.00    +0.277 C 
ENDBRANCH  14  15
ENDBRANCH   4   9
BRANCH   1  18
ATOM     17  C   UNL     1      -0.019   1.526   0.010  0.00  0.00    +0.014 C 
ATOM     18  C   UNL     1       0.002  -0.004   0.002  0.00  0.00    +0.033 C 
ATOM     19  C   UNL     1       0.742  -0.511   1.242  0.00  0.00    +0.014 C 
ENDBRANCH   1  18
BRANCH   2  20
ATOM     20  C   UNL     1      -1.292  -1.817  -2.174  0.00  0.00    +0.036 C 
BRANCH  20  21
ATOM     21  C   UNL     1      -1.501  -0.817  -3.312  0.00  0.00    -0.080 C 
BRANCH  21  22
ATOM     22  N   UNL     1      -0.842  -1.313  -4.528  0.00  0.00    +0.378 N 
ATOM     23  H   UNL     1       0.146  -1.423  -4.354  0.00  0.00    -0.090 HD
ATOM     24  H   UNL     1      -1.239  -2.204  -4.786  0.00  0.00    -0.090 HD
ATOM     25  H   UNL     1      -0.980  -0.654  -5.279  0.00  0.00    -0.090 HD
ENDBRANCH  21  22
ENDBRANCH  20  21
ENDBRANCH   2  20
TORSDOF 6
