REMARK  Name = ZINC52332723
REMARK  9 active torsions:
REMARK  status: ('A' for Active; 'I' for Inactive)
REMARK    1  A    between atoms: C_1  and  C_2
REMARK    2  A    between atoms: C_2  and  C_4
REMARK    3  A    between atoms: C_2  and  N_13
REMARK    4  A    between atoms: C_7  and  O_12
REMARK    5  A    between atoms: C_8  and  O_10
REMARK    6  A    between atoms: O_10  and  C_11
REMARK    7  A    between atoms: N_13  and  C_14
REMARK    8  A    between atoms: C_14  and  C_16
REMARK    9  A    between atoms: C_14  and  C_17
REMARK                            x       y       z     vdW  Elec       q    Type
REMARK                         _______ _______ _______ _____ _____    ______ ____
ROOT
ATOM      1  C   UNL     1      -0.019   1.526   0.010  0.00  0.00    -0.009 C 
ATOM      2  C   UNL     1       0.002  -0.004   0.002  0.00  0.00    -0.044 C 
ENDROOT
BRANCH   2   3
ATOM      3  C   UNL     1       0.731  -0.503   1.223  0.00  0.00    -0.058 A 
ATOM      4  C   UNL     1       0.079  -0.558   2.441  0.00  0.00    +0.006 A 
ATOM      5  C   UNL     1       0.744  -1.015   3.564  0.00  0.00    +0.049 A 
ATOM      6  C   UNL     1       2.065  -1.420   3.470  0.00  0.00    +0.158 A 
ATOM      7  C   UNL     1       2.721  -1.366   2.244  0.00  0.00    +0.161 A 
ATOM      8  C   UNL     1       2.048  -0.911   1.121  0.00  0.00    +0.051 A 
BRANCH   7   9
ATOM      9  O   UNL     1       4.018  -1.762   2.147  0.00  0.00    -0.491 OA
ATOM     10  C   UNL     1       4.627  -1.679   0.857  0.00  0.00    +0.277 C 
ENDBRANCH   7   9
BRANCH   6  11
ATOM     11  O   UNL     1       2.720  -1.870   4.574  0.00  0.00    -0.503 OA
ATOM     12  H   UNL     1       2.645  -2.824   4.715  0.00  0.00    +0.292 HD
ENDBRANCH   6  11
ENDBRANCH   2   3
BRANCH   2  13
ATOM     13  N   UNL     1      -1.376  -0.512   0.012  0.00  0.00    +0.385 N 
ATOM     14  H   UNL     1      -1.363  -1.518   0.090  0.00  0.00    -0.085 HD
ATOM     15  H   UNL     1      -1.873  -0.121   0.799  0.00  0.00    -0.085 HD
BRANCH  13  16
ATOM     16  C   UNL     1      -2.050  -0.126  -1.234  0.00  0.00    -0.071 C 
ATOM     17  C   UNL     1      -1.371  -0.820  -2.417  0.00  0.00    -0.013 C 
BRANCH  16  18
ATOM     18  C   UNL     1      -3.520  -0.547  -1.171  0.00  0.00    -0.025 C 
ATOM     19  C   UNL     1      -4.198   0.147   0.012  0.00  0.00    +0.002 C 
ATOM     20  C   UNL     1      -5.668  -0.273   0.075  0.00  0.00    +0.000 C 
ATOM     21  C   UNL     1      -6.370   0.129  -1.224  0.00  0.00    +0.000 C 
ATOM     22  C   UNL     1      -5.691  -0.565  -2.406  0.00  0.00    +0.000 C 
ATOM     23  C   UNL     1      -4.222  -0.144  -2.470  0.00  0.00    +0.002 C 
ENDBRANCH  16  18
ENDBRANCH  13  16
ENDBRANCH   2  13
TORSDOF 6
