REMARK  Name = ZINC18199999
REMARK  3 active torsions:
REMARK  status: ('A' for Active; 'I' for Inactive)
REMARK    1  A    between atoms: C_4  and  N_7
REMARK    2  A    between atoms: C_17  and  C_19
REMARK    3  A    between atoms: C_27  and  C_30
REMARK                            x       y       z     vdW  Elec       q    Type
REMARK                         _______ _______ _______ _____ _____    ______ ____
ROOT
ATOM      1  N   UNL     1       3.621  -0.650  -0.037  0.00  0.00    -0.218 N 
ATOM      2  C   UNL     1       3.782  -1.992  -0.051  0.00  0.00    +0.278 A 
ATOM      3  O   UNL     1       2.889  -2.821  -0.053  0.00  0.00    -0.265 OA
ATOM      4  C   UNL     1       5.151  -2.258  -0.065  0.00  0.00    +0.070 A 
ATOM      5  C   UNL     1       5.818  -1.059  -0.061  0.00  0.00    +0.125 A 
ATOM      6  N   UNL     1       4.895  -0.059  -0.048  0.00  0.00    -0.277 N 
ATOM      7  H   UNL     1       5.084   0.892  -0.044  0.00  0.00    +0.189 HD
ATOM      8  N   UNL     1       7.191  -1.003  -0.079  0.00  0.00    -0.303 N 
ATOM      9  C   UNL     1       7.894  -2.139  -0.409  0.00  0.00    +0.017 C 
ATOM     10  C   UNL     1       7.325  -3.361  -0.424  0.00  0.00    +0.025 C 
ATOM     11  C   UNL     1       5.868  -3.579  -0.079  0.00  0.00    +0.099 C 
ATOM     12  C   UNL     1       8.075  -4.504  -0.763  0.00  0.00    +0.162 C 
ATOM     13  O   UNL     1       7.526  -5.587  -0.791  0.00  0.00    -0.292 OA
ATOM     14  C   UNL     1       9.540  -4.414  -1.089  0.00  0.00    +0.091 C 
ATOM     15  C   UNL     1      10.138  -3.208  -0.357  0.00  0.00    +0.068 C 
ATOM     16  C   UNL     1       9.353  -1.961  -0.765  0.00  0.00    +0.063 C 
ATOM     17  H   UNL     1       7.655  -0.178   0.136  0.00  0.00    +0.153 HD
ENDROOT
BRANCH   1  21
ATOM     18  C   UNL     1      -0.017   1.379   0.010  0.00  0.00    +0.000 A 
ATOM     19  C   UNL     1       1.170   2.089   0.002  0.00  0.00    +0.002 A 
ATOM     20  C   UNL     1       2.377   1.420  -0.013  0.00  0.00    +0.028 A 
ATOM     21  C   UNL     1       2.400   0.031  -0.021  0.00  0.00    +0.067 A 
ATOM     22  C   UNL     1       1.206  -0.680  -0.013  0.00  0.00    +0.028 A 
ATOM     23  C   UNL     1       0.002  -0.004   0.002  0.00  0.00    +0.002 A 
ENDBRANCH   1  21
BRANCH  11  24
ATOM     24  C   UNL     1       5.765  -4.220   1.281  0.00  0.00    +0.002 A 
ATOM     25  C   UNL     1       5.220  -5.413   1.624  0.00  0.00    +0.012 A 
ATOM     26  C   UNL     1       5.238  -5.803   2.950  0.00  0.00    +0.008 A 
ATOM     27  C   UNL     1       5.802  -4.981   3.869  0.00  0.00    +0.045 A 
ATOM     28  S   UNL     1       6.336  -3.610   2.859  0.00  0.00    -0.101 S 
ENDBRANCH  11  24
BRANCH  15  29
ATOM     29  C   UNL     1      11.586  -3.047  -0.743  0.00  0.00    +0.109 A 
ATOM     30  C   UNL     1      12.634  -3.094   0.099  0.00  0.00    +0.045 A 
ATOM     31  C   UNL     1      13.796  -2.896  -0.682  0.00  0.00    +0.041 A 
ATOM     32  C   UNL     1      13.388  -2.739  -1.955  0.00  0.00    +0.195 A 
ATOM     33  O   UNL     1      12.049  -2.838  -1.986  0.00  0.00    -0.468 OA
ENDBRANCH  15  29
TORSDOF 3
