REMARK  Name = ZINC10341558
REMARK  5 active torsions:
REMARK  status: ('A' for Active; 'I' for Inactive)
REMARK    1  A    between atoms: C_1  and  C_2
REMARK    2  A    between atoms: C_7  and  N_12
REMARK    3  A    between atoms: C_9  and  C_11
REMARK    4  A    between atoms: C_16  and  C_18
REMARK    5  A    between atoms: C_18  and  N_51
REMARK                            x       y       z     vdW  Elec       q    Type
REMARK                         _______ _______ _______ _____ _____    ______ ____
ROOT
ATOM      1  N   UNL     1      -1.159   1.835  -0.564  0.00  0.00    -0.296 N 
ATOM      2  C   UNL     1       0.027   1.196  -0.548  0.00  0.00    +0.306 C 
ATOM      3  O   UNL     1       0.076  -0.001  -0.757  0.00  0.00    -0.252 OA
ATOM      4  N   UNL     1       1.161   1.883  -0.305  0.00  0.00    -0.242 N 
ATOM      5  C   UNL     1       2.347   1.245  -0.293  0.00  0.00    +0.204 C 
ATOM      6  O   UNL     1       2.396   0.052  -0.502  0.00  0.00    -0.277 OA
ATOM      7  H   UNL     1      -1.198   2.790  -0.398  0.00  0.00    +0.151 HD
ATOM      8  H   UNL     1       1.122   2.838  -0.138  0.00  0.00    +0.159 HD
ENDROOT
BRANCH   1  14
ATOM      9  C   UNL     1      -6.054   1.777   0.129  0.00  0.00    +0.008 C 
ATOM     10  C   UNL     1      -4.865   1.043  -0.494  0.00  0.00    -0.009 C 
ATOM     11  C   UNL     1      -5.071   0.929  -2.006  0.00  0.00    +0.003 C 
ATOM     12  C   UNL     1      -3.882   0.195  -2.629  0.00  0.00    +0.002 C 
ATOM     13  C   UNL     1      -2.596   0.975  -2.346  0.00  0.00    +0.022 C 
ATOM     14  C   UNL     1      -2.390   1.088  -0.835  0.00  0.00    +0.078 C 
ATOM     15  C   UNL     1      -3.579   1.823  -0.212  0.00  0.00    +0.009 C 
ATOM     16  C   UNL     1      -3.373   1.936   1.300  0.00  0.00    +0.009 C 
ENDBRANCH   1  14
BRANCH   5  17
ATOM     17  C   UNL     1       3.614   2.014  -0.022  0.00  0.00    +0.019 C 
BRANCH  17  26
ATOM     18  C   UNL     1       4.604   0.217   1.266  0.00  0.00    -0.073 C 
ATOM     19  C   UNL     1       5.549  -0.987   1.116  0.00  0.00    +0.024 C 
ATOM     20  C   UNL     1       6.881  -0.468   0.683  0.00  0.00    -0.011 A 
ATOM     21  C   UNL     1       7.153   0.778   0.205  0.00  0.00    -0.054 A 
ATOM     22  C   UNL     1       8.478   1.039  -0.136  0.00  0.00    +0.009 A 
ATOM     23  C   UNL     1       9.417   0.076   0.013  0.00  0.00    +0.045 A 
ATOM     24  S   UNL     1       8.453  -1.283   0.660  0.00  0.00    -0.101 S 
ATOM     25  C   UNL     1       6.024   1.796   0.070  0.00  0.00    -0.042 C 
ATOM     26  N   UNL     1       4.738   1.060   0.053  0.00  0.00    +0.388 N 
ATOM     27  H   UNL     1       4.715   0.453  -0.775  0.00  0.00    -0.081 HD
ENDBRANCH  17  26
ENDBRANCH   5  17
TORSDOF 3
