REMARK  Name = ZINC64129503
REMARK  4 active torsions:
REMARK  status: ('A' for Active; 'I' for Inactive)
REMARK    1  A    between atoms: C_4  and  C_7
REMARK    2  A    between atoms: C_7  and  N_8
REMARK    3  A    between atoms: N_11  and  C_14
REMARK    4  A    between atoms: C_20  and  O_21
REMARK                            x       y       z     vdW  Elec       q    Type
REMARK                         _______ _______ _______ _____ _____    ______ ____
ROOT
ATOM      1  N   UNL     1       2.727  -1.952  -2.509  0.00  0.00    +0.382 N 
ATOM      2  C   UNL     1       1.469  -2.531  -2.997  0.00  0.00    -0.063 C 
ATOM      3  C   UNL     1       1.595  -4.056  -3.048  0.00  0.00    +0.066 C 
ATOM      4  N   UNL     1       2.702  -4.423  -3.942  0.00  0.00    -0.299 NA
ATOM      5  C   UNL     1       3.965  -3.829  -3.480  0.00  0.00    +0.066 C 
ATOM      6  C   UNL     1       3.819  -2.307  -3.425  0.00  0.00    -0.063 C 
ATOM      7  H   UNL     1       2.929  -2.314  -1.589  0.00  0.00    -0.082 HD
ENDROOT
BRANCH   4   8
ATOM      8  C   UNL     1       2.820  -5.882  -4.063  0.00  0.00    +0.107 C 
ATOM      9  C   UNL     1       3.315  -6.450  -2.714  0.00  0.00    +0.187 C 
ATOM     10  S   UNL     1       4.418  -7.817  -3.282  0.00  0.00    -0.027 S 
ATOM     11  O   UNL     1       3.632  -8.962  -3.582  0.00  0.00    -0.174 OA
ATOM     12  O   UNL     1       5.521  -7.932  -2.393  0.00  0.00    -0.174 OA
ATOM     13  C   UNL     1       4.979  -7.030  -4.855  0.00  0.00    +0.198 C 
ATOM     14  C   UNL     1       3.732  -6.200  -5.237  0.00  0.00    +0.154 C 
BRANCH  14  15
ATOM     15  O   UNL     1       4.165  -4.972  -5.825  0.00  0.00    -0.389 OA
ATOM     16  H   UNL     1       4.753  -5.084  -6.584  0.00  0.00    +0.210 HD
ENDBRANCH  14  15
ENDBRANCH   4   8
BRANCH   1  17
ATOM     17  C   UNL     1       2.599  -0.490  -2.443  0.00  0.00    -0.075 C 
BRANCH  17  21
ATOM     18  C   UNL     1       5.114   1.724   0.296  0.00  0.00    +0.000 C 
ATOM     19  C   UNL     1       5.006   2.221  -1.146  0.00  0.00    +0.000 C 
ATOM     20  C   UNL     1       3.755   1.629  -1.798  0.00  0.00    +0.002 C 
ATOM     21  C   UNL     1       3.851   0.102  -1.791  0.00  0.00    -0.028 C 
ATOM     22  C   UNL     1       3.958  -0.395  -0.348  0.00  0.00    +0.002 C 
ATOM     23  C   UNL     1       5.209   0.197   0.304  0.00  0.00    +0.000 C 
ENDBRANCH  17  21
ENDBRANCH   1  17
TORSDOF 4
