REMARK  Name = ZINC42457822
REMARK  8 active torsions:
REMARK  status: ('A' for Active; 'I' for Inactive)
REMARK    1  A    between atoms: C_1  and  C_2
REMARK    2  A    between atoms: C_2  and  C_4
REMARK    3  A    between atoms: C_2  and  C_16
REMARK    4  A    between atoms: C_4  and  N_5
REMARK    5  A    between atoms: N_5  and  C_6
REMARK    6  A    between atoms: N_5  and  C_7
REMARK    7  A    between atoms: C_7  and  C_8
REMARK    8  A    between atoms: N_17  and  O_18
REMARK                            x       y       z     vdW  Elec       q    Type
REMARK                         _______ _______ _______ _____ _____    ______ ____
ROOT
ATOM      1  N   UNL     1       2.067   0.239   1.370  0.00  0.00    +0.381 N 
ATOM      2  C   UNL     1       1.959   1.662   1.720  0.00  0.00    -0.096 C 
ATOM      3  H   UNL     1       2.514   0.147   0.470  0.00  0.00    -0.082 HD
ENDROOT
BRANCH   1   4
ATOM      4  C   UNL     1       0.725  -0.354   1.312  0.00  0.00    -0.068 C 
BRANCH   4   6
ATOM      5  C   UNL     1      -1.489  -0.276   0.157  0.00  0.00    +0.013 C 
ATOM      6  C   UNL     1      -0.062   0.275   0.161  0.00  0.00    +0.036 C 
BRANCH   6   7
ATOM      7  C   UNL     1       0.609  -0.060  -1.147  0.00  0.00    +0.133 C 
ATOM      8  N   UNL     1       0.209  -1.076  -1.837  0.00  0.00    -0.077 NA
ATOM      9  N   UNL     1       1.648   0.719  -1.606  0.00  0.00    -0.344 N 
ATOM     10  H   UNL     1       1.948   1.482  -1.088  0.00  0.00    +0.144 HD
ATOM     11  H   UNL     1       2.080   0.503  -2.448  0.00  0.00    +0.144 HD
BRANCH   8  12
ATOM     12  O   UNL     1       0.839  -1.390  -3.065  0.00  0.00    -0.408 OA
ATOM     13  H   UNL     1       0.472  -2.167  -3.509  0.00  0.00    +0.328 HD
ENDBRANCH   8  12
ENDBRANCH   6   7
ENDBRANCH   4   6
ENDBRANCH   1   4
BRANCH   1  14
ATOM     14  C   UNL     1       2.866  -0.456   2.388  0.00  0.00    -0.042 C 
BRANCH  14  15
ATOM     15  C   UNL     1       4.283   0.056   2.350  0.00  0.00    -0.050 A 
ATOM     16  C   UNL     1       4.724   0.942   3.316  0.00  0.00    +0.005 A 
ATOM     17  C   UNL     1       6.023   1.412   3.282  0.00  0.00    +0.038 A 
ATOM     18  C   UNL     1       6.884   0.995   2.281  0.00  0.00    +0.124 A 
ATOM     19  C   UNL     1       6.443   0.108   1.314  0.00  0.00    +0.053 A 
ATOM     20  C   UNL     1       5.144  -0.365   1.353  0.00  0.00    +0.022 A 
ATOM     21 BR   UNL     1       4.542  -1.583   0.037  0.00  0.00    -0.050 Br
ATOM     22  F   UNL     1       8.154   1.454   2.248  0.00  0.00    -0.205 F 
ENDBRANCH  14  15
ENDBRANCH   1  14
TORSDOF 6
