REMARK  Name = ZINC00588144
REMARK  4 active torsions:
REMARK  status: ('A' for Active; 'I' for Inactive)
REMARK    1  A    between atoms: C_5  and  C_7
REMARK    2  A    between atoms: N_8  and  C_9
REMARK    3  A    between atoms: C_12  and  S_15
REMARK    4  A    between atoms: S_15  and  N_18
REMARK                            x       y       z     vdW  Elec       q    Type
REMARK                         _______ _______ _______ _____ _____    ______ ____
ROOT
ATOM      1  C   UNL     1       2.074  -1.043   0.090  0.00  0.00    +0.064 A 
ATOM      2  C   UNL     1       0.854  -0.491  -0.307  0.00  0.00    +0.029 A 
ATOM      3  C   UNL     1       0.744   0.871  -0.491  0.00  0.00    +0.031 A 
ATOM      4  C   UNL     1       1.839   1.691  -0.282  0.00  0.00    +0.111 A 
ATOM      5  C   UNL     1       3.051   1.151   0.112  0.00  0.00    +0.031 A 
ATOM      6  C   UNL     1       3.175  -0.210   0.299  0.00  0.00    +0.029 A 
ENDROOT
BRANCH   4   7
ATOM      7  S   UNL     1       1.690   3.431  -0.519  0.00  0.00    +0.080 S 
ATOM      8  O   UNL     1       2.998   3.917  -0.789  0.00  0.00    -0.148 OA
ATOM      9  O   UNL     1       0.605   3.627  -1.414  0.00  0.00    -0.148 OA
BRANCH   7  10
ATOM     10  N   UNL     1       1.232   4.085   0.932  0.00  0.00    -0.228 N 
ATOM     11  C   UNL     1       2.080   4.024   2.012  0.00  0.00    +0.186 C 
ATOM     12  H   UNL     1       3.913   3.358   2.599  0.00  0.00    +0.159 HD
ATOM     13  N   UNL     1       1.700   4.567   3.216  0.00  0.00    -0.370 N 
ATOM     14  H   UNL     1       0.365   4.511   1.019  0.00  0.00    +0.191 HD
ATOM     15  H   UNL     1       0.833   4.993   3.304  0.00  0.00    +0.159 HD
ATOM     16  H   UNL     1       2.298   4.524   3.979  0.00  0.00    +0.159 HD
ATOM     17  N   UNL     1       3.249   3.428   1.828  0.00  0.00    -0.370 N 
ATOM     18  H   UNL     1       3.487   3.038   0.908  0.00  0.00    +0.159 HD
ENDBRANCH   7  10
ENDBRANCH   4   7
BRANCH   1  20
ATOM     19  C   UNL     1       3.222  -3.031  -0.203  0.00  0.00    +0.120 C 
ATOM     20  N   UNL     1       2.189  -2.394   0.274  0.00  0.00    -0.255 NA
BRANCH  19  25
ATOM     21  C   UNL     1       4.562  -6.532  -0.327  0.00  0.00    +0.001 A 
ATOM     22  C   UNL     1       3.581  -7.220   0.366  0.00  0.00    +0.001 A 
ATOM     23  C   UNL     1       2.483  -6.549   0.875  0.00  0.00    +0.020 A 
ATOM     24  C   UNL     1       2.358  -5.186   0.694  0.00  0.00    +0.050 A 
ATOM     25  C   UNL     1       3.346  -4.484  -0.005  0.00  0.00    +0.011 A 
ATOM     26  C   UNL     1       4.450  -5.171  -0.521  0.00  0.00    +0.011 A 
ATOM     27 CL   UNL     1       0.980  -4.346   1.332  0.00  0.00    -0.083 Cl
ENDBRANCH  19  25
ENDBRANCH   1  20
TORSDOF 4
