REMARK  Name = ZINC15906413
REMARK  6 active torsions:
REMARK  status: ('A' for Active; 'I' for Inactive)
REMARK    1  A    between atoms: C_4  and  C_7
REMARK    2  A    between atoms: N_12  and  C_13
REMARK    3  A    between atoms: N_15  and  C_16
REMARK    4  A    between atoms: C_16  and  C_27
REMARK    5  A    between atoms: N_17  and  S_18
REMARK    6  A    between atoms: S_18  and  C_21
REMARK                            x       y       z     vdW  Elec       q    Type
REMARK                         _______ _______ _______ _____ _____    ______ ____
ROOT
ATOM      1  C   UNL     1       8.856  -3.976   0.004  0.00  0.00    +0.184 C 
ATOM      2  N   UNL     1       8.963  -5.280  -0.096  0.00  0.00    -0.108 NA
ENDROOT
BRANCH   1   3
ATOM      3  C   UNL     1      10.075  -3.136   0.099  0.00  0.00    +0.021 A 
ATOM      4  C   UNL     1      10.944  -3.040  -0.987  0.00  0.00    +0.011 A 
ATOM      5  C   UNL     1      12.076  -2.257  -0.893  0.00  0.00    +0.001 A 
ATOM      6  C   UNL     1      12.350  -1.569   0.275  0.00  0.00    +0.000 A 
ATOM      7  C   UNL     1      11.492  -1.660   1.355  0.00  0.00    +0.001 A 
ATOM      8  C   UNL     1      10.353  -2.436   1.271  0.00  0.00    +0.011 A 
ENDBRANCH   1   3
BRANCH   1  11
ATOM      9  C   UNL     1       6.547  -4.154  -0.062  0.00  0.00    +0.203 C 
ATOM     10  S   UNL     1       6.691  -5.905  -0.198  0.00  0.00    -0.009 SA
ATOM     11  N   UNL     1       7.640  -3.401   0.022  0.00  0.00    -0.200 NA
BRANCH   9  17
ATOM     12  C   UNL     1       4.208  -0.150   0.202  0.00  0.00    +0.055 A 
ATOM     13  C   UNL     1       5.461   0.353   0.270  0.00  0.00    +0.075 A 
ATOM     14  S   UNL     1       6.459  -1.121   0.176  0.00  0.00    -0.058 S 
ATOM     15  C   UNL     1       5.229  -2.261   0.058  0.00  0.00    +0.174 A 
ATOM     16  N   UNL     1       4.094  -1.509   0.098  0.00  0.00    -0.333 N 
ATOM     17  N   UNL     1       5.338  -3.582  -0.044  0.00  0.00    -0.197 NA
ATOM     18  H   UNL     1       3.221  -1.929   0.050  0.00  0.00    +0.168 HD
BRANCH  12  22
ATOM     19  C   UNL     1       0.789   2.368   0.325  0.00  0.00    +0.000 A 
ATOM     20  C   UNL     1       2.055   2.921   0.391  0.00  0.00    +0.001 A 
ATOM     21  C   UNL     1       3.169   2.109   0.352  0.00  0.00    +0.010 A 
ATOM     22  C   UNL     1       3.018   0.726   0.245  0.00  0.00    -0.001 A 
ATOM     23  C   UNL     1       1.738   0.174   0.178  0.00  0.00    +0.010 A 
ATOM     24  C   UNL     1       0.632   0.997   0.218  0.00  0.00    +0.001 A 
ENDBRANCH  12  22
ENDBRANCH   9  17
ENDBRANCH   1  11
BRANCH   2  25
ATOM     25  S   UNL     1      10.459  -5.981  -0.213  0.00  0.00    +0.101 S 
ATOM     26  O   UNL     1      11.008  -5.561  -1.455  0.00  0.00    -0.146 OA
ATOM     27  O   UNL     1      11.114  -5.749   1.026  0.00  0.00    -0.146 OA
BRANCH  25  28
ATOM     28  C   UNL     1      10.211  -7.721  -0.334  0.00  0.00    +0.113 A 
ATOM     29  C   UNL     1      10.160  -8.493   0.811  0.00  0.00    +0.029 A 
ATOM     30  C   UNL     1       9.965  -9.858   0.717  0.00  0.00    +0.002 A 
ATOM     31  C   UNL     1       9.822 -10.452  -0.523  0.00  0.00    +0.000 A 
ATOM     32  C   UNL     1       9.873  -9.680  -1.669  0.00  0.00    +0.002 A 
ATOM     33  C   UNL     1      10.063  -8.314  -1.574  0.00  0.00    +0.029 A 
ENDBRANCH  25  28
ENDBRANCH   2  25
TORSDOF 6
