REMARK  Name = ZINC02210780
REMARK  2 active torsions:
REMARK  status: ('A' for Active; 'I' for Inactive)
REMARK    1  A    between atoms: C_15  and  C_17
REMARK    2  A    between atoms: C_20  and  O_23
REMARK                            x       y       z     vdW  Elec       q    Type
REMARK                         _______ _______ _______ _____ _____    ______ ____
ROOT
ATOM      1  C   UNL     1       5.532   4.553  -0.024  0.00  0.00    +0.001 A 
ATOM      2  C   UNL     1       5.829   3.197  -0.033  0.00  0.00    +0.004 A 
ATOM      3  C   UNL     1       4.824   2.254  -0.029  0.00  0.00    +0.047 A 
ATOM      4  C   UNL     1       3.493   2.660  -0.016  0.00  0.00    +0.139 A 
ATOM      5  C   UNL     1       3.202   4.035  -0.006  0.00  0.00    +0.064 A 
ATOM      6  C   UNL     1       4.231   4.975  -0.010  0.00  0.00    +0.015 A 
ATOM      7  C   UNL     1       1.784   4.445   0.009  0.00  0.00    +0.199 A 
ATOM      8  O   UNL     1       1.458   5.619   0.018  0.00  0.00    -0.287 OA
ATOM      9  C   UNL     1       0.788   3.370   0.012  0.00  0.00    +0.072 A 
ATOM     10  C   UNL     1       1.192   2.076   0.002  0.00  0.00    +0.199 A 
ATOM     11  O   UNL     1       2.500   1.752  -0.013  0.00  0.00    -0.450 OA
ATOM     12  C   UNL     1      -0.014   1.211   0.009  0.00  0.00    +0.281 C 
ATOM     13  O   UNL     1       0.002  -0.004   0.002  0.00  0.00    -0.267 OA
ATOM     14  N   UNL     1      -1.127   1.964   0.018  0.00  0.00    -0.298 N 
ATOM     15  C   UNL     1      -0.719   3.374   0.026  0.00  0.00    +0.141 C 
ATOM     16  H   UNL     1      -2.040   1.635   0.020  0.00  0.00    +0.150 HD
ENDROOT
BRANCH  15  17
ATOM     17  C   UNL     1      -1.224   4.060   1.269  0.00  0.00    -0.022 A 
ATOM     18  C   UNL     1      -1.263   3.373   2.469  0.00  0.00    +0.009 A 
ATOM     19  C   UNL     1      -1.720   4.001   3.611  0.00  0.00    +0.046 A 
ATOM     20  C   UNL     1      -2.152   5.318   3.552  0.00  0.00    +0.117 A 
ATOM     21  C   UNL     1      -2.118   6.003   2.346  0.00  0.00    +0.046 A 
ATOM     22  C   UNL     1      -1.654   5.373   1.208  0.00  0.00    +0.009 A 
BRANCH  20  23
ATOM     23  O   UNL     1      -2.609   5.936   4.673  0.00  0.00    -0.507 OA
ATOM     24  H   UNL     1      -3.560   5.838   4.816  0.00  0.00    +0.292 HD
ENDBRANCH  20  23
ENDBRANCH  15  17
TORSDOF 2
