REMARK  Name = ZINC08791729
REMARK  6 active torsions:
REMARK  status: ('A' for Active; 'I' for Inactive)
REMARK    1  A    between atoms: C_1  and  O_2
REMARK    2  A    between atoms: O_2  and  C_3
REMARK    3  A    between atoms: C_3  and  C_4
REMARK    4  A    between atoms: C_4  and  N_5
REMARK    5  A    between atoms: C_10  and  C_26
REMARK    6  A    between atoms: C_26  and  C_27
REMARK                            x       y       z     vdW  Elec       q    Type
REMARK                         _______ _______ _______ _____ _____    ______ ____
ROOT
ATOM      1  N   UNL     1      -3.420   3.235   2.619  0.00  0.00    -0.240 N 
ATOM      2  C   UNL     1      -2.313   3.984   2.668  0.00  0.00    +0.224 C 
ATOM      3  O   UNL     1      -1.179   3.557   2.690  0.00  0.00    -0.275 OA
ATOM      4  C   UNL     1      -2.696   5.446   2.688  0.00  0.00    +0.073 C 
ATOM      5  C   UNL     1      -2.338   6.044   4.065  0.00  0.00    -0.053 C 
ATOM      6  C   UNL     1      -4.672   5.979   4.020  0.00  0.00    +0.050 C 
ATOM      7  C   UNL     1      -4.250   5.410   2.660  0.00  0.00    +0.088 C 
ATOM      8  C   UNL     1      -4.562   3.931   2.610  0.00  0.00    +0.225 C 
ATOM      9  O   UNL     1      -5.675   3.452   2.568  0.00  0.00    -0.275 OA
ATOM     10  C   UNL     1      -5.911   5.304   4.538  0.00  0.00    -0.028 A 
ATOM     11  C   UNL     1      -6.222   3.998   4.843  0.00  0.00    +0.004 A 
ATOM     12  C   UNL     1      -7.485   3.679   5.311  0.00  0.00    +0.000 A 
ATOM     13  C   UNL     1      -8.432   4.674   5.470  0.00  0.00    +0.002 A 
ATOM     14  C   UNL     1      -8.124   5.983   5.167  0.00  0.00    +0.023 A 
ATOM     15  C   UNL     1      -6.856   6.314   4.696  0.00  0.00    +0.036 A 
ATOM     16  N   UNL     1      -6.312   7.547   4.327  0.00  0.00    -0.286 N 
ATOM     17  C   UNL     1      -5.033   7.436   3.918  0.00  0.00    +0.211 C 
ATOM     18  O   UNL     1      -4.313   8.336   3.541  0.00  0.00    -0.277 OA
ATOM     19  H   UNL     1      -6.799   8.385   4.361  0.00  0.00    +0.155 HD
ATOM     20  N   UNL     1      -3.522   5.780   4.885  0.00  0.00    +0.394 N 
ATOM     21  H   UNL     1      -3.558   6.431   5.678  0.00  0.00    -0.083 HD
ATOM     22  H   UNL     1      -3.504   4.815   5.235  0.00  0.00    -0.083 HD
ENDROOT
BRANCH   1  23
ATOM     23  C   UNL     1      -3.385   1.771   2.584  0.00  0.00    +0.144 C 
BRANCH  23  24
ATOM     24  C   UNL     1      -3.341   1.296   1.130  0.00  0.00    +0.179 C 
BRANCH  24  26
ATOM     25  C   UNL     1      -1.972   1.324  -0.838  0.00  0.00    +0.194 C 
ATOM     26  O   UNL     1      -2.115   1.718   0.528  0.00  0.00    -0.381 OA
ENDBRANCH  24  26
ENDBRANCH  23  24
ENDBRANCH   1  23
BRANCH   5  27
ATOM     27  C   UNL     1      -2.103   7.551   3.946  0.00  0.00    +0.022 C 
BRANCH  27  28
ATOM     28  C   UNL     1      -0.636   7.815   3.727  0.00  0.00    -0.024 A 
ATOM     29  C   UNL     1       0.273   8.108   4.670  0.00  0.00    +0.087 A 
ATOM     30  N   UNL     1       1.502   8.282   4.096  0.00  0.00    -0.360 N 
ATOM     31  H   UNL     1       2.316   8.500   4.577  0.00  0.00    +0.165 HD
ATOM     32  C   UNL     1       1.413   8.101   2.734  0.00  0.00    +0.047 A 
ATOM     33  C   UNL     1       0.071   7.795   2.444  0.00  0.00    +0.003 A 
ATOM     34  C   UNL     1      -0.318   7.553   1.125  0.00  0.00    +0.010 A 
ATOM     35  C   UNL     1       0.608   7.612   0.122  0.00  0.00    +0.001 A 
ATOM     36  C   UNL     1       1.934   7.910   0.404  0.00  0.00    +0.002 A 
ATOM     37  C   UNL     1       2.339   8.160   1.698  0.00  0.00    +0.026 A 
ENDBRANCH  27  28
ENDBRANCH   5  27
TORSDOF 5
