REMARK  Name = ZINC65373075
REMARK  6 active torsions:
REMARK  status: ('A' for Active; 'I' for Inactive)
REMARK    1  A    between atoms: C_1  and  C_2
REMARK    2  A    between atoms: C_2  and  C_3
REMARK    3  A    between atoms: C_6  and  C_9
REMARK    4  A    between atoms: C_11  and  C_22
REMARK    5  A    between atoms: N_15  and  C_16
REMARK    6  A    between atoms: C_16  and  C_17
REMARK                            x       y       z     vdW  Elec       q    Type
REMARK                         _______ _______ _______ _____ _____    ______ ____
ROOT
ATOM      1  C   UNL     1      -5.376  -1.988  -0.104  0.00  0.00    +0.128 C 
ATOM      2  C   UNL     1      -6.266  -1.031  -0.926  0.00  0.00    +0.108 C 
ATOM      3  N   UNL     1      -7.556  -1.035  -0.184  0.00  0.00    -0.295 NA
ATOM      4  C   UNL     1      -7.125  -1.098   1.236  0.00  0.00    +0.170 C 
ATOM      5  N   UNL     1      -5.962  -2.016   1.253  0.00  0.00    -0.273 NA
ATOM      6  H   UNL     1      -8.080  -0.193  -0.365  0.00  0.00    +0.124 HD
ENDROOT
BRANCH   1  10
ATOM      7  C   UNL     1      -1.412  -0.526   0.013  0.00  0.00    -0.030 A 
ATOM      8  C   UNL     1      -2.061  -0.770   1.214  0.00  0.00    +0.007 A 
ATOM      9  C   UNL     1      -3.361  -1.249   1.175  0.00  0.00    +0.025 A 
ATOM     10  C   UNL     1      -3.963  -1.467  -0.050  0.00  0.00    +0.060 A 
ATOM     11  N   UNL     1      -3.315  -1.224  -1.173  0.00  0.00    -0.258 NA
ATOM     12  C   UNL     1      -2.079  -0.761  -1.174  0.00  0.00    +0.114 A 
BRANCH   7  14
ATOM     13  C   UNL     1      -0.019   1.526   0.010  0.00  0.00    +0.009 C 
ATOM     14  C   UNL     1       0.002  -0.004   0.002  0.00  0.00    +0.033 C 
ENDBRANCH   7  14
ENDBRANCH   1  10
BRANCH   2  15
ATOM     15  C   UNL     1      -6.454  -1.553  -2.327  0.00  0.00    -0.029 A 
ATOM     16  C   UNL     1      -7.385  -2.545  -2.576  0.00  0.00    +0.005 A 
ATOM     17  C   UNL     1      -7.558  -3.024  -3.861  0.00  0.00    +0.000 A 
ATOM     18  C   UNL     1      -6.800  -2.511  -4.897  0.00  0.00    +0.000 A 
ATOM     19  C   UNL     1      -5.871  -1.519  -4.649  0.00  0.00    +0.000 A 
ATOM     20  C   UNL     1      -5.701  -1.037  -3.365  0.00  0.00    +0.005 A 
ENDBRANCH   2  15
BRANCH   5  21
ATOM     21  C   UNL     1      -6.369  -3.378   1.623  0.00  0.00    +0.158 C 
BRANCH  21  22
ATOM     22  C   UNL     1      -6.730  -3.414   3.085  0.00  0.00    +0.099 A 
ATOM     23  N   UNL     1      -6.358  -2.526   3.993  0.00  0.00    -0.349 N 
ATOM     24  C   UNL     1      -6.875  -2.896   5.183  0.00  0.00    +0.101 A 
ATOM     25  C   UNL     1      -7.572  -4.032   4.983  0.00  0.00    +0.101 A 
ATOM     26  N   UNL     1      -7.475  -4.338   3.672  0.00  0.00    -0.349 N 
ATOM     27  H   UNL     1      -7.880  -5.103   3.235  0.00  0.00    +0.166 HD
ATOM     28  H   UNL     1      -5.809  -1.743   3.830  0.00  0.00    +0.166 HD
ENDBRANCH  21  22
ENDBRANCH   5  21
TORSDOF 5
