REMARK  Name = ZINC58920603
REMARK  10 active torsions:
REMARK  status: ('A' for Active; 'I' for Inactive)
REMARK    1  A    between atoms: C_1  and  C_2
REMARK    2  A    between atoms: N_4  and  C_5
REMARK    3  A    between atoms: C_5  and  C_6
REMARK    4  A    between atoms: N_8  and  C_9
REMARK    5  A    between atoms: C_9  and  C_10
REMARK    6  A    between atoms: N_12  and  C_13
REMARK    7  A    between atoms: C_13  and  C_14
REMARK    8  A    between atoms: C_17  and  C_20
REMARK    9  A    between atoms: C_20  and  N_21
REMARK   10  A    between atoms: N_24  and  C_27
REMARK                            x       y       z     vdW  Elec       q    Type
REMARK                         _______ _______ _______ _____ _____    ______ ____
ROOT
ATOM      1  C   UNL     1      -5.270  -8.177   0.009  0.00  0.00    +0.139 C 
ENDROOT
BRANCH   1   2
ATOM      2  C   UNL     1      -6.684  -8.699   0.019  0.00  0.00    -0.030 A 
ATOM      3  C   UNL     1      -7.323  -8.939   1.221  0.00  0.00    +0.005 A 
ATOM      4  C   UNL     1      -8.620  -9.417   1.231  0.00  0.00    +0.005 A 
ATOM      5  C   UNL     1      -9.278  -9.655   0.039  0.00  0.00    -0.033 A 
ATOM      6  C   UNL     1      -8.639  -9.414  -1.163  0.00  0.00    +0.005 A 
ATOM      7  C   UNL     1      -7.344  -8.931  -1.173  0.00  0.00    +0.005 A 
BRANCH   5   8
ATOM      8  C   UNL     1     -10.691 -10.178   0.050  0.00  0.00    +0.119 C 
BRANCH   8   9
ATOM      9  N   UNL     1     -11.631  -9.048   0.059  0.00  0.00    -0.302 NA
ATOM     10  C   UNL     1     -11.533  -8.293   1.316  0.00  0.00    +0.066 C 
ATOM     11  C   UNL     1     -12.482  -7.094   1.262  0.00  0.00    -0.064 C 
ATOM     12  N   UNL     1     -13.858  -7.567   1.060  0.00  0.00    +0.379 N 
ATOM     13  C   UNL     1     -13.945  -8.298  -0.211  0.00  0.00    -0.064 C 
ATOM     14  C   UNL     1     -13.008  -9.507  -0.169  0.00  0.00    +0.066 C 
ATOM     15  C   UNL     1     -14.771  -6.416   1.026  0.00  0.00    -0.096 C 
ATOM     16  H   UNL     1     -14.118  -8.179   1.819  0.00  0.00    -0.082 HD
ENDBRANCH   8   9
ENDBRANCH   5   8
ENDBRANCH   1   2
BRANCH   1  19
ATOM     17  C   UNL     1      -4.132  -6.022   0.009  0.00  0.00    +0.230 C 
ATOM     18  O   UNL     1      -3.074  -6.614  -0.004  0.00  0.00    -0.274 OA
ATOM     19  N   UNL     1      -5.290  -6.712   0.017  0.00  0.00    -0.310 N 
ATOM     20  H   UNL     1      -6.136  -6.239   0.027  0.00  0.00    +0.149 HD
BRANCH  17  21
ATOM     21  C   UNL     1      -4.152  -4.516   0.018  0.00  0.00    +0.200 C 
BRANCH  21  24
ATOM     22  C   UNL     1      -2.550  -2.680   0.012  0.00  0.00    +0.231 C 
ATOM     23  O   UNL     1      -3.482  -1.905   0.025  0.00  0.00    -0.274 OA
ATOM     24  N   UNL     1      -2.778  -4.008   0.007  0.00  0.00    -0.305 N 
ATOM     25  H   UNL     1      -2.032  -4.629  -0.003  0.00  0.00    +0.149 HD
BRANCH  22  26
ATOM     26  C   UNL     1      -1.136  -2.159   0.001  0.00  0.00    +0.200 C 
BRANCH  26  30
ATOM     27  C   UNL     1      -0.018   1.503   0.010  0.00  0.00    +0.109 C 
ATOM     28  C   UNL     1       0.002  -0.004   0.002  0.00  0.00    +0.210 C 
ATOM     29  O   UNL     1       1.060  -0.596  -0.011  0.00  0.00    -0.276 OA
ATOM     30  N   UNL     1      -1.156  -0.694   0.009  0.00  0.00    -0.307 N 
ATOM     31  H   UNL     1      -2.002  -0.220   0.020  0.00  0.00    +0.149 HD
ENDBRANCH  26  30
ENDBRANCH  22  26
ENDBRANCH  21  24
ENDBRANCH  17  21
ENDBRANCH   1  19
TORSDOF 8
