REMARK  Name = ZINC63908390
REMARK  5 active torsions:
REMARK  status: ('A' for Active; 'I' for Inactive)
REMARK    1  A    between atoms: C_1  and  C_2
REMARK    2  A    between atoms: C_9  and  C_11
REMARK    3  A    between atoms: C_11  and  C_12
REMARK    4  A    between atoms: C_12  and  C_13
REMARK    5  A    between atoms: C_13  and  C_14
REMARK                            x       y       z     vdW  Elec       q    Type
REMARK                         _______ _______ _______ _____ _____    ______ ____
ROOT
ATOM      1  C   UNL     1       5.386  -3.578   0.415  0.00  0.00    +0.096 C 
ENDROOT
BRANCH   1   9
ATOM      2  C   UNL     1      -0.019   1.526   0.010  0.00  0.00    +0.041 C 
ATOM      3  C   UNL     1       0.002  -0.004   0.002  0.00  0.00    +0.151 C 
ATOM      4  N   UNL     1       0.771  -0.526  -1.150  0.00  0.00    -0.254 N 
ATOM      5  N   UNL     1       1.887  -1.265  -0.825  0.00  0.00    -0.163 NA
ATOM      6  C   UNL     1       2.255  -1.498   0.396  0.00  0.00    +0.179 C 
ATOM      7  S   UNL     1       1.019  -0.668   1.385  0.00  0.00    -0.065 S 
ATOM      8  N   UNL     1       3.357  -2.226   0.835  0.00  0.00    -0.264 N 
ATOM      9  C   UNL     1       4.193  -2.789  -0.060  0.00  0.00    +0.219 C 
ATOM     10  O   UNL     1       3.984  -2.662  -1.248  0.00  0.00    -0.275 OA
ATOM     11  H   UNL     1       0.507  -0.360  -2.069  0.00  0.00    +0.169 HD
ATOM     12  H   UNL     1       3.524  -2.328   1.785  0.00  0.00    +0.157 HD
ENDBRANCH   1   9
BRANCH   1  13
ATOM     13  C   UNL     1       6.163  -4.105  -0.793  0.00  0.00    +0.014 C 
BRANCH  13  14
ATOM     14  C   UNL     1       7.374  -4.905  -0.310  0.00  0.00    +0.033 C 
BRANCH  14  15
ATOM     15  C   UNL     1       8.140  -5.424  -1.500  0.00  0.00    -0.042 C 
ATOM     16  C   UNL     1       9.214  -4.851  -2.089  0.00  0.00    -0.001 A 
ATOM     17  C   UNL     1       9.962  -3.620  -1.810  0.00  0.00    +0.010 A 
ATOM     18  C   UNL     1      11.018  -3.302  -2.593  0.00  0.00    +0.001 A 
ATOM     19  C   UNL     1      11.414  -4.116  -3.663  0.00  0.00    +0.002 A 
ATOM     20  C   UNL     1      10.777  -5.263  -3.981  0.00  0.00    +0.026 A 
ATOM     21  C   UNL     1       9.653  -5.695  -3.224  0.00  0.00    +0.043 A 
ATOM     22  N   UNL     1       8.880  -6.748  -3.332  0.00  0.00    -0.380 N 
ATOM     23  C   UNL     1       7.866  -6.695  -2.273  0.00  0.00    +0.144 C 
ATOM     24  H   UNL     1       8.967  -7.448  -3.998  0.00  0.00    +0.160 HD
ENDBRANCH  14  15
ENDBRANCH  13  14
ENDBRANCH   1  13
TORSDOF 4
