REMARK  Name = ZINC44464758
REMARK  6 active torsions:
REMARK  status: ('A' for Active; 'I' for Inactive)
REMARK    1  A    between atoms: C_6  and  C_7
REMARK    2  A    between atoms: C_8  and  C_15
REMARK    3  A    between atoms: C_15  and  CA_16
REMARK    4  A    between atoms: CA_16  and  C_18
REMARK    5  A    between atoms: CA_16  and  N_20
REMARK    6  A    between atoms: C_18  and  O_19
REMARK                            x       y       z     vdW  Elec       q    Type
REMARK                         _______ _______ _______ _____ _____    ______ ____
ROOT
ATOM      1  C   UNL     1      -1.216  -0.890   0.161  0.00  0.00    +0.093 A 
ATOM      2  C   UNL     1      -1.527  -1.895  -0.694  0.00  0.00    +0.050 A 
ATOM      3  N   UNL     1      -2.886  -2.157  -0.558  0.00  0.00    -0.297 N 
ATOM      4  C   UNL     1      -3.824  -3.012  -1.096  0.00  0.00    +0.100 A 
ATOM      5  C   UNL     1      -5.094  -2.968  -0.697  0.00  0.00    +0.067 A 
ATOM      6  S   UNL     1      -5.055  -1.661   0.519  0.00  0.00    -0.058 S 
ATOM      7  C   UNL     1      -3.325  -1.274   0.394  0.00  0.00    +0.178 A 
ATOM      8  N   UNL     1      -2.340  -0.536   0.817  0.00  0.00    -0.221 NA
ENDROOT
BRANCH   1  14
ATOM      9  C   UNL     1       0.267   1.093   0.445  0.00  0.00    +0.011 A 
ATOM     10  C   UNL     1       1.520   1.647   0.618  0.00  0.00    +0.016 A 
ATOM     11  C   UNL     1       2.635   0.832   0.694  0.00  0.00    +0.018 A 
ATOM     12  C   UNL     1       2.501  -0.543   0.598  0.00  0.00    +0.016 A 
ATOM     13  C   UNL     1       1.254  -1.107   0.424  0.00  0.00    +0.011 A 
ATOM     14  C   UNL     1       0.127  -0.290   0.347  0.00  0.00    +0.002 A 
ATOM     15 BR   UNL     1       4.348   1.597   0.931  0.00  0.00    -0.050 Br
ENDBRANCH   1  14
BRANCH   2  16
ATOM     16  C   UNL     1      -0.574  -2.599  -1.625  0.00  0.00    +0.042 C 
BRANCH  16  17
ATOM     17  CA  UNL     1      -0.646  -1.957  -3.011  0.00  0.00    -0.043 C 
BRANCH  17  18
ATOM     18  N   UNL     1      -0.163  -0.572  -2.935  0.00  0.00    +0.382 N 
ATOM     19  H1  UNL     1       0.793  -0.566  -2.611  0.00  0.00    -0.090 HD
ATOM     20  H2  UNL     1      -0.210  -0.148  -3.850  0.00  0.00    -0.090 HD
ATOM     21  H3  UNL     1      -0.739  -0.049  -2.292  0.00  0.00    -0.090 HD
ENDBRANCH  17  18
BRANCH  17  22
ATOM     22  C   UNL     1       0.228  -2.749  -3.986  0.00  0.00    +0.140 C 
BRANCH  22  23
ATOM     23  O   UNL     1       0.070  -2.220  -5.305  0.00  0.00    -0.397 OA
ATOM     24  H   UNL     1       0.596  -2.675  -5.976  0.00  0.00    +0.209 HD
ENDBRANCH  22  23
ENDBRANCH  17  22
ENDBRANCH  16  17
ENDBRANCH   2  16
TORSDOF 6
