REMARK  Name = ZINC44937580
REMARK  4 active torsions:
REMARK  status: ('A' for Active; 'I' for Inactive)
REMARK    1  A    between atoms: C_3  and  C_22
REMARK    2  A    between atoms: C_5  and  S_7
REMARK    3  A    between atoms: S_7  and  N_10
REMARK    4  A    between atoms: N_10  and  C_11
REMARK                            x       y       z     vdW  Elec       q    Type
REMARK                         _______ _______ _______ _____ _____    ______ ____
ROOT
ATOM      1  N   UNL     1       1.237  -2.946   1.557  0.00  0.00    -0.188 NA
ATOM      2  H   UNL     1       2.005  -3.425   1.905  0.00  0.00    +0.148 HD
ENDROOT
BRANCH   1   3
ATOM      3  C   UNL     1       0.093  -2.663   2.427  0.00  0.00    +0.061 C 
ATOM      4  C   UNL     1      -0.831  -3.906   2.552  0.00  0.00    +0.000 C 
ATOM      5  C   UNL     1      -1.268  -3.932   4.037  0.00  0.00    -0.077 C 
ATOM      6  N   UNL     1      -0.700  -2.727   4.644  0.00  0.00    +0.383 N 
ATOM      7  C   UNL     1       0.548  -2.455   3.882  0.00  0.00    -0.050 C 
ATOM      8  C   UNL     1       0.970  -1.025   4.192  0.00  0.00    -0.014 C 
ATOM      9  C   UNL     1       1.295  -0.955   5.692  0.00  0.00    -0.003 C 
ATOM     10  C   UNL     1       0.104  -1.433   6.523  0.00  0.00    -0.019 C 
ATOM     11  C   UNL     1      -0.363  -2.822   6.056  0.00  0.00    -0.078 C 
ATOM     12  H   UNL     1      -1.335  -1.955   4.504  0.00  0.00    -0.081 HD
ENDBRANCH   1   3
BRANCH   1  13
ATOM     13  S   UNL     1       1.218  -2.448  -0.023  0.00  0.00    +0.059 S 
ATOM     14  O   UNL     1      -0.029  -2.860  -0.564  0.00  0.00    -0.153 OA
ATOM     15  O   UNL     1       2.461  -2.842  -0.587  0.00  0.00    -0.153 OA
BRANCH  13  20
ATOM     16  C   UNL     1      -0.017   1.379   0.010  0.00  0.00    +0.003 A 
ATOM     17  C   UNL     1       1.167   2.088   0.002  0.00  0.00    +0.019 A 
ATOM     18  C   UNL     1       2.385   1.407  -0.013  0.00  0.00    +0.054 A 
ATOM     19  C   UNL     1       2.397   0.010  -0.021  0.00  0.00    +0.047 A 
ATOM     20  C   UNL     1       1.206  -0.686  -0.013  0.00  0.00    +0.106 A 
ATOM     21  C   UNL     1       0.002  -0.004   0.002  0.00  0.00    +0.028 A 
BRANCH  18  22
ATOM     22  C   UNL     1       3.617   2.136  -0.021  0.00  0.00    +0.099 C 
ATOM     23  N   UNL     1       4.595   2.715  -0.028  0.00  0.00    -0.191 NA
ENDBRANCH  18  22
ENDBRANCH  13  20
ENDBRANCH   1  13
TORSDOF 4
