REMARK  Name = ZINC06796609
REMARK  6 active torsions:
REMARK  status: ('A' for Active; 'I' for Inactive)
REMARK    1  A    between atoms: C_1  and  C_2
REMARK    2  A    between atoms: C_4  and  C_21
REMARK    3  A    between atoms: C_6  and  N_8
REMARK    4  A    between atoms: C_9  and  C_11
REMARK    5  A    between atoms: N_13  and  N_14
REMARK    6  A    between atoms: C_15  and  C_16
REMARK                            x       y       z     vdW  Elec       q    Type
REMARK                         _______ _______ _______ _____ _____    ______ ____
ROOT
ATOM      1  N   UNL     1       0.050  -2.797   2.391  0.00  0.00    -0.278 N 
ATOM      2  C   UNL     1       0.148  -2.134   3.560  0.00  0.00    +0.305 C 
ATOM      3  O   UNL     1       0.133  -0.920   3.574  0.00  0.00    -0.265 OA
ATOM      4  H   UNL     1      -0.015  -3.765   2.386  0.00  0.00    +0.155 HD
ENDROOT
BRANCH   1  10
ATOM      5  C   UNL     1      -1.513  -2.363  -2.249  0.00  0.00    +0.044 C 
ATOM      6  C   UNL     1      -0.708  -1.856  -1.081  0.00  0.00    -0.048 A 
ATOM      7  C   UNL     1       0.025  -0.690  -1.201  0.00  0.00    +0.006 A 
ATOM      8  C   UNL     1       0.766  -0.221  -0.132  0.00  0.00    -0.048 A 
ATOM      9  C   UNL     1       0.777  -0.917   1.061  0.00  0.00    +0.026 A 
ATOM     10  C   UNL     1       0.041  -2.090   1.186  0.00  0.00    +0.034 A 
ATOM     11  C   UNL     1      -0.707  -2.554   0.111  0.00  0.00    +0.026 A 
ATOM     12  C   UNL     1       1.563   1.050  -0.268  0.00  0.00    +0.044 C 
ENDBRANCH   1  10
BRANCH   2  13
ATOM     13  C   UNL     1       0.276  -2.892   4.837  0.00  0.00    +0.318 C 
ATOM     14  O   UNL     1       0.291  -4.106   4.824  0.00  0.00    -0.263 OA
ATOM     15  N   UNL     1       0.374  -2.229   6.007  0.00  0.00    -0.199 N 
ATOM     16  H   UNL     1       0.362  -1.259   6.017  0.00  0.00    +0.178 HD
BRANCH  15  17
ATOM     17  N   UNL     1       0.494  -2.941   7.207  0.00  0.00    -0.184 NA
ATOM     18  C   UNL     1       0.589  -2.301   8.338  0.00  0.00    +0.176 C 
BRANCH  18  19
ATOM     19  C   UNL     1       0.714  -3.045   9.593  0.00  0.00    +0.147 A 
ATOM     20  C   UNL     1       0.816  -2.501  10.842  0.00  0.00    +0.051 A 
ATOM     21  C   UNL     1       0.916  -3.575  11.743  0.00  0.00    +0.042 A 
ATOM     22  C   UNL     1       0.871  -4.710  11.015  0.00  0.00    +0.196 A 
ATOM     23  O   UNL     1       0.744  -4.387   9.718  0.00  0.00    -0.462 OA
ENDBRANCH  18  19
ENDBRANCH  15  17
ENDBRANCH   2  13
TORSDOF 4
