REMARK  Name = ZINC19676983
REMARK  6 active torsions:
REMARK  status: ('A' for Active; 'I' for Inactive)
REMARK    1  A    between atoms: C_1  and  C_2
REMARK    2  A    between atoms: C_3  and  S_9
REMARK    3  A    between atoms: C_4  and  C_8
REMARK    4  A    between atoms: S_9  and  N_12
REMARK    5  A    between atoms: C_17  and  C_20
REMARK    6  A    between atoms: C_20  and  N_21
REMARK                            x       y       z     vdW  Elec       q    Type
REMARK                         _______ _______ _______ _____ _____    ______ ____
ROOT
ATOM      1  N   UNL     1      -0.018   1.465   0.010  0.00  0.00    -0.172 NA
ATOM      2  C   UNL     1       0.002  -0.004   0.002  0.00  0.00    +0.116 C 
ATOM      3  C   UNL     1       0.584  -0.507  -1.326  0.00  0.00    +0.076 C 
ATOM      4  C   UNL     1       1.828   0.283  -1.634  0.00  0.00    +0.090 A 
ATOM      5  C   UNL     1       2.138   1.524  -1.025  0.00  0.00    +0.031 A 
ATOM      6  C   UNL     1       3.305   1.888  -1.569  0.00  0.00    +0.125 A 
ATOM      7  O   UNL     1       3.634   0.908  -2.431  0.00  0.00    -0.361 OA
ATOM      8  N   UNL     1       2.797   0.027  -2.449  0.00  0.00    -0.083 NA
ATOM      9  C   UNL     1       1.267   2.192   0.002  0.00  0.00    +0.149 C 
ENDROOT
BRANCH   1  10
ATOM     10  S   UNL     1      -1.454   2.289   0.021  0.00  0.00    +0.065 S 
ATOM     11  O   UNL     1      -1.189   3.575  -0.524  0.00  0.00    -0.153 OA
ATOM     12  O   UNL     1      -2.429   1.415  -0.529  0.00  0.00    -0.153 OA
BRANCH  10  15
ATOM     13  C   UNL     1      -3.251   0.400   2.019  0.00  0.00    +0.067 C 
ATOM     14  C   UNL     1      -2.648   1.706   2.466  0.00  0.00    +0.060 A 
ATOM     15  C   UNL     1      -1.898   2.540   1.708  0.00  0.00    +0.148 A 
ATOM     16  C   UNL     1      -1.542   3.638   2.498  0.00  0.00    +0.086 A 
ATOM     17  N   UNL     1      -2.056   3.467   3.690  0.00  0.00    -0.177 NA
ATOM     18  N   UNL     1      -2.755   2.253   3.695  0.00  0.00    -0.280 N 
ATOM     19  H   UNL     1      -3.324   1.734   4.481  0.00  0.00    +0.189 HD
ATOM     20  C   UNL     1      -0.711   4.814   2.055  0.00  0.00    +0.069 C 
ENDBRANCH  10  15
ENDBRANCH   1  10
BRANCH   6  21
ATOM     21  C   UNL     1       4.092   3.139  -1.275  0.00  0.00    -0.008 C 
BRANCH  21  22
ATOM     22  N   UNL     1       5.024   2.884  -0.169  0.00  0.00    +0.383 N 
ATOM     23  H   UNL     1       5.598   3.797   0.045  0.00  0.00    -0.089 HD
ATOM     24  H   UNL     1       5.714   2.075  -0.450  0.00  0.00    -0.089 HD
ATOM     25  H   UNL     1       4.457   2.588   0.727  0.00  0.00    -0.089 HD
ENDBRANCH  21  22
ENDBRANCH   6  21
TORSDOF 4
