REMARK  Name = ZINC05774215
REMARK  1 active torsions:
REMARK  status: ('A' for Active; 'I' for Inactive)
REMARK    1  A    between atoms: C_4  and  N_7
REMARK                            x       y       z     vdW  Elec       q    Type
REMARK                         _______ _______ _______ _____ _____    ______ ____
ROOT
ATOM      1  N   UNL     1       3.869  -0.238   0.433  0.00  0.00    -0.195 N 
ATOM      2  C   UNL     1       4.354  -1.043   1.416  0.00  0.00    +0.275 A 
ATOM      3  O   UNL     1       3.720  -1.369   2.571  0.00  0.00    -0.266 OA
ATOM      4  C   UNL     1       5.588  -1.463   1.032  0.00  0.00    +0.117 A 
ATOM      5  C   UNL     1       5.864  -0.897  -0.223  0.00  0.00    +0.150 A 
ATOM      6  N   UNL     1       7.036  -1.082  -0.966  0.00  0.00    -0.288 N 
ATOM      7  C   UNL     1       7.946  -2.035  -0.586  0.00  0.00    +0.073 C 
ATOM      8  N   UNL     1       7.568  -3.023   0.132  0.00  0.00    -0.376 N 
ATOM      9  C   UNL     1       8.530  -4.053   0.552  0.00  0.00    +0.113 C 
ATOM     10  C   UNL     1       8.890  -4.915  -0.660  0.00  0.00    +0.021 C 
ATOM     11  C   UNL     1      10.037  -4.294  -1.440  0.00  0.00    +0.002 C 
ATOM     12  C   UNL     1       9.674  -2.968  -2.086  0.00  0.00    +0.007 C 
ATOM     13  C   UNL     1       9.389  -1.912  -1.023  0.00  0.00    +0.069 C 
ATOM     14  N   UNL     1       4.832  -0.170  -0.582  0.00  0.00    -0.148 NA
ATOM     15  H   UNL     1       7.204  -0.537  -1.750  0.00  0.00    +0.155 HD
ATOM     16  H   UNL     1       6.639  -3.094   0.402  0.00  0.00    +0.160 HD
ENDROOT
BRANCH   1  20
ATOM     17  C   UNL     1       0.165   1.672   0.431  0.00  0.00    +0.000 A 
ATOM     18  C   UNL     1       1.261   2.291  -0.143  0.00  0.00    +0.002 A 
ATOM     19  C   UNL     1       2.490   1.660  -0.144  0.00  0.00    +0.028 A 
ATOM     20  C   UNL     1       2.624   0.404   0.432  0.00  0.00    +0.069 A 
ATOM     21  C   UNL     1       1.522  -0.214   1.008  0.00  0.00    +0.028 A 
ATOM     22  C   UNL     1       0.296   0.421   1.006  0.00  0.00    +0.002 A 
ENDBRANCH   1  20
TORSDOF 1
