REMARK  Name = ZINC42859586
REMARK  5 active torsions:
REMARK  status: ('A' for Active; 'I' for Inactive)
REMARK    1  A    between atoms: C_1  and  C_2
REMARK    2  A    between atoms: C_8  and  C_10
REMARK    3  A    between atoms: C_10  and  N_11
REMARK    4  A    between atoms: N_11  and  C_12
REMARK    5  A    between atoms: C_12  and  C_13
REMARK                            x       y       z     vdW  Elec       q    Type
REMARK                         _______ _______ _______ _____ _____    ______ ____
ROOT
ATOM      1  C   UNL     1       4.301  -0.055   2.345  0.00  0.00    -0.047 C 
ENDROOT
BRANCH   1   2
ATOM      2  C   UNL     1       5.065  -0.652   3.498  0.00  0.00    -0.061 A 
ATOM      3  C   UNL     1       5.077  -0.010   4.723  0.00  0.00    +0.005 A 
ATOM      4  C   UNL     1       5.776  -0.552   5.786  0.00  0.00    +0.049 A 
ATOM      5  C   UNL     1       6.465  -1.742   5.620  0.00  0.00    +0.162 A 
ATOM      6  C   UNL     1       6.453  -2.386   4.391  0.00  0.00    +0.162 A 
ATOM      7  C   UNL     1       5.748  -1.843   3.330  0.00  0.00    +0.051 A 
ATOM      8  O   UNL     1       7.134  -3.558   4.237  0.00  0.00    -0.488 OA
ATOM      9  C   UNL     1       8.559  -3.465   4.293  0.00  0.00    +0.232 C 
ATOM     10  C   UNL     1       9.046  -3.500   5.733  0.00  0.00    +0.082 C 
ATOM     11  C   UNL     1       8.580  -2.292   6.531  0.00  0.00    +0.232 C 
ATOM     12  O   UNL     1       7.157  -2.288   6.661  0.00  0.00    -0.488 OA
ENDBRANCH   1   2
BRANCH   1  13
ATOM     13  N   UNL     1       2.923  -0.563   2.355  0.00  0.00    +0.382 N 
ATOM     14  H   UNL     1       2.476  -0.307   3.223  0.00  0.00    -0.085 HD
ATOM     15  H   UNL     1       2.934  -1.568   2.267  0.00  0.00    -0.085 HD
BRANCH  13  16
ATOM     16  C   UNL     1       2.178   0.019   1.231  0.00  0.00    -0.078 C 
BRANCH  16  23
ATOM     17  C   UNL     1      -0.019   1.526   0.010  0.00  0.00    +0.008 C 
ATOM     18  C   UNL     1       0.002  -0.004   0.002  0.00  0.00    -0.013 C 
ATOM     19  C   UNL     1      -1.433  -0.534   0.013  0.00  0.00    +0.003 C 
ATOM     20  C   UNL     1      -2.149  -0.040   1.272  0.00  0.00    +0.000 C 
ATOM     21  C   UNL     1      -1.409  -0.547   2.511  0.00  0.00    +0.000 C 
ATOM     22  C   UNL     1       0.026  -0.018   2.500  0.00  0.00    +0.002 C 
ATOM     23  C   UNL     1       0.742  -0.511   1.242  0.00  0.00    -0.025 C 
ENDBRANCH  16  23
ENDBRANCH  13  16
ENDBRANCH   1  13
TORSDOF 4
