REMARK  Name = ZINC19483438
REMARK  2 active torsions:
REMARK  status: ('A' for Active; 'I' for Inactive)
REMARK    1  A    between atoms: C_1  and  C_2
REMARK    2  A    between atoms: C_5  and  C_14
REMARK                            x       y       z     vdW  Elec       q    Type
REMARK                         _______ _______ _______ _____ _____    ______ ____
ROOT
ATOM      1  C   UNL     1       4.908   4.173  -0.144  0.00  0.00    +0.028 C 
ATOM      2  C   UNL     1       3.584   3.542   0.292  0.00  0.00    +0.068 C 
ATOM      3  C   UNL     1       2.424   4.189  -0.475  0.00  0.00    +0.039 C 
ATOM      4  C   UNL     1       1.108   3.592   0.024  0.00  0.00    +0.109 C 
ATOM      5  C   UNL     1       1.167   2.088  -0.004  0.00  0.00    -0.015 A 
ATOM      6  C   UNL     1      -0.019   1.371  -0.010  0.00  0.00    +0.006 A 
ATOM      7  C   UNL     1       0.002  -0.010  -0.027  0.00  0.00    +0.000 A 
ATOM      8  C   UNL     1       1.208  -0.687  -0.039  0.00  0.00    +0.002 A 
ATOM      9  C   UNL     1       2.394   0.020  -0.036  0.00  0.00    +0.023 A 
ATOM     10  C   UNL     1       2.376   1.410  -0.020  0.00  0.00    +0.031 A 
ATOM     11  N   UNL     1       3.589   2.108  -0.024  0.00  0.00    -0.341 N 
ATOM     12  H   UNL     1       4.535   1.599  -0.260  0.00  0.00    +0.146 HD
ENDROOT
BRANCH   4  13
ATOM     13  C   UNL     1      -0.019   4.063  -0.859  0.00  0.00    +0.224 C 
ATOM     14  O   UNL     1      -0.288   3.456  -1.874  0.00  0.00    -0.275 OA
ATOM     15  N   UNL     1      -0.728   5.158  -0.521  0.00  0.00    -0.291 N 
ATOM     16  C   UNL     1      -1.903   5.581  -1.301  0.00  0.00    +0.127 C 
ATOM     17  C   UNL     1      -3.126   5.539  -0.374  0.00  0.00    +0.123 C 
ATOM     18  N   UNL     1      -2.829   6.180   0.900  0.00  0.00    -0.313 N 
ATOM     19  C   UNL     1      -1.603   6.353   1.394  0.00  0.00    +0.230 C 
ATOM     20  O   UNL     1      -1.487   6.830   2.502  0.00  0.00    -0.274 OA
ATOM     21  C   UNL     1      -0.355   5.983   0.638  0.00  0.00    +0.203 C 
ATOM     22  H   UNL     1      -3.649   6.562   1.527  0.00  0.00    +0.149 HD
ENDBRANCH   4  13
TORSDOF 1
