REMARK  Name = ZINC13635923
REMARK  6 active torsions:
REMARK  status: ('A' for Active; 'I' for Inactive)
REMARK    1  A    between atoms: C_1  and  C_2
REMARK    2  A    between atoms: C_2  and  C_3
REMARK    3  A    between atoms: C_2  and  C_4
REMARK    4  A    between atoms: C_11  and  N_24
REMARK    5  A    between atoms: C_12  and  C_22
REMARK    6  A    between atoms: C_13  and  C_15
REMARK                            x       y       z     vdW  Elec       q    Type
REMARK                         _______ _______ _______ _____ _____    ______ ____
ROOT
ATOM      1  C   UNL     1      -0.945  -0.594   0.114  0.00  0.00    +0.046 A 
ATOM      2  C   UNL     1      -1.762  -1.345  -0.639  0.00  0.00    +0.046 A 
ATOM      3  C   UNL     1      -3.017  -1.409   0.006  0.00  0.00    +0.244 A 
ATOM      4  N   UNL     1      -2.942  -0.715   1.104  0.00  0.00    -0.135 NA
ATOM      5  N   UNL     1      -1.642  -0.193   1.202  0.00  0.00    -0.278 N 
ATOM      6  H   UNL     1      -1.304   0.361   1.922  0.00  0.00    +0.189 HD
ATOM      7  O   UNL     1      -4.061  -2.107  -0.516  0.00  0.00    -0.422 OA
ATOM      8  C   UNL     1      -3.795  -2.959  -1.526  0.00  0.00    +0.200 C 
ATOM      9  C   UNL     1      -2.640  -2.984  -2.222  0.00  0.00    +0.094 C 
ATOM     10  C   UNL     1      -1.495  -2.041  -1.949  0.00  0.00    +0.078 C 
ENDROOT
BRANCH  10  11
ATOM     11  C   UNL     1      -1.399  -1.007  -3.073  0.00  0.00    +0.024 C 
ATOM     12  C   UNL     1      -2.756  -0.322  -3.250  0.00  0.00    +0.009 C 
ATOM     13  C   UNL     1      -2.713   0.513  -4.536  0.00  0.00    +0.005 C 
ATOM     14  C   UNL     1      -2.616  -0.441  -5.729  0.00  0.00    +0.027 C 
ATOM     15  C   UNL     1      -1.522  -1.443  -5.502  0.00  0.00    -0.031 C 
ATOM     16  C   UNL     1      -0.999  -1.692  -4.346  0.00  0.00    -0.027 C 
ENDBRANCH  10  11
BRANCH   1  18
ATOM     17  C   UNL     1       0.645   1.252  -0.346  0.00  0.00    +0.014 C 
ATOM     18  C   UNL     1       0.493  -0.262  -0.194  0.00  0.00    +0.031 C 
ATOM     19  C   UNL     1       1.385  -0.752   0.949  0.00  0.00    +0.014 C 
ENDBRANCH   1  18
BRANCH   8  20
ATOM     20  N   UNL     1      -4.767  -3.866  -1.869  0.00  0.00    -0.328 N 
ATOM     21  H   UNL     1      -5.611  -3.878  -1.390  0.00  0.00    +0.145 HD
ATOM     22  H   UNL     1      -4.611  -4.495  -2.591  0.00  0.00    +0.145 HD
ENDBRANCH   8  20
BRANCH   9  23
ATOM     23  C   UNL     1      -2.494  -3.950  -3.269  0.00  0.00    +0.100 C 
ATOM     24  N   UNL     1      -2.378  -4.717  -4.099  0.00  0.00    -0.191 NA
ENDBRANCH   9  23
TORSDOF 4
