REMARK  Name = ZINC05687157
REMARK  3 active torsions:
REMARK  status: ('A' for Active; 'I' for Inactive)
REMARK    1  A    between atoms: C_1  and  C_2
REMARK    2  A    between atoms: C_10  and  O_19
REMARK    3  A    between atoms: N_12  and  C_13
REMARK                            x       y       z     vdW  Elec       q    Type
REMARK                         _______ _______ _______ _____ _____    ______ ____
ROOT
ATOM      1  C   UNL     1      -0.018   1.503   0.010  0.00  0.00    +0.045 C 
ATOM      2  C   UNL     1       0.002  -0.004   0.002  0.00  0.00    -0.030 A 
ATOM      3  C   UNL     1       0.006  -0.687  -1.174  0.00  0.00    +0.074 A 
ATOM      4  C   UNL     1       0.026  -2.093  -1.169  0.00  0.00    +0.250 A 
ATOM      5  O   UNL     1       0.029  -2.699  -2.228  0.00  0.00    -0.268 OA
ATOM      6  N   UNL     1       0.041  -2.781  -0.012  0.00  0.00    -0.307 N 
ATOM      7  H   UNL     1       0.055  -3.750  -0.029  0.00  0.00    +0.170 HD
ATOM      8  C   UNL     1       0.038  -2.123   1.190  0.00  0.00    +0.143 A 
ATOM      9  C   UNL     1       0.023  -0.726   1.214  0.00  0.00    +0.083 A 
ATOM     10  C   UNL     1       0.030  -0.336   2.623  0.00  0.00    +0.241 A 
ATOM     11  N   UNL     1       0.052  -1.437   3.327  0.00  0.00    -0.131 NA
ATOM     12  N   UNL     1       0.051  -2.543   2.471  0.00  0.00    -0.241 N 
ENDROOT
BRANCH  12  13
ATOM     13  C   UNL     1       0.073  -3.944   2.901  0.00  0.00    +0.110 C 
ATOM     14  C   UNL     1      -1.167  -4.237   3.747  0.00  0.00    +0.027 C 
ATOM     15  C   UNL     1      -1.144  -5.700   4.195  0.00  0.00    +0.002 C 
ATOM     16  C   UNL     1       0.114  -5.958   5.028  0.00  0.00    +0.000 C 
ATOM     17  C   UNL     1       1.354  -5.664   4.182  0.00  0.00    +0.002 C 
ATOM     18  C   UNL     1       1.331  -4.202   3.733  0.00  0.00    +0.027 C 
ENDBRANCH  12  13
BRANCH  10  19
ATOM     19  O   UNL     1       0.017   0.933   3.109  0.00  0.00    -0.491 OA
ATOM     20  H   UNL     1      -0.870   1.288   3.257  0.00  0.00    +0.294 HD
ENDBRANCH  10  19
TORSDOF 2
