REMARK  Name = ZINC17194389
REMARK  7 active torsions:
REMARK  status: ('A' for Active; 'I' for Inactive)
REMARK    1  A    between atoms: C_1  and  C_2
REMARK    2  A    between atoms: C_2  and  C_3
REMARK    3  A    between atoms: C_3  and  C_15
REMARK    4  A    between atoms: N_5  and  O_6
REMARK    5  A    between atoms: C_7  and  C_12
REMARK    6  A    between atoms: C_7  and  C_13
REMARK    7  A    between atoms: N_8  and  O_11
REMARK                            x       y       z     vdW  Elec       q    Type
REMARK                         _______ _______ _______ _____ _____    ______ ____
ROOT
ATOM      1  C   UNL     1       0.002  -0.004   0.002  0.00  0.00    +0.090 C 
ATOM      2  C   UNL     1       1.463  -0.404  -0.014  0.00  0.00    +0.101 C 
ATOM      3  N   UNL     1       1.949  -1.587  -0.025  0.00  0.00    -0.093 NA
ATOM      4  C   UNL     1       2.220   0.906  -0.014  0.00  0.00    +0.121 C 
ATOM      5  N   UNL     1       1.232   1.984   0.001  0.00  0.00    -0.168 N 
ATOM      6  C   UNL     1      -0.018   1.503   0.010  0.00  0.00    +0.251 C 
ATOM      7  O   UNL     1      -1.023   2.183   0.019  0.00  0.00    -0.272 OA
ATOM      8  C   UNL     1       3.083   1.007  -1.273  0.00  0.00    +0.045 C 
ATOM      9  C   UNL     1      -0.680  -0.547   1.259  0.00  0.00    +0.027 C 
ENDROOT
BRANCH   1  11
ATOM     10  C   UNL     1      -2.164  -0.082  -1.240  0.00  0.00    +0.005 C 
ATOM     11  C   UNL     1      -0.703  -0.533  -1.249  0.00  0.00    +0.019 C 
ENDBRANCH   1  11
BRANCH   3  12
ATOM     12  O   UNL     1       3.352  -1.776  -0.040  0.00  0.00    -0.409 OA
ATOM     13  H   UNL     1       3.770  -2.794  -0.050  0.00  0.00    +0.328 HD
ENDBRANCH   3  12
BRANCH   5  14
ATOM     14  O   UNL     1       1.557   3.362   0.005  0.00  0.00    -0.291 OA
ATOM     15  H   UNL     1       0.756   4.116   0.017  0.00  0.00    +0.242 HD
ENDBRANCH   5  14
BRANCH   4  16
ATOM     16  C   UNL     1       3.091   0.993   1.212  0.00  0.00    -0.001 C 
ATOM     17  C   UNL     1       2.918   1.967   2.071  0.00  0.00    +0.006 C 
ENDBRANCH   4  16
TORSDOF 4
