REMARK  Name = ZINC38073312
REMARK  9 active torsions:
REMARK  status: ('A' for Active; 'I' for Inactive)
REMARK    1  A    between atoms: C_1  and  C_2
REMARK    2  A    between atoms: C_2  and  N_3
REMARK    3  A    between atoms: N_3  and  C_4
REMARK    4  A    between atoms: C_4  and  C_5
REMARK    5  A    between atoms: C_7  and  C_13
REMARK    6  A    between atoms: C_10  and  O_11
REMARK    7  A    between atoms: O_11  and  C_12
REMARK    8  A    between atoms: C_16  and  O_20
REMARK    9  A    between atoms: O_20  and  C_21
REMARK                            x       y       z     vdW  Elec       q    Type
REMARK                         _______ _______ _______ _____ _____    ______ ____
ROOT
ATOM      1  C   UNL     1      -2.770  -2.503   0.015  0.00  0.00    -0.022 A 
ATOM      2  C   UNL     1      -3.335  -2.937   1.196  0.00  0.00    +0.013 A 
ATOM      3  C   UNL     1      -4.643  -3.420   1.205  0.00  0.00    -0.017 A 
ATOM      4  C   UNL     1      -5.375  -3.461   0.020  0.00  0.00    +0.012 A 
ATOM      5  C   UNL     1      -4.805  -3.026  -1.158  0.00  0.00    +0.046 A 
ATOM      6  C   UNL     1      -3.504  -2.541  -1.162  0.00  0.00    +0.121 A 
ENDROOT
BRANCH   3   7
ATOM      7  C   UNL     1      -5.253  -3.888   2.473  0.00  0.00    -0.016 A 
ATOM      8  C   UNL     1      -4.522  -3.841   3.659  0.00  0.00    +0.012 A 
ATOM      9  C   UNL     1      -5.093  -4.277   4.837  0.00  0.00    +0.048 A 
ATOM     10  C   UNL     1      -6.393  -4.762   4.843  0.00  0.00    +0.138 A 
ATOM     11  C   UNL     1      -7.124  -4.810   3.663  0.00  0.00    +0.083 A 
ATOM     12  C   UNL     1      -6.561  -4.370   2.482  0.00  0.00    +0.032 A 
ATOM     13 CL   UNL     1      -8.750  -5.418   3.675  0.00  0.00    -0.080 Cl
BRANCH  10  14
ATOM     14  O   UNL     1      -6.952  -5.191   6.005  0.00  0.00    -0.494 OA
ATOM     15  C   UNL     1      -6.143  -5.114   7.181  0.00  0.00    +0.277 C 
ENDBRANCH  10  14
ENDBRANCH   3   7
BRANCH   6  16
ATOM     16  O   UNL     1      -2.946  -2.107  -2.323  0.00  0.00    -0.495 OA
ATOM     17  C   UNL     1      -3.758  -2.174  -3.498  0.00  0.00    +0.277 C 
ENDBRANCH   6  16
BRANCH   1  18
ATOM     18  C   UNL     1      -1.356  -1.981   0.004  0.00  0.00    -0.043 C 
BRANCH  18  19
ATOM     19  N   UNL     1      -1.376  -0.512   0.012  0.00  0.00    +0.382 N 
ATOM     20  H   UNL     1      -1.848  -0.187   0.843  0.00  0.00    -0.085 HD
ATOM     21  H   UNL     1      -1.864  -0.178  -0.805  0.00  0.00    -0.085 HD
BRANCH  19  23
ATOM     22  C   UNL     1      -0.019   1.526   0.010  0.00  0.00    -0.017 C 
ATOM     23  C   UNL     1       0.002  -0.004   0.002  0.00  0.00    -0.086 C 
ENDBRANCH  19  23
ENDBRANCH  18  19
ENDBRANCH   1  18
TORSDOF 6
