REMARK  Name = ZINC57415745
REMARK  7 active torsions:
REMARK  status: ('A' for Active; 'I' for Inactive)
REMARK    1  A    between atoms: C_1  and  C_2
REMARK    2  A    between atoms: C_5  and  C_24
REMARK    3  A    between atoms: C_6  and  N_8
REMARK    4  A    between atoms: N_8  and  C_9
REMARK    5  A    between atoms: C_9  and  N_11
REMARK    6  A    between atoms: N_11  and  N_12
REMARK    7  A    between atoms: C_21  and  O_22
REMARK                            x       y       z     vdW  Elec       q    Type
REMARK                         _______ _______ _______ _____ _____    ______ ____
ROOT
ATOM      1  N   UNL     1       0.267  -2.819   4.716  0.00  0.00    -0.217 N 
ATOM      2  H   UNL     1       0.338  -2.342   5.558  0.00  0.00    +0.176 HD
ENDROOT
BRANCH   1   3
ATOM      3  N   UNL     1       0.285  -4.109   4.702  0.00  0.00    -0.175 NA
ATOM      4  C   UNL     1       0.399  -4.776   5.828  0.00  0.00    +0.152 C 
ATOM      5  C   UNL     1       0.443  -6.245   6.014  0.00  0.00    +0.035 A 
ATOM      6  C   UNL     1       0.386  -7.328   5.149  0.00  0.00    +0.050 A 
ATOM      7  C   UNL     1       0.455  -8.613   5.655  0.00  0.00    +0.124 A 
ATOM      8  C   UNL     1       0.583  -8.819   7.022  0.00  0.00    +0.040 A 
ATOM      9  C   UNL     1       0.641  -7.753   7.893  0.00  0.00    +0.031 A 
ATOM     10  C   UNL     1       0.573  -6.445   7.404  0.00  0.00    +0.077 A 
ATOM     11  N   UNL     1       0.606  -5.238   8.028  0.00  0.00    -0.211 NA
ATOM     12  C   UNL     1       0.517  -4.234   7.195  0.00  0.00    +0.241 C 
ATOM     13  F   UNL     1       0.399  -9.671   4.816  0.00  0.00    -0.205 F 
BRANCH  12  14
ATOM     14  O   UNL     1       0.529  -2.921   7.530  0.00  0.00    -0.491 OA
ATOM     15  H   UNL     1       0.615  -2.758   8.479  0.00  0.00    +0.294 HD
ENDBRANCH  12  14
ENDBRANCH   1   3
BRANCH   1  16
ATOM     16  C   UNL     1       0.151  -2.134   3.561  0.00  0.00    +0.154 C 
ATOM     17  S   UNL     1       0.127  -0.423   3.580  0.00  0.00    -0.017 S 
BRANCH  16  18
ATOM     18  N   UNL     1       0.052  -2.797   2.392  0.00  0.00    -0.295 N 
ATOM     19  H   UNL     1      -0.014  -3.765   2.387  0.00  0.00    +0.154 HD
BRANCH  18  25
ATOM     20  C   UNL     1       1.920   0.767  -0.432  0.00  0.00    +0.044 C 
ATOM     21  C   UNL     1       0.941  -0.357  -0.210  0.00  0.00    -0.049 A 
ATOM     22  C   UNL     1       0.035  -0.690  -1.201  0.00  0.00    +0.004 A 
ATOM     23  C   UNL     1      -0.864  -1.721  -1.002  0.00  0.00    +0.005 A 
ATOM     24  C   UNL     1      -0.861  -2.422   0.188  0.00  0.00    -0.029 A 
ATOM     25  C   UNL     1       0.047  -2.090   1.185  0.00  0.00    +0.036 A 
ATOM     26  C   UNL     1       0.953  -1.057   0.980  0.00  0.00    +0.027 A 
ATOM     27  C   UNL     1      -1.842  -3.545   0.405  0.00  0.00    +0.045 C 
ENDBRANCH  18  25
ENDBRANCH  16  18
ENDBRANCH   1  16
TORSDOF 5
