REMARK  Name = ZINC08126231
REMARK  8 active torsions:
REMARK  status: ('A' for Active; 'I' for Inactive)
REMARK    1  A    between atoms: C_1  and  C_2
REMARK    2  A    between atoms: C_2  and  C_3
REMARK    3  A    between atoms: C_2  and  C_4
REMARK    4  A    between atoms: C_2  and  N_5
REMARK    5  A    between atoms: C_9  and  C_11
REMARK    6  A    between atoms: C_11  and  N_50
REMARK    7  A    between atoms: C_12  and  N_50
REMARK    8  A    between atoms: C_13  and  N_50
REMARK                            x       y       z     vdW  Elec       q    Type
REMARK                         _______ _______ _______ _____ _____    ______ ____
ROOT
ATOM      1  C   UNL     1      -0.119   0.005   0.143  0.00  0.00    +0.019 C 
ENDROOT
BRANCH   1   6
ATOM      2  N   UNL     1       1.340  -3.447   3.153  0.00  0.00    -0.294 N 
ATOM      3  C   UNL     1       1.299  -2.141   2.826  0.00  0.00    +0.306 C 
ATOM      4  O   UNL     1       1.849  -1.319   3.533  0.00  0.00    -0.252 OA
ATOM      5  N   UNL     1       0.649  -1.744   1.714  0.00  0.00    -0.242 N 
ATOM      6  C   UNL     1       0.608  -0.438   1.386  0.00  0.00    +0.204 C 
ATOM      7  O   UNL     1       1.156   0.382   2.092  0.00  0.00    -0.277 OA
ATOM      8  H   UNL     1       0.902  -4.103   2.588  0.00  0.00    +0.151 HD
ATOM      9  H   UNL     1       0.211  -2.400   1.149  0.00  0.00    +0.159 HD
BRANCH   2  11
ATOM     10  C   UNL     1       1.418  -3.210   5.586  0.00  0.00    +0.031 C 
ATOM     11  C   UNL     1       2.047  -3.878   4.362  0.00  0.00    +0.028 C 
ATOM     12  C   UNL     1       1.942  -5.398   4.500  0.00  0.00    +0.031 C 
ATOM     13  C   UNL     1       3.520  -3.476   4.262  0.00  0.00    +0.031 C 
ENDBRANCH   2  11
ENDBRANCH   1   6
BRANCH   1  15
ATOM     14  C   UNL     1       1.315   1.859  -0.465  0.00  0.00    -0.095 C 
ATOM     15  N   UNL     1      -0.022   1.476   0.036  0.00  0.00    +0.388 N 
ATOM     16  H   UNL     1      -0.159   1.888   0.967  0.00  0.00    -0.081 HD
BRANCH  15  17
ATOM     17  C   UNL     1      -1.068   1.987  -0.874  0.00  0.00    -0.037 C 
ATOM     18  C   UNL     1      -0.823   1.487  -2.297  0.00  0.00    -0.010 C 
ATOM     19  C   UNL     1      -1.793   2.212  -3.238  0.00  0.00    +0.003 C 
ATOM     20  C   UNL     1      -1.366   3.675  -3.335  0.00  0.00    +0.035 C 
ATOM     21  C   UNL     1      -1.191   4.268  -1.961  0.00  0.00    -0.046 A 
ATOM     22  C   UNL     1      -1.050   3.493  -0.832  0.00  0.00    -0.058 A 
ATOM     23  C   UNL     1      -0.885   4.103   0.405  0.00  0.00    +0.002 A 
ATOM     24  C   UNL     1      -0.865   5.478   0.511  0.00  0.00    +0.000 A 
ATOM     25  C   UNL     1      -1.010   6.256  -0.622  0.00  0.00    +0.000 A 
ATOM     26  C   UNL     1      -1.173   5.652  -1.852  0.00  0.00    +0.004 A 
ENDBRANCH  15  17
ENDBRANCH   1  15
TORSDOF 4
