REMARK  Name = ZINC53093349
REMARK  8 active torsions:
REMARK  status: ('A' for Active; 'I' for Inactive)
REMARK    1  A    between atoms: C_1  and  N_2
REMARK    2  A    between atoms: N_2  and  C_3
REMARK    3  A    between atoms: N_2  and  C_4
REMARK    4  A    between atoms: C_4  and  C_10
REMARK    5  A    between atoms: C_10  and  N_11
REMARK    6  A    between atoms: C_12  and  C_14
REMARK    7  A    between atoms: C_17  and  N_20
REMARK    8  A    between atoms: C_24  and  C_27
REMARK                            x       y       z     vdW  Elec       q    Type
REMARK                         _______ _______ _______ _____ _____    ______ ____
ROOT
ATOM      1  C   UNL     1      -1.216  -0.628  -4.864  0.00  0.00    +0.037 A 
ATOM      2  C   UNL     1      -0.081  -1.436  -4.753  0.00  0.00    +0.015 A 
ATOM      3  C   UNL     1       0.561  -1.879  -5.887  0.00  0.00    +0.024 A 
ATOM      4  C   UNL     1       0.081  -1.522  -7.144  0.00  0.00    +0.030 A 
ATOM      5  C   UNL     1      -1.050  -0.717  -7.258  0.00  0.00    +0.024 A 
ATOM      6  C   UNL     1      -1.699  -0.277  -6.128  0.00  0.00    +0.015 A 
ENDROOT
BRANCH   4   7
ATOM      7  N   UNL     1       0.731  -1.971  -8.288  0.00  0.00    -0.329 N 
ATOM      8  C   UNL     1       0.171  -1.706  -9.620  0.00  0.00    +0.105 C 
ATOM      9  C   UNL     1       1.243  -1.030 -10.481  0.00  0.00    +0.020 C 
ATOM     10  C   UNL     1       2.505  -1.896 -10.490  0.00  0.00    +0.016 C 
ATOM     11  C   UNL     1       3.044  -2.030  -9.064  0.00  0.00    +0.092 C 
ATOM     12  C   UNL     1       1.996  -2.713  -8.188  0.00  0.00    +0.117 C 
BRANCH  11  13
ATOM     13  C   UNL     1       4.305  -2.856  -9.079  0.00  0.00    +0.215 C 
ATOM     14  O   UNL     1       4.360  -3.890  -8.448  0.00  0.00    -0.276 OA
ATOM     15  N   UNL     1       5.372  -2.444  -9.792  0.00  0.00    -0.329 N 
ATOM     16  H   UNL     1       5.328  -1.616 -10.296  0.00  0.00    +0.145 HD
ATOM     17  H   UNL     1       6.183  -2.975  -9.802  0.00  0.00    +0.145 HD
ENDBRANCH  11  13
ENDBRANCH   4   7
BRANCH   1  19
ATOM     18  N   UNL     1      -1.440  -0.492  -2.433  0.00  0.00    -0.313 N 
ATOM     19  C   UNL     1      -1.907  -0.152  -3.650  0.00  0.00    +0.244 C 
ATOM     20  O   UNL     1      -2.897   0.546  -3.749  0.00  0.00    -0.270 OA
ATOM     21  H   UNL     1      -0.650  -1.049  -2.354  0.00  0.00    +0.149 HD
BRANCH  18  22
ATOM     22  C   UNL     1      -2.126  -0.019  -1.227  0.00  0.00    +0.092 C 
BRANCH  22  23
ATOM     23  C   UNL     1      -1.397  -0.543   0.012  0.00  0.00    -0.050 C 
ATOM     24  C   UNL     1      -2.114  -0.050   1.271  0.00  0.00    -0.010 C 
ATOM     25  C   UNL     1      -3.555  -0.562   1.272  0.00  0.00    -0.001 C 
ATOM     26  C   UNL     1      -3.552  -2.092   1.253  0.00  0.00    -0.000 C 
ATOM     27  C   UNL     1      -2.836  -2.586  -0.006  0.00  0.00    -0.001 C 
ATOM     28  C   UNL     1      -1.395  -2.073  -0.006  0.00  0.00    -0.010 C 
BRANCH  23  30
ATOM     29  C   UNL     1      -0.016   1.418   0.029  0.00  0.00    -0.096 C 
ATOM     30  N   UNL     1      -0.013  -0.051   0.012  0.00  0.00    +0.381 N 
ATOM     31  C   UNL     1       0.686  -0.554   1.202  0.00  0.00    -0.096 C 
ATOM     32  H   UNL     1       0.459  -0.377  -0.819  0.00  0.00    -0.082 HD
ENDBRANCH  23  30
ENDBRANCH  22  23
ENDBRANCH  18  22
ENDBRANCH   1  19
TORSDOF 6
