REMARK  Name = ZINC48846697
REMARK  4 active torsions:
REMARK  status: ('A' for Active; 'I' for Inactive)
REMARK    1  A    between atoms: C_8  and  C_10
REMARK    2  A    between atoms: C_8  and  N_13
REMARK    3  A    between atoms: N_13  and  C_14
REMARK    4  A    between atoms: C_20  and  N_22
REMARK                            x       y       z     vdW  Elec       q    Type
REMARK                         _______ _______ _______ _____ _____    ______ ____
ROOT
ATOM      1  N   UNL     1       3.076  -2.236  -2.009  0.00  0.00    +0.391 N 
ATOM      2  H   UNL     1       2.538  -3.074  -2.168  0.00  0.00    -0.084 HD
ATOM      3  H   UNL     1       2.700  -1.484  -2.567  0.00  0.00    -0.084 HD
ENDROOT
BRANCH   1  11
ATOM      4  C   UNL     1       7.590  -1.529   0.631  0.00  0.00    +0.000 A 
ATOM      5  C   UNL     1       7.393  -2.857   0.961  0.00  0.00    +0.000 A 
ATOM      6  C   UNL     1       6.129  -3.407   0.878  0.00  0.00    +0.004 A 
ATOM      7  C   UNL     1       5.057  -2.633   0.466  0.00  0.00    -0.045 A 
ATOM      8  C   UNL     1       5.254  -1.306   0.136  0.00  0.00    -0.045 A 
ATOM      9  C   UNL     1       6.522  -0.755   0.220  0.00  0.00    +0.004 A 
ATOM     10  C   UNL     1       3.939  -0.681  -0.280  0.00  0.00    +0.034 C 
ATOM     11  C   UNL     1       3.006  -1.872  -0.588  0.00  0.00    +0.044 C 
ATOM     12  C   UNL     1       3.597  -2.992   0.295  0.00  0.00    +0.034 C 
BRANCH  11  13
ATOM     13  C   UNL     1       1.589  -1.561  -0.181  0.00  0.00    +0.346 C 
ATOM     14  O   UNL     1       0.685  -1.663  -0.994  0.00  0.00    -0.248 OA
ATOM     15  O   UNL     1       1.345  -1.208   0.960  0.00  0.00    -0.248 OA
ENDBRANCH  11  13
ENDBRANCH   1  11
BRANCH   1  16
ATOM     16  C   UNL     1       4.476  -2.473  -2.386  0.00  0.00    -0.085 C 
ATOM     17  C   UNL     1       4.833  -3.938  -2.125  0.00  0.00    -0.017 C 
ATOM     18  C   UNL     1       3.920  -4.841  -2.958  0.00  0.00    -0.002 C 
ATOM     19  C   UNL     1       4.109  -4.527  -4.443  0.00  0.00    -0.002 C 
ATOM     20  C   UNL     1       3.752  -3.062  -4.704  0.00  0.00    -0.018 C 
ATOM     21  C   UNL     1       4.664  -2.159  -3.871  0.00  0.00    -0.090 C 
BRANCH  21  22
ATOM     22  N   UNL     1       4.322  -0.752  -4.122  0.00  0.00    +0.379 N 
ATOM     23  H   UNL     1       4.923  -0.157  -3.573  0.00  0.00    -0.090 HD
ATOM     24  H   UNL     1       4.446  -0.545  -5.101  0.00  0.00    -0.090 HD
ATOM     25  H   UNL     1       3.360  -0.589  -3.863  0.00  0.00    -0.090 HD
ENDBRANCH  21  22
ENDBRANCH   1  16
TORSDOF 4
