REMARK  Name = ZINC37821475
REMARK  3 active torsions:
REMARK  status: ('A' for Active; 'I' for Inactive)
REMARK    1  A    between atoms: C_1  and  C_2
REMARK    2  A    between atoms: C_6  and  C_19
REMARK    3  A    between atoms: C_10  and  C_12
REMARK                            x       y       z     vdW  Elec       q    Type
REMARK                         _______ _______ _______ _____ _____    ______ ____
ROOT
ATOM      1  C   UNL     1      -0.064   1.532   0.051  0.00  0.00    +0.028 C 
ATOM      2  C   UNL     1       0.253   0.053  -0.181  0.00  0.00    +0.073 C 
ATOM      3  C   UNL     1      -1.053  -0.743  -0.270  0.00  0.00    +0.023 C 
ATOM      4  C   UNL     1      -0.730  -2.236  -0.363  0.00  0.00    +0.016 C 
ATOM      5  C   UNL     1       0.019  -2.677   0.897  0.00  0.00    +0.092 C 
ATOM      6  C   UNL     1       1.337  -1.902   1.000  0.00  0.00    +0.120 C 
ATOM      7  N   UNL     1       1.048  -0.463   0.942  0.00  0.00    -0.299 N 
ATOM      8  C   UNL     1       1.502   0.368   1.901  0.00  0.00    +0.202 C 
ATOM      9  O   UNL     1       1.177   1.537   1.894  0.00  0.00    -0.277 OA
ENDROOT
BRANCH   8  10
ATOM     10  C   UNL     1       2.412  -0.154   2.982  0.00  0.00    +0.016 C 
ATOM     11  C   UNL     1       1.620  -1.076   3.913  0.00  0.00    -0.007 C 
ATOM     12  C   UNL     1       2.549  -1.605   5.010  0.00  0.00    -0.003 C 
ATOM     13  C   UNL     1       3.168  -0.420   5.756  0.00  0.00    -0.019 C 
ATOM     14  C   UNL     1       3.902   0.478   4.757  0.00  0.00    -0.082 C 
ATOM     15  N   UNL     1       2.955   0.972   3.751  0.00  0.00    +0.387 N 
ATOM     16  H   UNL     1       3.431   1.606   3.126  0.00  0.00    -0.085 HD
ATOM     17  H   UNL     1       2.201   1.459   4.210  0.00  0.00    -0.085 HD
ENDBRANCH   8  10
BRANCH   5  18
ATOM     18  C   UNL     1       0.308  -4.154   0.820  0.00  0.00    +0.215 C 
ATOM     19  O   UNL     1       1.454  -4.550   0.847  0.00  0.00    -0.276 OA
ATOM     20  N   UNL     1      -0.708  -5.035   0.720  0.00  0.00    -0.329 N 
ATOM     21  H   UNL     1      -1.624  -4.718   0.698  0.00  0.00    +0.145 HD
ATOM     22  H   UNL     1      -0.522  -5.985   0.671  0.00  0.00    +0.145 HD
ENDBRANCH   5  18
TORSDOF 2
