REMARK  Name = ZINC20750053
REMARK  4 active torsions:
REMARK  status: ('A' for Active; 'I' for Inactive)
REMARK    1  A    between atoms: C_1  and  N_2
REMARK    2  A    between atoms: N_5  and  S_8
REMARK    3  A    between atoms: S_8  and  C_11
REMARK    4  A    between atoms: C_24  and  C_27
REMARK                            x       y       z     vdW  Elec       q    Type
REMARK                         _______ _______ _______ _____ _____    ______ ____
ROOT
ATOM      1  C   UNL     1       2.760  -0.853   1.686  0.00  0.00    +0.106 A 
ATOM      2  C   UNL     1       1.381  -0.940   1.646  0.00  0.00    +0.030 A 
ATOM      3  C   UNL     1       0.681  -1.242   2.797  0.00  0.00    +0.025 A 
ATOM      4  C   UNL     1       1.363  -1.457   3.989  0.00  0.00    +0.031 A 
ATOM      5  C   UNL     1       2.746  -1.375   4.033  0.00  0.00    -0.018 A 
ATOM      6  C   UNL     1       3.438  -1.075   2.867  0.00  0.00    +0.034 A 
ATOM      7  C   UNL     1       3.522  -1.603   5.290  0.00  0.00    +0.049 C 
ATOM      8  C   UNL     1       4.040  -0.305   5.862  0.00  0.00    -0.023 C 
ATOM      9  C   UNL     1       4.024  -0.330   7.161  0.00  0.00    -0.030 C 
ATOM     10  C   UNL     1       3.465  -1.651   7.654  0.00  0.00    +0.033 C 
ATOM     11  C   UNL     1       2.664  -2.184   6.431  0.00  0.00    +0.029 C 
ATOM     12  C   UNL     1       1.292  -1.505   6.451  0.00  0.00    +0.108 C 
ATOM     13  N   UNL     1       0.639  -1.754   5.149  0.00  0.00    -0.336 N 
ATOM     14  H   UNL     1      -0.383  -2.159   5.115  0.00  0.00    +0.147 HD
ENDROOT
BRANCH  12  15
ATOM     15  C   UNL     1       1.464  -0.027   6.691  0.00  0.00    +0.010 A 
ATOM     16  C   UNL     1       1.708   0.443   7.969  0.00  0.00    +0.047 A 
ATOM     17  C   UNL     1       1.873   1.800   8.187  0.00  0.00    +0.020 A 
ATOM     18  C   UNL     1       1.780   2.686   7.131  0.00  0.00    +0.003 A 
ATOM     19  C   UNL     1       1.530   2.218   5.854  0.00  0.00    +0.020 A 
ATOM     20  C   UNL     1       1.372   0.861   5.634  0.00  0.00    +0.047 A 
ATOM     21 CL   UNL     1       1.059   0.273   4.031  0.00  0.00    -0.083 Cl
ATOM     22 CL   UNL     1       1.817  -0.669   9.297  0.00  0.00    -0.083 Cl
ENDBRANCH  12  15
BRANCH   1  23
ATOM     23  S   UNL     1       3.657  -0.465   0.220  0.00  0.00    +0.061 S 
ATOM     24  O   UNL     1       2.832  -0.844  -0.873  0.00  0.00    -0.153 OA
ATOM     25  O   UNL     1       4.970  -0.979   0.398  0.00  0.00    -0.153 OA
BRANCH  23  30
ATOM     26  C   UNL     1       3.131   5.032   1.689  0.00  0.00    -0.096 C 
ATOM     27  N   UNL     1       3.522   3.853   0.906  0.00  0.00    +0.380 N 
ATOM     28  C   UNL     1       4.421   2.984   1.677  0.00  0.00    -0.062 C 
ATOM     29  C   UNL     1       4.948   1.867   0.770  0.00  0.00    +0.091 C 
ATOM     30  N   UNL     1       3.800   1.184   0.155  0.00  0.00    -0.180 NA
ATOM     31  C   UNL     1       2.785   2.003  -0.524  0.00  0.00    +0.091 C 
ATOM     32  C   UNL     1       2.340   3.115   0.439  0.00  0.00    -0.062 C 
ATOM     33  H   UNL     1       4.071   4.200   0.019  0.00  0.00    -0.082 HD
ENDBRANCH  23  30
ENDBRANCH   1  23
TORSDOF 3
