REMARK  Name = ZINC52619327
REMARK  6 active torsions:
REMARK  status: ('A' for Active; 'I' for Inactive)
REMARK    1  A    between atoms: C_1  and  C_2
REMARK    2  A    between atoms: C_5  and  O_8
REMARK    3  A    between atoms: O_8  and  C_9
REMARK    4  A    between atoms: C_9  and  C_10
REMARK    5  A    between atoms: C_11  and  C_19
REMARK    6  A    between atoms: C_19  and  N_20
REMARK                            x       y       z     vdW  Elec       q    Type
REMARK                         _______ _______ _______ _____ _____    ______ ____
ROOT
ATOM      1  C   UNL     1      -1.955  -2.405   4.718  0.00  0.00    +0.133 A 
ATOM      2  C   UNL     1      -3.242  -2.642   5.010  0.00  0.00    -0.014 A 
ATOM      3  C   UNL     1      -3.533  -1.877   6.228  0.00  0.00    +0.022 A 
ATOM      4  C   UNL     1      -4.665  -1.703   7.022  0.00  0.00    +0.012 A 
ATOM      5  C   UNL     1      -4.602  -0.898   8.126  0.00  0.00    +0.001 A 
ATOM      6  C   UNL     1      -3.419  -0.253   8.458  0.00  0.00    +0.004 A 
ATOM      7  C   UNL     1      -2.290  -0.413   7.685  0.00  0.00    +0.047 A 
ATOM      8  C   UNL     1      -2.332  -1.228   6.560  0.00  0.00    +0.135 A 
ATOM      9  O   UNL     1      -1.418  -1.578   5.633  0.00  0.00    -0.457 OA
ENDROOT
BRANCH   1  10
ATOM     10  C   UNL     1      -1.216  -2.986   3.541  0.00  0.00    +0.234 C 
BRANCH  10  11
ATOM     11  O   UNL     1      -1.341  -2.110   2.420  0.00  0.00    -0.369 OA
BRANCH  11  16
ATOM     12  C   UNL     1      -0.019   1.526   0.010  0.00  0.00    +0.007 C 
ATOM     13  C   UNL     1       0.002  -0.004   0.002  0.00  0.00    -0.014 C 
ATOM     14  C   UNL     1      -1.433  -0.534   0.013  0.00  0.00    +0.006 C 
ATOM     15  C   UNL     1      -1.413  -2.063   0.004  0.00  0.00    +0.032 C 
ATOM     16  C   UNL     1      -0.673  -2.570   1.244  0.00  0.00    +0.119 C 
ATOM     17  C   UNL     1       0.763  -2.041   1.233  0.00  0.00    +0.032 C 
ATOM     18  C   UNL     1       0.742  -0.511   1.242  0.00  0.00    +0.006 C 
ENDBRANCH  11  16
ENDBRANCH  10  11
ENDBRANCH   1  10
BRANCH   2  19
ATOM     19  C   UNL     1      -4.197  -3.517   4.240  0.00  0.00    -0.046 C 
BRANCH  19  20
ATOM     20  N   UNL     1      -4.133  -4.888   4.763  0.00  0.00    +0.381 N 
ATOM     21  H   UNL     1      -4.773  -5.475   4.247  0.00  0.00    -0.090 HD
ATOM     22  H   UNL     1      -3.195  -5.244   4.660  0.00  0.00    -0.090 HD
ATOM     23  H   UNL     1      -4.388  -4.889   5.739  0.00  0.00    -0.090 HD
ENDBRANCH  19  20
ENDBRANCH   2  19
TORSDOF 5
