REMARK  Name = ZINC38018963
REMARK  6 active torsions:
REMARK  status: ('A' for Active; 'I' for Inactive)
REMARK    1  A    between atoms: C_1  and  C_2
REMARK    2  A    between atoms: C_2  and  C_4
REMARK    3  A    between atoms: C_2  and  N_12
REMARK    4  A    between atoms: N_12  and  C_13
REMARK    5  A    between atoms: C_13  and  C_14
REMARK    6  A    between atoms: N_23  and  C_24
REMARK                            x       y       z     vdW  Elec       q    Type
REMARK                         _______ _______ _______ _____ _____    ______ ____
ROOT
ATOM      1  N   UNL     1       0.703  -0.452   1.213  0.00  0.00    +0.384 N 
ATOM      2  H   UNL     1       0.300  -0.036   2.039  0.00  0.00    -0.085 HD
ATOM      3  H   UNL     1       0.620  -1.456   1.268  0.00  0.00    -0.085 HD
ENDROOT
BRANCH   1   5
ATOM      4  C   UNL     1       0.012   1.564   0.008  0.00  0.00    -0.009 C 
ATOM      5  C   UNL     1      -0.007   0.034   0.023  0.00  0.00    -0.043 C 
BRANCH   5   6
ATOM      6  C   UNL     1      -1.434  -0.450   0.057  0.00  0.00    -0.043 A 
ATOM      7  C   UNL     1      -2.032  -0.753   1.266  0.00  0.00    +0.005 A 
ATOM      8  C   UNL     1      -3.341  -1.197   1.298  0.00  0.00    +0.020 A 
ATOM      9  C   UNL     1      -4.053  -1.337   0.120  0.00  0.00    +0.042 A 
ATOM     10  C   UNL     1      -3.455  -1.034  -1.090  0.00  0.00    +0.040 A 
ATOM     11  C   UNL     1      -2.147  -0.585  -1.121  0.00  0.00    +0.044 A 
ATOM     12 CL   UNL     1      -1.397  -0.197  -2.638  0.00  0.00    -0.083 Cl
ATOM     13 CL   UNL     1      -5.696  -1.895   0.160  0.00  0.00    -0.083 Cl
ENDBRANCH   5   6
ENDBRANCH   1   5
BRANCH   1  14
ATOM     14  C   UNL     1       2.122  -0.083   1.122  0.00  0.00    -0.078 C 
BRANCH  14  15
ATOM     15  C   UNL     1       2.862  -0.589   2.361  0.00  0.00    -0.031 C 
ATOM     16  C   UNL     1       2.769  -2.117   2.421  0.00  0.00    -0.014 C 
ATOM     17  C   UNL     1       3.544  -2.709   1.234  0.00  0.00    -0.068 C 
ATOM     18  C   UNL     1       3.103  -1.956  -0.042  0.00  0.00    -0.017 C 
ATOM     19  C   UNL     1       4.054  -0.745  -0.136  0.00  0.00    -0.017 C 
ATOM     20  C   UNL     1       4.984  -0.876   1.092  0.00  0.00    -0.068 C 
ATOM     21  C   UNL     1       4.331  -0.163   2.288  0.00  0.00    -0.014 C 
ATOM     22  N   UNL     1       4.974  -2.343   1.414  0.00  0.00    +0.382 N 
ATOM     23  C   UNL     1       5.821  -3.085   0.470  0.00  0.00    -0.095 C 
ATOM     24  H   UNL     1       5.267  -2.512   2.365  0.00  0.00    -0.081 HD
ENDBRANCH  14  15
ENDBRANCH   1  14
TORSDOF 4
