REMARK  Name = ZINC37806211
REMARK  8 active torsions:
REMARK  status: ('A' for Active; 'I' for Inactive)
REMARK    1  A    between atoms: C_1  and  C_2
REMARK    2  A    between atoms: C_2  and  N_3
REMARK    3  A    between atoms: C_4  and  C_6
REMARK    4  A    between atoms: C_6  and  N_7
REMARK    5  A    between atoms: C_13  and  C_15
REMARK    6  A    between atoms: C_15  and  N_16
REMARK    7  A    between atoms: C_17  and  C_19
REMARK    8  A    between atoms: C_19  and  N_20
REMARK                            x       y       z     vdW  Elec       q    Type
REMARK                         _______ _______ _______ _____ _____    ______ ____
ROOT
ATOM      1  N   UNL     1      -2.994  -3.830   0.010  0.00  0.00    -0.291 NA
ATOM      2  C   UNL     1      -2.435  -4.342  -1.248  0.00  0.00    +0.104 C 
ATOM      3  C   UNL     1      -2.264  -5.861  -1.146  0.00  0.00    +0.123 C 
ATOM      4  N   UNL     1      -3.552  -6.452  -0.753  0.00  0.00    -0.298 N 
ATOM      5  C   UNL     1      -4.242  -5.897   0.422  0.00  0.00    +0.123 C 
ATOM      6  C   UNL     1      -4.335  -4.376   0.258  0.00  0.00    +0.104 C 
ATOM      7  C   UNL     1      -4.086  -7.474  -1.450  0.00  0.00    +0.233 C 
ATOM      8  O   UNL     1      -3.503  -7.919  -2.416  0.00  0.00    -0.274 OA
ENDROOT
BRANCH   1   9
ATOM      9  C   UNL     1      -3.014  -2.361   0.018  0.00  0.00    +0.180 C 
BRANCH   9  11
ATOM     10  N   UNL     1      -1.372  -0.511   0.012  0.00  0.00    -0.315 N 
ATOM     11  C   UNL     1      -1.601  -1.839   0.007  0.00  0.00    +0.227 C 
ATOM     12  O   UNL     1      -0.668  -2.615  -0.006  0.00  0.00    -0.274 OA
ATOM     13  H   UNL     1      -2.118   0.109   0.023  0.00  0.00    +0.149 HD
BRANCH  10  15
ATOM     14  C   UNL     1      -0.019   1.526   0.010  0.00  0.00    +0.024 C 
ATOM     15  C   UNL     1       0.002  -0.004   0.002  0.00  0.00    +0.101 C 
ENDBRANCH  10  15
ENDBRANCH   9  11
ENDBRANCH   1   9
BRANCH   7  16
ATOM     16  C   UNL     1      -5.407  -8.064  -1.029  0.00  0.00    +0.200 C 
BRANCH  16  17
ATOM     17  N   UNL     1      -5.768  -9.153  -1.940  0.00  0.00    -0.308 N 
ATOM     18  C   UNL     1      -6.918  -9.831  -1.757  0.00  0.00    +0.196 C 
ATOM     19  O   UNL     1      -7.654  -9.540  -0.838  0.00  0.00    -0.278 OA
ATOM     20  H   UNL     1      -5.180  -9.385  -2.675  0.00  0.00    +0.149 HD
BRANCH  18  21
ATOM     21  C   UNL     1      -7.290 -10.951  -2.694  0.00  0.00    +0.011 C 
BRANCH  21  22
ATOM     22  N   UNL     1      -8.578 -11.526  -2.284  0.00  0.00    +0.384 N 
ATOM     23  H   UNL     1      -9.290 -10.812  -2.315  0.00  0.00    -0.089 HD
ATOM     24  H   UNL     1      -8.826 -12.276  -2.912  0.00  0.00    -0.089 HD
ATOM     25  H   UNL     1      -8.502 -11.885  -1.344  0.00  0.00    -0.089 HD
ENDBRANCH  21  22
ENDBRANCH  18  21
ENDBRANCH  16  17
ENDBRANCH   7  16
TORSDOF 7
