REMARK  Name = ZINC08766880
REMARK  6 active torsions:
REMARK  status: ('A' for Active; 'I' for Inactive)
REMARK    1  A    between atoms: C_1  and  C_2
REMARK    2  A    between atoms: C_2  and  C_31
REMARK    3  A    between atoms: C_3  and  N_28
REMARK    4  A    between atoms: C_5  and  C_21
REMARK    5  A    between atoms: C_7  and  C_14
REMARK    6  A    between atoms: C_9  and  N_11
REMARK                            x       y       z     vdW  Elec       q    Type
REMARK                         _______ _______ _______ _____ _____    ______ ____
ROOT
ATOM      1  C   UNL     1       3.692   6.201  -0.289  0.00  0.00    +0.015 C 
ATOM      2  C   UNL     1       3.806   4.962  -1.180  0.00  0.00    +0.017 C 
ATOM      3  C   UNL     1       4.963   4.086  -0.692  0.00  0.00    +0.168 C 
ATOM      4  C   UNL     1       4.670   3.609   0.732  0.00  0.00    -0.008 C 
ATOM      5  C   UNL     1       2.282   3.680   0.326  0.00  0.00    -0.008 C 
ATOM      6  C   UNL     1       2.503   4.160  -1.110  0.00  0.00    +0.168 C 
ATOM      7  C   UNL     1       4.065   5.394  -2.625  0.00  0.00    +0.015 C 
ATOM      8  N   UNL     1       3.414   2.834   0.749  0.00  0.00    +0.391 N 
ATOM      9  H   UNL     1       3.242   2.490   1.701  0.00  0.00    -0.084 HD
ATOM     10  H   UNL     1       3.499   2.038   0.106  0.00  0.00    -0.084 HD
ENDROOT
BRANCH   5  11
ATOM     11  C   UNL     1       1.011   2.873   0.396  0.00  0.00    -0.041 A 
ATOM     12  C   UNL     1       1.069   1.492   0.399  0.00  0.00    +0.003 A 
ATOM     13  C   UNL     1      -0.097   0.752   0.464  0.00  0.00    +0.000 A 
ATOM     14  C   UNL     1      -1.321   1.392   0.519  0.00  0.00    +0.001 A 
ATOM     15  C   UNL     1      -1.380   2.773   0.521  0.00  0.00    +0.020 A 
ATOM     16  C   UNL     1      -0.213   3.515   0.457  0.00  0.00    +0.043 A 
ATOM     17 CL   UNL     1      -0.286   5.249   0.452  0.00  0.00    -0.083 Cl
ENDBRANCH   5  11
BRANCH   4  18
ATOM     18  C   UNL     1       5.797   2.729   1.209  0.00  0.00    -0.041 A 
ATOM     19  C   UNL     1       5.703   1.356   1.083  0.00  0.00    +0.003 A 
ATOM     20  C   UNL     1       6.737   0.549   1.521  0.00  0.00    +0.000 A 
ATOM     21  C   UNL     1       7.866   1.116   2.083  0.00  0.00    +0.001 A 
ATOM     22  C   UNL     1       7.961   2.489   2.209  0.00  0.00    +0.020 A 
ATOM     23  C   UNL     1       6.929   3.297   1.766  0.00  0.00    +0.043 A 
ATOM     24 CL   UNL     1       7.051   5.022   1.917  0.00  0.00    -0.083 Cl
ENDBRANCH   4  18
BRANCH   6  25
ATOM     25  N   UNL     1       2.594   3.002  -2.003  0.00  0.00    +0.025 N 
ATOM     26  O   UNL     1       2.553   1.875  -1.545  0.00  0.00    -0.131 OA
ATOM     27  O   UNL     1       2.709   3.168  -3.205  0.00  0.00    -0.131 OA
ENDBRANCH   6  25
BRANCH   3  28
ATOM     28  N   UNL     1       5.105   2.927  -1.577  0.00  0.00    +0.025 N 
ATOM     29  O   UNL     1       4.873   1.807  -1.156  0.00  0.00    -0.131 OA
ATOM     30  O   UNL     1       5.455   3.082  -2.733  0.00  0.00    -0.131 OA
ENDBRANCH   3  28
TORSDOF 4
