REMARK  Name = ZINC37282780
REMARK  5 active torsions:
REMARK  status: ('A' for Active; 'I' for Inactive)
REMARK    1  A    between atoms: C_1  and  C_2
REMARK    2  A    between atoms: C_10  and  C_11
REMARK    3  A    between atoms: C_11  and  C_13
REMARK    4  A    between atoms: C_11  and  N_14
REMARK    5  A    between atoms: N_14  and  C_15
REMARK                            x       y       z     vdW  Elec       q    Type
REMARK                         _______ _______ _______ _____ _____    ______ ____
ROOT
ATOM      1  C   UNL     1       0.448   0.117   2.487  0.00  0.00    -0.036 C 
ATOM      2  C   UNL     1      -1.016   0.264   2.907  0.00  0.00    -0.008 C 
ENDROOT
BRANCH   1  12
ATOM      3  C   UNL     1       1.384   2.322   0.621  0.00  0.00    +0.045 C 
ATOM      4  C   UNL     1       0.939   0.972   0.122  0.00  0.00    -0.034 A 
ATOM      5  C   UNL     1       0.950   0.675  -1.303  0.00  0.00    -0.008 A 
ATOM      6  C   UNL     1       1.339   1.508  -2.379  0.00  0.00    +0.009 A 
ATOM      7  C   UNL     1       1.283   1.060  -3.661  0.00  0.00    +0.001 A 
ATOM      8  C   UNL     1       0.847  -0.223  -3.963  0.00  0.00    +0.001 A 
ATOM      9  C   UNL     1       0.459  -1.068  -2.941  0.00  0.00    +0.015 A 
ATOM     10  C   UNL     1       0.511  -0.624  -1.637  0.00  0.00    +0.020 A 
ATOM     11  S   UNL     1       0.119  -1.349  -0.066  0.00  0.00    -0.095 S 
ATOM     12  C   UNL     1       0.534   0.030   0.985  0.00  0.00    -0.020 A 
ENDBRANCH   1  12
BRANCH   1  13
ATOM     13  N   UNL     1       1.006  -1.105   3.081  0.00  0.00    +0.391 N 
ATOM     14  H   UNL     1       0.417  -1.891   2.850  0.00  0.00    -0.084 HD
ATOM     15  H   UNL     1       1.934  -1.262   2.718  0.00  0.00    -0.084 HD
BRANCH  13  16
ATOM     16  C   UNL     1       1.071  -0.954   4.541  0.00  0.00    +0.017 C 
ATOM     17  C   UNL     1      -0.216  -1.490   5.172  0.00  0.00    -0.007 C 
ATOM     18  C   UNL     1      -0.738  -2.686   4.395  0.00  0.00    +0.000 C 
ATOM     19  C   UNL     1       0.160  -3.907   4.475  0.00  0.00    +0.019 C 
ATOM     20  C   UNL     1       1.489  -3.655   3.761  0.00  0.00    +0.104 C 
ATOM     21  N   UNL     1       2.419  -3.019   4.709  0.00  0.00    -0.317 N 
ATOM     22  C   UNL     1       2.243  -1.747   5.083  0.00  0.00    +0.199 C 
ATOM     23  O   UNL     1       3.016  -1.228   5.860  0.00  0.00    -0.278 OA
ATOM     24  H   UNL     1       3.167  -3.524   5.063  0.00  0.00    +0.149 HD
ENDBRANCH  13  16
ENDBRANCH   1  13
TORSDOF 3
