REMARK  Name = ZINC51148067
REMARK  5 active torsions:
REMARK  status: ('A' for Active; 'I' for Inactive)
REMARK    1  A    between atoms: C_9  and  O_12
REMARK    2  A    between atoms: O_12  and  C_13
REMARK    3  A    between atoms: C_13  and  C_14
REMARK    4  A    between atoms: C_15  and  N_19
REMARK    5  A    between atoms: N_19  and  N_20
REMARK                            x       y       z     vdW  Elec       q    Type
REMARK                         _______ _______ _______ _____ _____    ______ ____
ROOT
ATOM      1  O   UNL     1       4.875  -2.647  -0.054  0.00  0.00    -0.485 OA
ENDROOT
BRANCH   1  10
ATOM      2  C   UNL     1      -0.016   1.357   0.009  0.00  0.00    +0.001 A 
ATOM      3  C   UNL     1       1.168   2.091   0.002  0.00  0.00    +0.001 A 
ATOM      4  C   UNL     1       2.378   1.468  -0.013  0.00  0.00    +0.010 A 
ATOM      5  C   UNL     1       2.438   0.063  -0.021  0.00  0.00    -0.000 A 
ATOM      6  C   UNL     1       1.232  -0.683  -0.013  0.00  0.00    -0.017 A 
ATOM      7  C   UNL     1       0.002  -0.004   0.002  0.00  0.00    +0.008 A 
ATOM      8  C   UNL     1       1.288  -2.088  -0.020  0.00  0.00    +0.012 A 
ATOM      9  C   UNL     1       2.493  -2.718  -0.034  0.00  0.00    +0.047 A 
ATOM     10  C   UNL     1       3.686  -1.990  -0.041  0.00  0.00    +0.136 A 
ATOM     11  C   UNL     1       3.669  -0.613  -0.036  0.00  0.00    +0.067 A 
ATOM     12 BR   UNL     1       5.290   0.359  -0.046  0.00  0.00    -0.046 Br
ENDBRANCH   1  10
BRANCH   1  13
ATOM     13  C   UNL     1       4.827  -4.076  -0.060  0.00  0.00    +0.288 C 
BRANCH  13  14
ATOM     14  C   UNL     1       6.229  -4.626  -0.074  0.00  0.00    +0.131 A 
ATOM     15  C   UNL     1       6.893  -4.879  -1.241  0.00  0.00    +0.126 A 
ATOM     16  S   UNL     1       8.368  -5.461  -0.684  0.00  0.00    +0.053 S 
ATOM     17  N   UNL     1       8.082  -5.358   0.964  0.00  0.00    -0.108 NA
ATOM     18  N   UNL     1       6.885  -4.883   1.036  0.00  0.00    -0.141 NA
BRANCH  15  19
ATOM     19  N   UNL     1       6.458  -4.702  -2.552  0.00  0.00    -0.274 N 
ATOM     20  H   UNL     1       5.570  -4.353  -2.726  0.00  0.00    +0.167 HD
BRANCH  19  21
ATOM     21  N   UNL     1       7.284  -5.019  -3.594  0.00  0.00    -0.256 NA
ATOM     22  H   UNL     1       7.590  -5.979  -3.533  0.00  0.00    +0.140 HD
ATOM     23  H   UNL     1       6.834  -4.838  -4.479  0.00  0.00    +0.140 HD
ENDBRANCH  19  21
ENDBRANCH  15  19
ENDBRANCH  13  14
ENDBRANCH   1  13
TORSDOF 5
