REMARK  Name = ZINC13810792
REMARK  11 active torsions:
REMARK  status: ('A' for Active; 'I' for Inactive)
REMARK    1  A    between atoms: C_1  and  C_2
REMARK    2  A    between atoms: C_5  and  O_8
REMARK    3  A    between atoms: O_8  and  C_9
REMARK    4  A    between atoms: C_9  and  C_10
REMARK    5  A    between atoms: C_10  and  C_12
REMARK    6  A    between atoms: C_10  and  O_30
REMARK    7  A    between atoms: C_12  and  N_13
REMARK    8  A    between atoms: N_21  and  C_29
REMARK    9  A    between atoms: N_25  and  C_26
REMARK   10  A    between atoms: C_26  and  C_27
REMARK   11  A    between atoms: C_27  and  N_28
REMARK                            x       y       z     vdW  Elec       q    Type
REMARK                         _______ _______ _______ _____ _____    ______ ____
ROOT
ATOM      1  N   UNL     1      -0.122  -8.450   2.187  0.00  0.00    -0.304 N 
ATOM      2  C   UNL     1      -1.290  -9.182   2.019  0.00  0.00    +0.153 A 
ATOM      3  C   UNL     1      -2.658  -8.859   1.987  0.00  0.00    +0.280 A 
ATOM      4  O   UNL     1      -3.021  -7.704   2.126  0.00  0.00    -0.265 OA
ATOM      5  N   UNL     1      -3.564  -9.841   1.799  0.00  0.00    -0.273 N 
ATOM      6  H   UNL     1      -4.508  -9.621   1.776  0.00  0.00    +0.173 HD
ATOM      7  C   UNL     1      -3.177 -11.119   1.643  0.00  0.00    +0.331 A 
ATOM      8  O   UNL     1      -4.022 -11.977   1.475  0.00  0.00    -0.246 OA
ATOM      9  N   UNL     1      -1.878 -11.471   1.667  0.00  0.00    -0.280 N 
ATOM     10  C   UNL     1      -0.901 -10.507   1.857  0.00  0.00    +0.170 A 
ATOM     11  N   UNL     1       0.431 -10.547   1.927  0.00  0.00    -0.196 NA
ATOM     12  C   UNL     1       0.908  -9.334   2.117  0.00  0.00    +0.198 A 
ATOM     13  N   UNL     1       2.241  -9.012   2.231  0.00  0.00    -0.317 N 
ATOM     14  C   UNL     1      -1.497 -12.875   1.493  0.00  0.00    +0.155 C 
ATOM     15  H   UNL     1       2.507  -8.091   2.373  0.00  0.00    +0.149 HD
ENDROOT
BRANCH   1  16
ATOM     16  C   UNL     1      -0.020  -7.003   2.395  0.00  0.00    +0.160 C 
BRANCH  16  17
ATOM     17  C   UNL     1       0.090  -6.300   1.040  0.00  0.00    +0.172 C 
BRANCH  17  18
ATOM     18  O   UNL     1       1.313  -6.679   0.405  0.00  0.00    -0.387 OA
ATOM     19  H   UNL     1       2.106  -6.450   0.910  0.00  0.00    +0.210 HD
ENDBRANCH  17  18
BRANCH  17  20
ATOM     20  C   UNL     1       0.072  -4.785   1.249  0.00  0.00    +0.262 C 
BRANCH  20  21
ATOM     21  O   UNL     1       0.057  -4.129  -0.021  0.00  0.00    -0.489 OA
BRANCH  21  26
ATOM     22  C   UNL     1      -0.018   1.503   0.010  0.00  0.00    +0.044 C 
ATOM     23  C   UNL     1       0.002  -0.004   0.002  0.00  0.00    -0.050 A 
ATOM     24  C   UNL     1       0.006  -0.688  -1.200  0.00  0.00    +0.007 A 
ATOM     25  C   UNL     1       0.024  -2.069  -1.210  0.00  0.00    +0.046 A 
ATOM     26  C   UNL     1       0.039  -2.770  -0.013  0.00  0.00    +0.121 A 
ATOM     27  C   UNL     1       0.036  -2.082   1.191  0.00  0.00    +0.046 A 
ATOM     28  C   UNL     1       0.023  -0.701   1.196  0.00  0.00    +0.007 A 
ENDBRANCH  21  26
ENDBRANCH  20  21
ENDBRANCH  17  20
ENDBRANCH  16  17
ENDBRANCH   1  16
BRANCH  13  29
ATOM     29  C   UNL     1       3.258 -10.062   2.136  0.00  0.00    +0.085 C 
BRANCH  29  30
ATOM     30  C   UNL     1       4.648  -9.442   2.294  0.00  0.00    -0.067 C 
BRANCH  30  31
ATOM     31  N   UNL     1       5.668 -10.495   2.200  0.00  0.00    +0.379 N 
ATOM     32  H   UNL     1       5.518 -11.175   2.930  0.00  0.00    -0.090 HD
ATOM     33  H   UNL     1       5.602 -10.947   1.300  0.00  0.00    -0.090 HD
ATOM     34  H   UNL     1       6.584 -10.086   2.304  0.00  0.00    -0.090 HD
ENDBRANCH  30  31
ENDBRANCH  29  30
ENDBRANCH  13  29
TORSDOF 9
