REMARK  Name = ZINC32099480
REMARK  5 active torsions:
REMARK  status: ('A' for Active; 'I' for Inactive)
REMARK    1  A    between atoms: C_1  and  O_2
REMARK    2  A    between atoms: O_2  and  C_3
REMARK    3  A    between atoms: C_5  and  C_12
REMARK    4  A    between atoms: C_8  and  O_9
REMARK    5  A    between atoms: C_13  and  C_21
REMARK                            x       y       z     vdW  Elec       q    Type
REMARK                         _______ _______ _______ _____ _____    ______ ____
ROOT
ATOM      1  C   UNL     1       0.476  -0.617  -1.137  0.00  0.00    +0.163 A 
ATOM      2  C   UNL     1       1.040   0.149  -2.139  0.00  0.00    +0.060 A 
ATOM      3  C   UNL     1       1.791  -0.464  -3.145  0.00  0.00    +0.021 A 
ATOM      4  C   UNL     1       1.969  -1.850  -3.133  0.00  0.00    +0.045 A 
ATOM      5  C   UNL     1       1.403  -2.609  -2.129  0.00  0.00    +0.077 A 
ATOM      6  C   UNL     1       0.661  -1.998  -1.127  0.00  0.00    +0.174 A 
ATOM      7 BR   UNL     1       1.643  -4.485  -2.114  0.00  0.00    -0.045 Br
ATOM      8 BR   UNL     1       2.984  -2.685  -4.492  0.00  0.00    -0.048 Br
ENDROOT
BRANCH   3   9
ATOM      9  C   UNL     1       2.395   0.351  -4.218  0.00  0.00    +0.100 A 
ATOM     10  C   UNL     1       3.279   1.398  -3.902  0.00  0.00    +0.142 A 
ATOM     11  C   UNL     1       3.835   2.153  -4.968  0.00  0.00    +0.272 A 
ATOM     12  O   UNL     1       4.606   3.070  -4.745  0.00  0.00    -0.266 OA
ATOM     13  N   UNL     1       3.492   1.833  -6.233  0.00  0.00    -0.272 N 
ATOM     14  H   UNL     1       3.861   2.337  -6.975  0.00  0.00    +0.174 HD
ATOM     15  C   UNL     1       2.632   0.809  -6.473  0.00  0.00    +0.349 A 
ATOM     16  O   UNL     1       2.307   0.513  -7.747  0.00  0.00    -0.245 OA
ATOM     17  N   UNL     1       2.111   0.096  -5.500  0.00  0.00    -0.192 NA
BRANCH  10  18
ATOM     18  C   UNL     1       3.609   1.696  -2.540  0.00  0.00    +0.107 C 
ATOM     19  N   UNL     1       3.871   1.931  -1.460  0.00  0.00    -0.191 NA
ENDBRANCH  10  18
ENDBRANCH   3   9
BRANCH   1  21
ATOM     20  C   UNL     1      -0.405   1.398  -0.229  0.00  0.00    +0.277 C 
ATOM     21  O   UNL     1      -0.256  -0.022  -0.157  0.00  0.00    -0.491 OA
ENDBRANCH   1  21
BRANCH   6  22
ATOM     22  O   UNL     1       0.111  -2.748  -0.137  0.00  0.00    -0.503 OA
ATOM     23  H   UNL     1      -0.780  -3.067  -0.335  0.00  0.00    +0.292 HD
ENDBRANCH   6  22
TORSDOF 4
