REMARK  Name = ZINC44532636
REMARK  8 active torsions:
REMARK  status: ('A' for Active; 'I' for Inactive)
REMARK    1  A    between atoms: C_1  and  C_2
REMARK    2  A    between atoms: N_8  and  C_9
REMARK    3  A    between atoms: C_9  and  C_10
REMARK    4  A    between atoms: C_10  and  N_11
REMARK    5  A    between atoms: C_12  and  C_14
REMARK    6  A    between atoms: C_14  and  C_15
REMARK    7  A    between atoms: C_15  and  N_16
REMARK    8  A    between atoms: N_19  and  C_20
REMARK                            x       y       z     vdW  Elec       q    Type
REMARK                         _______ _______ _______ _____ _____    ______ ____
ROOT
ATOM      1  C   UNL     1       0.927   0.106   8.517  0.00  0.00    +0.115 C 
ENDROOT
BRANCH   1   2
ATOM      2  N   UNL     1       0.285   0.644   9.719  0.00  0.00    -0.299 N 
ATOM      3  C   UNL     1       0.826   0.414  10.932  0.00  0.00    +0.300 C 
ATOM      4  O   UNL     1       1.847  -0.240  11.028  0.00  0.00    -0.253 OA
ATOM      5  N   UNL     1       0.236   0.909  12.038  0.00  0.00    -0.294 N 
ATOM      6  H   UNL     1      -0.529   1.166   9.642  0.00  0.00    +0.150 HD
ATOM      7  H   UNL     1      -0.578   1.431  11.961  0.00  0.00    +0.151 HD
BRANCH   5   8
ATOM      8  C   UNL     1       0.824   0.659  13.356  0.00  0.00    +0.037 C 
ATOM      9  C   UNL     1       0.882  -0.848  13.611  0.00  0.00    +0.029 C 
ATOM     10  C   UNL     1       1.496  -1.109  14.988  0.00  0.00    -0.008 C 
ATOM     11  C   UNL     1       0.637  -0.443  16.065  0.00  0.00    +0.007 C 
ATOM     12  C   UNL     1       0.579   1.065  15.809  0.00  0.00    -0.008 C 
ATOM     13  C   UNL     1      -0.035   1.326  14.433  0.00  0.00    +0.029 C 
ATOM     14  C   UNL     1       1.994   1.645  15.855  0.00  0.00    +0.007 C 
ATOM     15  C   UNL     1       2.853   0.978  14.779  0.00  0.00    -0.008 C 
ATOM     16  C   UNL     1       2.911  -0.529  15.034  0.00  0.00    +0.007 C 
ATOM     17  C   UNL     1       2.239   1.239  13.402  0.00  0.00    +0.029 C 
ENDBRANCH   5   8
ENDBRANCH   1   2
BRANCH   1  18
ATOM     18  C   UNL     1       0.117   0.509   7.283  0.00  0.00    +0.114 C 
BRANCH  18  20
ATOM     19  N   UNL     1       0.236   0.185   4.834  0.00  0.00    -0.317 N 
ATOM     20  C   UNL     1       0.777  -0.045   6.046  0.00  0.00    +0.214 C 
ATOM     21  O   UNL     1       1.795  -0.697   6.143  0.00  0.00    -0.276 OA
ATOM     22  H   UNL     1      -0.578   0.707   4.757  0.00  0.00    +0.149 HD
BRANCH  19  23
ATOM     23  C   UNL     1       0.877  -0.353   3.631  0.00  0.00    +0.085 C 
BRANCH  23  24
ATOM     24  C   UNL     1       0.067   0.050   2.397  0.00  0.00    -0.059 C 
BRANCH  24  31
ATOM     25  C   UNL     1      -0.019   1.526   0.010  0.00  0.00    -0.013 C 
ATOM     26  C   UNL     1       0.002  -0.004   0.002  0.00  0.00    -0.072 C 
ATOM     27  C   UNL     1       0.717  -0.497  -1.258  0.00  0.00    -0.016 C 
ATOM     28  C   UNL     1       0.735  -2.028  -1.262  0.00  0.00    -0.003 C 
ATOM     29  C   UNL     1       1.410  -2.524   0.020  0.00  0.00    -0.019 C 
ATOM     30  C   UNL     1       0.669  -1.956   1.232  0.00  0.00    -0.078 C 
ATOM     31  N   UNL     1       0.711  -0.490   1.192  0.00  0.00    +0.382 N 
ATOM     32  H   UNL     1       1.671  -0.182   1.159  0.00  0.00    -0.081 HD
ENDBRANCH  24  31
ENDBRANCH  23  24
ENDBRANCH  19  23
ENDBRANCH  18  20
ENDBRANCH   1  18
TORSDOF 7
