REMARK  Name = ZINC08791571
REMARK  7 active torsions:
REMARK  status: ('A' for Active; 'I' for Inactive)
REMARK    1  A    between atoms: C_1  and  C_2
REMARK    2  A    between atoms: C_16  and  C_18
REMARK    3  A    between atoms: C_18  and  C_19
REMARK    4  A    between atoms: N_31  and  C_34
REMARK    5  A    between atoms: C_34  and  C_35
REMARK    6  A    between atoms: C_35  and  O_36
REMARK    7  A    between atoms: O_36  and  C_37
REMARK                            x       y       z     vdW  Elec       q    Type
REMARK                         _______ _______ _______ _____ _____    ______ ____
ROOT
ATOM      1  C   UNL     1      -3.043  -2.517  -7.640  0.00  0.00    +0.045 C 
ATOM      2  C   UNL     1      -2.947  -1.528  -6.507  0.00  0.00    -0.029 A 
ATOM      3  C   UNL     1      -2.417  -0.274  -6.731  0.00  0.00    +0.005 A 
ATOM      4  C   UNL     1      -2.324   0.640  -5.697  0.00  0.00    +0.001 A 
ATOM      5  C   UNL     1      -2.763   0.294  -4.431  0.00  0.00    +0.004 A 
ATOM      6  C   UNL     1      -3.291  -0.956  -4.202  0.00  0.00    -0.027 A 
ATOM      7  C   UNL     1      -3.391  -1.884  -5.236  0.00  0.00    +0.039 A 
ATOM      8  N   UNL     1      -3.954  -3.072  -4.765  0.00  0.00    -0.286 N 
ATOM      9  C   UNL     1      -4.249  -3.010  -3.453  0.00  0.00    +0.211 C 
ATOM     10  O   UNL     1      -4.745  -3.888  -2.779  0.00  0.00    -0.277 OA
ATOM     11  C   UNL     1      -3.844  -1.639  -2.983  0.00  0.00    +0.050 C 
ATOM     12  C   UNL     1      -5.035  -0.873  -2.397  0.00  0.00    +0.088 C 
ATOM     13  C   UNL     1      -4.434  -0.054  -1.221  0.00  0.00    +0.073 C 
ATOM     14  C   UNL     1      -2.928  -0.392  -1.232  0.00  0.00    -0.053 C 
ATOM     15  C   UNL     1      -4.624   1.380  -1.662  0.00  0.00    +0.224 C 
ATOM     16  O   UNL     1      -4.293   2.358  -1.027  0.00  0.00    -0.275 OA
ATOM     17  N   UNL     1      -5.215   1.402  -2.862  0.00  0.00    -0.240 N 
ATOM     18  C   UNL     1      -5.487   0.194  -3.369  0.00  0.00    +0.225 C 
ATOM     19  O   UNL     1      -6.015  -0.014  -4.441  0.00  0.00    -0.275 OA
ATOM     20  H   UNL     1      -4.115  -3.852  -5.320  0.00  0.00    +0.155 HD
ATOM     21  N   UNL     1      -2.862  -1.687  -1.913  0.00  0.00    +0.394 N 
ATOM     22  H   UNL     1      -1.923  -1.837  -2.300  0.00  0.00    -0.083 HD
ATOM     23  H   UNL     1      -3.088  -2.444  -1.258  0.00  0.00    -0.083 HD
ENDROOT
BRANCH  14  24
ATOM     24  C   UNL     1      -2.393  -0.485   0.198  0.00  0.00    +0.022 C 
BRANCH  24  25
ATOM     25  C   UNL     1      -0.901  -0.694   0.163  0.00  0.00    -0.024 A 
ATOM     26  C   UNL     1      -0.257  -1.870   0.225  0.00  0.00    +0.087 A 
ATOM     27  N   UNL     1       1.095  -1.667   0.166  0.00  0.00    -0.360 N 
ATOM     28  H   UNL     1       1.765  -2.367   0.193  0.00  0.00    +0.165 HD
ATOM     29  C   UNL     1       1.361  -0.320   0.061  0.00  0.00    +0.047 A 
ATOM     30  C   UNL     1       0.123   0.349   0.055  0.00  0.00    +0.003 A 
ATOM     31  C   UNL     1       0.083   1.741  -0.042  0.00  0.00    +0.010 A 
ATOM     32  C   UNL     1       1.249   2.448  -0.131  0.00  0.00    +0.001 A 
ATOM     33  C   UNL     1       2.473   1.793  -0.126  0.00  0.00    +0.002 A 
ATOM     34  C   UNL     1       2.535   0.420  -0.030  0.00  0.00    +0.026 A 
ENDBRANCH  24  25
ENDBRANCH  14  24
BRANCH  17  35
ATOM     35  C   UNL     1      -5.537   2.646  -3.564  0.00  0.00    +0.144 C 
BRANCH  35  36
ATOM     36  C   UNL     1      -6.988   3.034  -3.275  0.00  0.00    +0.179 C 
BRANCH  36  37
ATOM     37  O   UNL     1      -7.130   3.345  -1.887  0.00  0.00    -0.381 OA
ATOM     38  C   UNL     1      -8.475   3.614  -1.486  0.00  0.00    +0.194 C 
ENDBRANCH  36  37
ENDBRANCH  35  36
ENDBRANCH  17  35
TORSDOF 5
