REMARK  Name = ZINC62210349
REMARK  6 active torsions:
REMARK  status: ('A' for Active; 'I' for Inactive)
REMARK    1  A    between atoms: C_1  and  O_2
REMARK    2  A    between atoms: O_2  and  C_3
REMARK    3  A    between atoms: C_3  and  C_4
REMARK    4  A    between atoms: C_4  and  N_5
REMARK    5  A    between atoms: C_6  and  C_14
REMARK    6  A    between atoms: C_8  and  N_13
REMARK                            x       y       z     vdW  Elec       q    Type
REMARK                         _______ _______ _______ _____ _____    ______ ____
ROOT
ATOM      1  N   UNL     1      -0.515  -2.565   1.245  0.00  0.00    -0.291 N 
ATOM      2  C   UNL     1       0.934  -2.704   1.428  0.00  0.00    +0.128 C 
ATOM      3  C   UNL     1       1.154  -2.754   2.956  0.00  0.00    -0.038 C 
ATOM      4  C   UNL     1      -0.209  -3.289   3.453  0.00  0.00    +0.082 C 
ATOM      5  C   UNL     1      -1.182  -2.888   2.367  0.00  0.00    +0.215 C 
ATOM      6  O   UNL     1      -2.388  -2.863   2.490  0.00  0.00    -0.276 OA
ENDROOT
BRANCH   2   7
ATOM      7  C   UNL     1       1.421  -3.978   0.787  0.00  0.00    +0.125 A 
ATOM      8  C   UNL     1       2.580  -4.130   0.121  0.00  0.00    +0.048 A 
ATOM      9  C   UNL     1       2.632  -5.476  -0.308  0.00  0.00    +0.057 A 
ATOM     10  C   UNL     1       1.501  -6.066   0.121  0.00  0.00    +0.170 A 
ATOM     11  O   UNL     1       0.774  -5.155   0.789  0.00  0.00    -0.451 OA
ATOM     12 BR   UNL     1       1.021  -7.873  -0.161  0.00  0.00    -0.008 Br
ENDBRANCH   2   7
BRANCH   3  13
ATOM     13  N   UNL     1       2.241  -3.680   3.301  0.00  0.00    +0.382 N 
ATOM     14  H   UNL     1       3.096  -3.373   2.860  0.00  0.00    -0.090 HD
ATOM     15  H   UNL     1       2.365  -3.695   4.302  0.00  0.00    -0.090 HD
ATOM     16  H   UNL     1       2.009  -4.606   2.976  0.00  0.00    -0.090 HD
ENDBRANCH   3  13
BRANCH   1  17
ATOM     17  C   UNL     1      -1.154  -2.126   0.002  0.00  0.00    +0.136 C 
BRANCH  17  18
ATOM     18  C   UNL     1      -1.295  -0.603   0.011  0.00  0.00    +0.178 C 
BRANCH  18  20
ATOM     19  C   UNL     1      -0.017   1.425   0.010  0.00  0.00    +0.194 C 
ATOM     20  O   UNL     1       0.002  -0.004   0.002  0.00  0.00    -0.381 OA
ENDBRANCH  18  20
ENDBRANCH  17  18
ENDBRANCH   1  17
TORSDOF 5
