REMARK  Name = ZINC67129352
REMARK  5 active torsions:
REMARK  status: ('A' for Active; 'I' for Inactive)
REMARK    1  A    between atoms: C_5  and  N_8
REMARK    2  A    between atoms: C_9  and  C_11
REMARK    3  A    between atoms: C_11  and  N_12
REMARK    4  A    between atoms: C_14  and  O_22
REMARK    5  A    between atoms: C_17  and  C_19
REMARK                            x       y       z     vdW  Elec       q    Type
REMARK                         _______ _______ _______ _____ _____    ______ ____
ROOT
ATOM      1  N   UNL     1       3.686  -4.310  -3.245  0.00  0.00    +0.395 N 
ATOM      2  C   UNL     1       2.725  -5.132  -2.466  0.00  0.00    -0.045 C 
ATOM      3  C   UNL     1       3.399  -6.527  -2.433  0.00  0.00    +0.097 C 
ATOM      4  C   UNL     1       4.032  -6.639  -3.838  0.00  0.00    +0.023 C 
ATOM      5  C   UNL     1       4.180  -5.187  -4.329  0.00  0.00    +0.022 C 
ATOM      6  H   UNL     1       4.452  -4.017  -2.658  0.00  0.00    -0.080 HD
ENDROOT
BRANCH   5   7
ATOM      7  C   UNL     1       5.629  -4.885  -4.613  0.00  0.00    +0.197 C 
ATOM      8  O   UNL     1       6.205  -4.026  -3.980  0.00  0.00    -0.278 OA
ATOM      9  N   UNL     1       6.285  -5.571  -5.570  0.00  0.00    -0.331 N 
ATOM     10  H   UNL     1       5.825  -6.258  -6.076  0.00  0.00    +0.145 HD
ATOM     11  H   UNL     1       7.218  -5.377  -5.752  0.00  0.00    +0.145 HD
ENDBRANCH   5   7
BRANCH   3  12
ATOM     12  O   UNL     1       2.425  -7.554  -2.230  0.00  0.00    -0.394 OA
ATOM     13  H   UNL     1       2.795  -8.447  -2.202  0.00  0.00    +0.210 HD
ENDBRANCH   3  12
BRANCH   1  14
ATOM     14  C   UNL     1       3.005  -3.138  -3.812  0.00  0.00    +0.020 C 
BRANCH  14  16
ATOM     15  N   UNL     1       1.976  -1.046  -2.987  0.00  0.00    -0.314 N 
ATOM     16  C   UNL     1       2.617  -2.197  -2.702  0.00  0.00    +0.197 C 
ATOM     17  O   UNL     1       2.881  -2.474  -1.551  0.00  0.00    -0.278 OA
ATOM     18  H   UNL     1       1.764  -0.824  -3.907  0.00  0.00    +0.149 HD
BRANCH  15  23
ATOM     19  C   UNL     1      -0.019   1.538   0.011  0.00  0.00    +0.000 C 
ATOM     20  C   UNL     1       1.401   2.036  -0.000  0.00  0.00    +0.000 C 
ATOM     21  C   UNL     1       1.910   2.335  -1.423  0.00  0.00    +0.002 C 
ATOM     22  C   UNL     1       1.480   1.268  -2.449  0.00  0.00    +0.022 C 
ATOM     23  C   UNL     1       1.598  -0.131  -1.907  0.00  0.00    +0.073 C 
ATOM     24  C   UNL     1       0.231  -0.548  -1.328  0.00  0.00    +0.022 C 
ATOM     25  C   UNL     1       0.002  -0.004   0.002  0.00  0.00    +0.002 C 
ENDBRANCH  15  23
ENDBRANCH  14  16
ENDBRANCH   1  14
TORSDOF 5
