REMARK  Name = ZINC13045276
REMARK  8 active torsions:
REMARK  status: ('A' for Active; 'I' for Inactive)
REMARK    1  A    between atoms: C_6  and  N_7
REMARK    2  A    between atoms: C_8  and  C_10
REMARK    3  A    between atoms: C_10  and  S_11
REMARK    4  A    between atoms: S_11  and  C_12
REMARK    5  A    between atoms: C_16  and  C_26
REMARK    6  A    between atoms: N_22  and  C_23
REMARK    7  A    between atoms: C_23  and  C_24
REMARK    8  A    between atoms: C_24  and  O_25
REMARK                            x       y       z     vdW  Elec       q    Type
REMARK                         _______ _______ _______ _____ _____    ______ ____
ROOT
ATOM      1  C   UNL     1      -0.349   2.758   1.765  0.00  0.00    +0.173 A 
ATOM      2  N   UNL     1      -0.927   3.248   2.834  0.00  0.00    -0.223 NA
ATOM      3  C   UNL     1      -1.925   2.587   3.467  0.00  0.00    +0.080 A 
ATOM      4  C   UNL     1      -2.537   3.110   4.610  0.00  0.00    +0.043 A 
ATOM      5  C   UNL     1      -3.556   2.396   5.226  0.00  0.00    +0.065 A 
ATOM      6  C   UNL     1      -3.972   1.162   4.710  0.00  0.00    +0.016 A 
ATOM      7  C   UNL     1      -3.381   0.641   3.594  0.00  0.00    +0.016 A 
ATOM      8  C   UNL     1      -2.356   1.341   2.960  0.00  0.00    +0.065 A 
ATOM      9  C   UNL     1      -1.693   0.817   1.755  0.00  0.00    +0.262 A 
ATOM     10  O   UNL     1      -2.018  -0.251   1.270  0.00  0.00    -0.267 OA
ATOM     11  N   UNL     1      -0.708   1.565   1.206  0.00  0.00    -0.285 N 
ENDROOT
BRANCH   5  12
ATOM     12  C   UNL     1      -4.209   2.943   6.436  0.00  0.00    +0.387 C 
ATOM     13  O   UNL     1      -3.853   4.013   6.887  0.00  0.00    -0.241 OA
ATOM     14  O   UNL     1      -5.198   2.255   7.037  0.00  0.00    -0.241 OA
ENDBRANCH   5  12
BRANCH   1  15
ATOM     15  S   UNL     1       0.946   3.684   1.011  0.00  0.00    -0.078 S 
BRANCH  15  16
ATOM     16  C   UNL     1       0.998   5.113   2.120  0.00  0.00    +0.173 C 
BRANCH  16  18
ATOM     17  N   UNL     1       2.286   7.214   2.335  0.00  0.00    -0.285 N 
ATOM     18  C   UNL     1       2.065   6.070   1.656  0.00  0.00    +0.227 C 
ATOM     19  O   UNL     1       2.726   5.812   0.672  0.00  0.00    -0.275 OA
ATOM     20  H   UNL     1       1.714   7.453   3.081  0.00  0.00    +0.155 HD
BRANCH  17  26
ATOM     21  C   UNL     1       4.040   8.763   2.931  0.00  0.00    +0.024 A 
ATOM     22  C   UNL     1       5.085   9.588   2.562  0.00  0.00    +0.017 A 
ATOM     23  C   UNL     1       5.425   9.720   1.227  0.00  0.00    +0.018 A 
ATOM     24  C   UNL     1       4.725   9.021   0.260  0.00  0.00    +0.017 A 
ATOM     25  C   UNL     1       3.684   8.190   0.624  0.00  0.00    +0.024 A 
ATOM     26  C   UNL     1       3.340   8.056   1.963  0.00  0.00    +0.033 A 
ATOM     27 BR   UNL     1       6.850  10.858   0.724  0.00  0.00    -0.050 Br
ENDBRANCH  17  26
ENDBRANCH  16  18
ENDBRANCH  15  16
ENDBRANCH   1  15
BRANCH  11  28
ATOM     28  C   UNL     1      -0.015   1.087   0.007  0.00  0.00    +0.155 C 
BRANCH  28  29
ATOM     29  C   UNL     1      -0.746   1.594  -1.239  0.00  0.00    +0.177 C 
BRANCH  29  30
ATOM     30  O   UNL     1      -0.660   3.019  -1.295  0.00  0.00    -0.393 OA
ATOM     31  H   UNL     1      -1.103   3.410  -2.061  0.00  0.00    +0.209 HD
ENDBRANCH  29  30
ENDBRANCH  28  29
ENDBRANCH  11  28
TORSDOF 8
