REMARK  Name = ZINC54300436
REMARK  5 active torsions:
REMARK  status: ('A' for Active; 'I' for Inactive)
REMARK    1  A    between atoms: C_1  and  C_2
REMARK    2  A    between atoms: C_9  and  C_11
REMARK    3  A    between atoms: C_11  and  N_12
REMARK    4  A    between atoms: C_16  and  C_19
REMARK    5  A    between atoms: C_19  and  C_20
REMARK                            x       y       z     vdW  Elec       q    Type
REMARK                         _______ _______ _______ _____ _____    ______ ____
ROOT
ATOM      1  N   UNL     1       2.963  -4.837   1.557  0.00  0.00    +0.386 N 
ATOM      2  C   UNL     1       3.738  -4.537   0.347  0.00  0.00    -0.078 C 
ATOM      3  C   UNL     1       5.158  -5.085   0.498  0.00  0.00    -0.018 C 
ATOM      4  C   UNL     1       5.095  -6.601   0.703  0.00  0.00    +0.000 C 
ATOM      5  C   UNL     1       4.223  -6.906   1.924  0.00  0.00    -0.017 C 
ATOM      6  C   UNL     1       2.837  -6.290   1.721  0.00  0.00    -0.074 C 
ATOM      7  H   UNL     1       3.433  -4.448   2.360  0.00  0.00    -0.081 HD
ENDROOT
BRANCH   1   8
ATOM      8  C   UNL     1       1.625  -4.241   1.440  0.00  0.00    +0.019 C 
BRANCH   8  16
ATOM      9  C   UNL     1      -0.019   1.526   0.010  0.00  0.00    +0.009 C 
ATOM     10  C   UNL     1       0.002  -0.004   0.002  0.00  0.00    +0.003 C 
ATOM     11  C   UNL     1      -1.433  -0.534   0.015  0.00  0.00    +0.006 C 
ATOM     12  C   UNL     1      -1.414  -2.064  -0.027  0.00  0.00    +0.019 C 
ATOM     13  C   UNL     1      -0.692  -2.596   1.215  0.00  0.00    +0.107 C 
ATOM     14  N   UNL     1       0.639  -1.977   1.288  0.00  0.00    -0.303 N 
ATOM     15  C   UNL     1       0.742  -0.512   1.244  0.00  0.00    +0.111 C 
ATOM     16  C   UNL     1       1.746  -2.740   1.395  0.00  0.00    +0.199 C 
ATOM     17  O   UNL     1       2.838  -2.217   1.455  0.00  0.00    -0.278 OA
ENDBRANCH   8  16
ENDBRANCH   1   8
BRANCH   5  18
ATOM     18  C   UNL     1       4.090  -8.421   2.093  0.00  0.00    +0.127 C 
BRANCH  18  19
ATOM     19  C   UNL     1       5.440  -9.011   2.410  0.00  0.00    +0.356 C 
ATOM     20  O   UNL     1       6.417  -8.287   2.494  0.00  0.00    -0.246 OA
ATOM     21  O   UNL     1       5.554 -10.212   2.583  0.00  0.00    -0.246 OA
ENDBRANCH  18  19
ENDBRANCH   5  18
TORSDOF 4
