REMARK  Name = ZINC64411299
REMARK  5 active torsions:
REMARK  status: ('A' for Active; 'I' for Inactive)
REMARK    1  A    between atoms: C_1  and  C_2
REMARK    2  A    between atoms: C_6  and  C_8
REMARK    3  A    between atoms: C_8  and  N_9
REMARK    4  A    between atoms: C_11  and  C_16
REMARK    5  A    between atoms: C_19  and  C_22
REMARK                            x       y       z     vdW  Elec       q    Type
REMARK                         _______ _______ _______ _____ _____    ______ ____
ROOT
ATOM      1  N   UNL     1       1.440  -3.073   2.903  0.00  0.00    -0.296 N 
ATOM      2  C   UNL     1       2.236  -4.245   2.521  0.00  0.00    +0.119 C 
ATOM      3  C   UNL     1       3.423  -4.277   3.509  0.00  0.00    +0.082 C 
ATOM      4  C   UNL     1       3.535  -2.790   3.916  0.00  0.00    +0.108 C 
ATOM      5  C   UNL     1       2.149  -2.233   3.677  0.00  0.00    +0.217 C 
ATOM      6  O   UNL     1       1.736  -1.183   4.122  0.00  0.00    -0.276 OA
ENDROOT
BRANCH   3   7
ATOM      7  C   UNL     1       4.682  -4.746   2.825  0.00  0.00    +0.142 C 
ATOM      8  N   UNL     1       4.903  -4.636   1.566  0.00  0.00    -0.072 NA
ATOM      9  O   UNL     1       6.170  -5.166   1.225  0.00  0.00    -0.369 OA
ATOM     10  C   UNL     1       6.751  -5.643   2.449  0.00  0.00    +0.307 C 
ATOM     11  N   UNL     1       5.739  -5.341   3.474  0.00  0.00    -0.292 N 
ATOM     12  H   UNL     1       5.803  -5.528   4.423  0.00  0.00    +0.151 HD
BRANCH  10  13
ATOM     13  C   UNL     1       7.008  -7.149   2.368  0.00  0.00    +0.161 C 
ATOM     14  C   UNL     1       8.055  -7.389   1.298  0.00  0.00    -0.008 C 
ATOM     15  C   UNL     1       7.720  -8.192   0.276  0.00  0.00    +0.014 C 
ATOM     16  C   UNL     1       6.445  -8.784   0.205  0.00  0.00    +0.100 C 
ATOM     17  N   UNL     1       5.507  -8.612   1.096  0.00  0.00    -0.188 NA
ATOM     18  C   UNL     1       5.674  -7.843   2.179  0.00  0.00    +0.248 C 
ATOM     19  O   UNL     1       4.779  -7.704   2.988  0.00  0.00    -0.273 OA
ENDBRANCH  10  13
ENDBRANCH   3   7
BRANCH   1  20
ATOM     20  C   UNL     1       0.054  -2.845   2.489  0.00  0.00    +0.142 C 
BRANCH  20  26
ATOM     21  C   UNL     1      -0.018   1.503   0.010  0.00  0.00    +0.044 C 
ATOM     22  C   UNL     1       0.002  -0.004   0.002  0.00  0.00    -0.050 A 
ATOM     23  C   UNL     1       0.006  -0.689  -1.199  0.00  0.00    +0.003 A 
ATOM     24  C   UNL     1       0.025  -2.071  -1.207  0.00  0.00    +0.001 A 
ATOM     25  C   UNL     1       0.040  -2.768  -0.013  0.00  0.00    +0.005 A 
ATOM     26  C   UNL     1       0.037  -2.084   1.188  0.00  0.00    -0.030 A 
ATOM     27  C   UNL     1       0.023  -0.702   1.195  0.00  0.00    +0.008 A 
ENDBRANCH  20  26
ENDBRANCH   1  20
TORSDOF 4
