REMARK  Name = ZINC15957935
REMARK  8 active torsions:
REMARK  status: ('A' for Active; 'I' for Inactive)
REMARK    1  A    between atoms: C_1  and  C_2
REMARK    2  A    between atoms: C_2  and  C_3
REMARK    3  A    between atoms: C_3  and  C_4
REMARK    4  A    between atoms: C_4  and  C_5
REMARK    5  A    between atoms: C_8  and  N_11
REMARK    6  A    between atoms: C_16  and  C_33
REMARK    7  A    between atoms: C_33  and  C_34
REMARK    8  A    between atoms: C_34  and  C_35
REMARK                            x       y       z     vdW  Elec       q    Type
REMARK                         _______ _______ _______ _____ _____    ______ ____
ROOT
ATOM      1  N   UNL     1       4.002  -3.492  -5.913  0.00  0.00    -0.210 N 
ATOM      2  C   UNL     1       3.340  -4.165  -6.862  0.00  0.00    +0.232 C 
ATOM      3  O   UNL     1       2.181  -4.515  -6.792  0.00  0.00    -0.274 OA
ATOM      4  C   UNL     1       4.260  -4.419  -8.033  0.00  0.00    +0.107 C 
ATOM      5  C   UNL     1       3.775  -3.604  -9.250  0.00  0.00    +0.068 C 
ATOM      6  N   UNL     1       4.420  -2.272  -9.100  0.00  0.00    -0.295 NA
ATOM      7  C   UNL     1       5.769  -2.581  -8.590  0.00  0.00    +0.136 C 
ATOM      8  C   UNL     1       5.594  -3.753  -7.593  0.00  0.00    +0.123 C 
ATOM      9  C   UNL     1       5.272  -3.206  -6.220  0.00  0.00    +0.233 C 
ATOM     10  O   UNL     1       6.046  -2.604  -5.507  0.00  0.00    -0.274 OA
ATOM     11  C   UNL     1       6.399  -1.384  -7.936  0.00  0.00    +0.003 A 
ATOM     12  C   UNL     1       6.043  -0.588  -6.870  0.00  0.00    +0.008 A 
ATOM     13  C   UNL     1       6.850   0.471  -6.497  0.00  0.00    +0.000 A 
ATOM     14  C   UNL     1       8.015   0.729  -7.196  0.00  0.00    +0.002 A 
ATOM     15  C   UNL     1       8.377  -0.067  -8.264  0.00  0.00    +0.023 A 
ATOM     16  C   UNL     1       7.570  -1.136  -8.646  0.00  0.00    +0.039 A 
ATOM     17  N   UNL     1       7.720  -2.070  -9.673  0.00  0.00    -0.283 N 
ATOM     18  C   UNL     1       6.704  -2.955  -9.707  0.00  0.00    +0.243 C 
ATOM     19  O   UNL     1       6.570  -3.874 -10.488  0.00  0.00    -0.273 OA
ATOM     20  H   UNL     1       4.469  -1.793  -9.986  0.00  0.00    +0.123 HD
ATOM     21  H   UNL     1       8.468  -2.081 -10.291  0.00  0.00    +0.155 HD
ENDROOT
BRANCH   1  25
ATOM     22  C   UNL     1       2.244  -2.365  -2.305  0.00  0.00    -0.047 A 
ATOM     23  C   UNL     1       1.814  -1.796  -3.490  0.00  0.00    +0.005 A 
ATOM     24  C   UNL     1       2.394  -2.167  -4.687  0.00  0.00    +0.024 A 
ATOM     25  C   UNL     1       3.411  -3.112  -4.700  0.00  0.00    +0.044 A 
ATOM     26  C   UNL     1       3.841  -3.682  -3.509  0.00  0.00    +0.024 A 
ATOM     27  C   UNL     1       3.260  -3.303  -2.314  0.00  0.00    +0.005 A 
BRANCH  22  28
ATOM     28  C   UNL     1       1.608  -1.957  -1.001  0.00  0.00    +0.035 C 
BRANCH  28  29
ATOM     29  C   UNL     1       2.368  -0.765  -0.414  0.00  0.00    +0.004 C 
BRANCH  29  31
ATOM     30  C   UNL     1       2.482   0.840   1.497  0.00  0.00    +0.004 C 
ATOM     31  C   UNL     1       1.722  -0.352   0.910  0.00  0.00    -0.003 C 
ENDBRANCH  29  31
ENDBRANCH  28  29
ENDBRANCH  22  28
ENDBRANCH   1  25
BRANCH   5  32
ATOM     32  C   UNL     1       4.225  -4.272 -10.551  0.00  0.00    +0.031 C 
BRANCH  32  33
ATOM     33  C   UNL     1       3.125  -5.213 -11.048  0.00  0.00    +0.126 C 
BRANCH  33  34
ATOM     34  C   UNL     1       3.568  -5.871 -12.329  0.00  0.00    +0.356 C 
ATOM     35  O   UNL     1       4.662  -5.611 -12.802  0.00  0.00    -0.246 OA
ATOM     36  O   UNL     1       2.833  -6.663 -12.894  0.00  0.00    -0.246 OA
ENDBRANCH  33  34
ENDBRANCH  32  33
ENDBRANCH   5  32
TORSDOF 7
