REMARK  Name = ZINC27527257
REMARK  6 active torsions:
REMARK  status: ('A' for Active; 'I' for Inactive)
REMARK    1  A    between atoms: C_3  and  C_22
REMARK    2  A    between atoms: C_6  and  C_7
REMARK    3  A    between atoms: C_10  and  C_12
REMARK    4  A    between atoms: C_15  and  C_18
REMARK    5  A    between atoms: N_20  and  O_21
REMARK    6  A    between atoms: N_23  and  O_24
REMARK                            x       y       z     vdW  Elec       q    Type
REMARK                         _______ _______ _______ _____ _____    ______ ____
ROOT
ATOM      1  C   UNL     1       6.512   5.319  -0.034  0.00  0.00    +0.137 A 
ATOM      2  C   UNL     1       6.716   6.667  -0.029  0.00  0.00    +0.050 A 
ATOM      3  C   UNL     1       8.103   6.871  -0.042  0.00  0.00    +0.050 A 
ATOM      4  C   UNL     1       8.686   5.638  -0.054  0.00  0.00    +0.137 A 
ATOM      5  O   UNL     1       7.712   4.707  -0.043  0.00  0.00    -0.455 OA
ENDROOT
BRANCH   1  11
ATOM      6  C   UNL     1       5.120   3.245  -0.030  0.00  0.00    +0.015 A 
ATOM      7  C   UNL     1       3.870   2.659  -0.021  0.00  0.00    +0.032 A 
ATOM      8  C   UNL     1       2.736   3.472  -0.005  0.00  0.00    +0.106 A 
ATOM      9  N   UNL     1       2.847   4.796  -0.005  0.00  0.00    -0.251 NA
ATOM     10  C   UNL     1       4.018   5.392  -0.008  0.00  0.00    +0.123 A 
ATOM     11  C   UNL     1       5.200   4.644  -0.024  0.00  0.00    +0.035 A 
BRANCH   8  12
ATOM     12  C   UNL     1       1.393   2.852   0.004  0.00  0.00    +0.181 C 
ATOM     13  N   UNL     1       1.275   1.556  -0.002  0.00  0.00    -0.070 NA
ATOM     14  N   UNL     1       0.261   3.651   0.019  0.00  0.00    -0.339 N 
ATOM     15  H   UNL     1      -0.738   3.190   0.026  0.00  0.00    +0.144 HD
ATOM     16  H   UNL     1       0.361   4.746   0.024  0.00  0.00    +0.144 HD
BRANCH  13  17
ATOM     17  O   UNL     1      -0.011   0.963   0.007  0.00  0.00    -0.408 OA
ATOM     18  H   UNL     1      -0.111  -0.133   0.002  0.00  0.00    +0.328 HD
ENDBRANCH  13  17
ENDBRANCH   8  12
ENDBRANCH   1  11
BRANCH   4  19
ATOM     19  C   UNL     1      10.136   5.370  -0.070  0.00  0.00    +0.035 A 
ATOM     20  C   UNL     1      10.615   4.052  -0.076  0.00  0.00    +0.015 A 
ATOM     21  C   UNL     1      11.981   3.851  -0.097  0.00  0.00    +0.032 A 
ATOM     22  C   UNL     1      12.832   4.956  -0.100  0.00  0.00    +0.105 A 
ATOM     23  N   UNL     1      12.346   6.192  -0.088  0.00  0.00    -0.251 NA
ATOM     24  C   UNL     1      11.053   6.426  -0.074  0.00  0.00    +0.123 A 
BRANCH  22  25
ATOM     25  C   UNL     1      14.298   4.748  -0.115  0.00  0.00    +0.148 C 
ATOM     26  N   UNL     1      14.785   3.540  -0.126  0.00  0.00    -0.382 N 
ATOM     27  N   UNL     1      15.148   5.834  -0.118  0.00  0.00    -0.251 N 
ATOM     28  H   UNL     1      15.874   3.386  -0.138  0.00  0.00    +0.157 HD
ATOM     29  H   UNL     1      14.737   6.854  -0.108  0.00  0.00    +0.196 HD
ATOM     30  H   UNL     1      14.107   2.674  -0.124  0.00  0.00    +0.157 HD
BRANCH  27  31
ATOM     31  O   UNL     1      16.550   5.635  -0.133  0.00  0.00    -0.288 OA
ATOM     32  H   UNL     1      17.228   6.501  -0.135  0.00  0.00    +0.244 HD
ENDBRANCH  27  31
ENDBRANCH  22  25
ENDBRANCH   4  19
TORSDOF 6
