REMARK  Name = ZINC53632167
REMARK  9 active torsions:
REMARK  status: ('A' for Active; 'I' for Inactive)
REMARK    1  A    between atoms: C_1  and  C_2
REMARK    2  A    between atoms: C_2  and  C_3
REMARK    3  A    between atoms: C_4  and  C_27
REMARK    4  A    between atoms: C_5  and  C_26
REMARK    5  A    between atoms: C_6  and  C_9
REMARK    6  A    between atoms: N_11  and  C_12
REMARK    7  A    between atoms: C_12  and  C_13
REMARK    8  A    between atoms: C_27  and  O_29
REMARK    9  A    between atoms: O_29  and  C_30
REMARK                            x       y       z     vdW  Elec       q    Type
REMARK                         _______ _______ _______ _____ _____    ______ ____
ROOT
ATOM      1  C   UNL     1      -4.299  -2.093   1.603  0.00  0.00    +0.261 C 
ATOM      2  O   UNL     1      -5.415  -2.265   1.150  0.00  0.00    -0.269 OA
ATOM      3  N   UNL     1      -4.105  -2.098   2.937  0.00  0.00    -0.306 N 
ATOM      4  H   UNL     1      -3.215  -1.961   3.298  0.00  0.00    +0.149 HD
ENDROOT
BRANCH   1   8
ATOM      5  C   UNL     1      -1.096  -1.520  -0.019  0.00  0.00    +0.031 A 
ATOM      6  C   UNL     1      -1.910  -1.623  -1.133  0.00  0.00    +0.083 A 
ATOM      7  C   UNL     1      -3.224  -1.854  -0.665  0.00  0.00    -0.006 A 
ATOM      8  C   UNL     1      -3.164  -1.881   0.696  0.00  0.00    +0.106 A 
ATOM      9  N   UNL     1      -1.855  -1.681   1.076  0.00  0.00    -0.353 N 
ATOM     10  H   UNL     1      -1.532  -1.657   1.991  0.00  0.00    +0.166 HD
ATOM     11  C   UNL     1      -4.458  -2.034  -1.512  0.00  0.00    +0.047 C 
BRANCH   5  13
ATOM     12  C   UNL     1       0.659   0.230  -0.119  0.00  0.00    +0.010 C 
ATOM     13  C   UNL     1       0.391  -1.274  -0.034  0.00  0.00    +0.050 C 
ENDBRANCH   5  13
BRANCH   6  14
ATOM     14  C   UNL     1      -1.488  -1.514  -2.539  0.00  0.00    +0.341 C 
ATOM     15  O   UNL     1      -1.142  -2.507  -3.148  0.00  0.00    -0.245 OA
BRANCH  14  16
ATOM     16  O   UNL     1      -1.485  -0.314  -3.151  0.00  0.00    -0.464 OA
ATOM     17  C   UNL     1      -1.064  -0.282  -4.516  0.00  0.00    +0.280 C 
ENDBRANCH  14  16
ENDBRANCH   6  14
ENDBRANCH   1   8
BRANCH   3  18
ATOM     18  C   UNL     1      -5.237  -2.310   3.841  0.00  0.00    +0.141 C 
BRANCH  18  19
ATOM     19  C   UNL     1      -4.755  -2.270   5.269  0.00  0.00    -0.014 A 
ATOM     20  C   UNL     1      -4.330  -3.432   5.898  0.00  0.00    +0.010 A 
ATOM     21  C   UNL     1      -3.895  -3.352   7.208  0.00  0.00    +0.042 A 
ATOM     22  C   UNL     1      -3.897  -2.116   7.848  0.00  0.00    +0.099 A 
ATOM     23  N   UNL     1      -4.310  -1.030   7.213  0.00  0.00    -0.349 N 
ATOM     24  C   UNL     1      -4.725  -1.076   5.961  0.00  0.00    +0.089 A 
ATOM     25  N   UNL     1      -3.463  -2.021   9.165  0.00  0.00    -0.317 N 
ATOM     26  C   UNL     1      -2.881  -3.188   9.789  0.00  0.00    +0.106 C 
ATOM     27  C   UNL     1      -3.994  -4.027  10.462  0.00  0.00    +0.019 C 
ATOM     28  C   UNL     1      -4.502  -3.337  11.658  0.00  0.00    +0.002 C 
ATOM     29  C   UNL     1      -5.162  -1.991  11.373  0.00  0.00    +0.002 C 
ATOM     30  C   UNL     1      -4.105  -0.917  11.316  0.00  0.00    +0.019 C 
ATOM     31  C   UNL     1      -3.610  -0.731   9.867  0.00  0.00    +0.106 C 
ATOM     32  H   UNL     1      -4.304  -0.179   7.678  0.00  0.00    +0.167 HD
ENDBRANCH  18  19
ENDBRANCH   3  18
TORSDOF 6
