REMARK  Name = ZINC13567598
REMARK  7 active torsions:
REMARK  status: ('A' for Active; 'I' for Inactive)
REMARK    1  A    between atoms: C_1  and  C_2
REMARK    2  A    between atoms: C_2  and  C_3
REMARK    3  A    between atoms: C_3  and  N_4
REMARK    4  A    between atoms: C_14  and  C_32
REMARK    5  A    between atoms: C_15  and  N_31
REMARK    6  A    between atoms: N_16  and  C_24
REMARK    7  A    between atoms: C_29  and  C_30
REMARK                            x       y       z     vdW  Elec       q    Type
REMARK                         _______ _______ _______ _____ _____    ______ ____
ROOT
ATOM      1  N   UNL     1      -2.543   3.626   0.042  0.00  0.00    -0.270 N 
ATOM      2  C   UNL     1      -1.234   3.179   0.029  0.00  0.00    +0.041 A 
ATOM      3  C   UNL     1      -0.047   3.914   0.021  0.00  0.00    +0.024 A 
ATOM      4  C   UNL     1       1.141   3.199   0.007  0.00  0.00    +0.002 A 
ATOM      5  C   UNL     1       1.163   1.819   0.001  0.00  0.00    +0.000 A 
ATOM      6  C   UNL     1      -0.013   1.076   0.008  0.00  0.00    +0.007 A 
ATOM      7  C   UNL     1      -1.197   1.780   0.017  0.00  0.00    -0.001 A 
ATOM      8  C   UNL     1      -2.623   1.321   0.036  0.00  0.00    +0.141 C 
ATOM      9  C   UNL     1      -3.426   2.607   0.046  0.00  0.00    +0.240 C 
ATOM     10  O   UNL     1      -4.635   2.701   0.056  0.00  0.00    -0.274 OA
ATOM     11  C   UNL     1      -2.918   0.526   1.273  0.00  0.00    +0.089 C 
ATOM     12  C   UNL     1      -3.070  -0.823   1.217  0.00  0.00    +0.108 C 
ATOM     13  N   UNL     1      -2.961  -1.480   0.013  0.00  0.00    -0.260 N 
ATOM     14  C   UNL     1      -3.092  -0.801  -1.170  0.00  0.00    +0.025 C 
ATOM     15  C   UNL     1      -2.938   0.540  -1.213  0.00  0.00    +0.037 C 
ATOM     16  C   UNL     1      -3.065   1.245  -2.423  0.00  0.00    +0.162 C 
ATOM     17  O   UNL     1      -2.934   2.453  -2.425  0.00  0.00    -0.292 OA
ATOM     18  C   UNL     1      -3.359   0.532  -3.714  0.00  0.00    +0.080 C 
ATOM     19  C   UNL     1      -2.801  -0.893  -3.635  0.00  0.00    +0.014 C 
ATOM     20  C   UNL     1      -3.415  -1.587  -2.417  0.00  0.00    +0.052 C 
ENDROOT
BRANCH  13  21
ATOM     21  C   UNL     1      -2.715  -2.858  -0.004  0.00  0.00    +0.043 A 
ATOM     22  C   UNL     1      -1.409  -3.332  -0.027  0.00  0.00    +0.024 A 
ATOM     23  C   UNL     1      -1.169  -4.691  -0.038  0.00  0.00    +0.002 A 
ATOM     24  C   UNL     1      -2.228  -5.582  -0.038  0.00  0.00    +0.000 A 
ATOM     25  C   UNL     1      -3.529  -5.114  -0.020  0.00  0.00    +0.005 A 
ATOM     26  C   UNL     1      -3.775  -3.755  -0.003  0.00  0.00    -0.029 A 
ATOM     27  C   UNL     1      -5.194  -3.246   0.016  0.00  0.00    +0.045 C 
ENDBRANCH  13  21
BRANCH  12  28
ATOM     28  N   UNL     1      -3.332  -1.531   2.365  0.00  0.00    -0.345 N 
ATOM     29  H   UNL     1      -3.440  -2.494   2.326  0.00  0.00    +0.144 HD
ATOM     30  H   UNL     1      -3.408  -1.069   3.214  0.00  0.00    +0.144 HD
ENDBRANCH  12  28
BRANCH  11  31
ATOM     31  C   UNL     1      -3.040   1.199   2.531  0.00  0.00    +0.100 C 
ATOM     32  N   UNL     1      -3.138   1.733   3.529  0.00  0.00    -0.191 NA
ENDBRANCH  11  31
BRANCH   1  33
ATOM     33  C   UNL     1      -2.925   5.040   0.051  0.00  0.00    +0.113 C 
BRANCH  33  35
ATOM     34  C   UNL     1      -3.470   7.015  -1.380  0.00  0.00    +0.005 C 
ATOM     35  C   UNL     1      -3.071   5.538  -1.389  0.00  0.00    +0.016 C 
ENDBRANCH  33  35
ENDBRANCH   1  33
TORSDOF 5
