REMARK  Name = ZINC63832748
REMARK  7 active torsions:
REMARK  status: ('A' for Active; 'I' for Inactive)
REMARK    1  A    between atoms: C_1  and  O_2
REMARK    2  A    between atoms: O_2  and  C_3
REMARK    3  A    between atoms: C_3  and  C_4
REMARK    4  A    between atoms: C_4  and  C_5
REMARK    5  A    between atoms: C_11  and  C_15
REMARK    6  A    between atoms: N_17  and  C_18
REMARK    7  A    between atoms: C_18  and  C_19
REMARK                            x       y       z     vdW  Elec       q    Type
REMARK                         _______ _______ _______ _____ _____    ______ ____
ROOT
ATOM      1  C   UNL     1      -4.874  -5.595   4.785  0.00  0.00    +0.244 C 
ATOM      2  O   UNL     1      -5.272  -4.684   5.485  0.00  0.00    -0.270 OA
ATOM      3  N   UNL     1      -5.027  -6.871   5.188  0.00  0.00    -0.309 N 
ATOM      4  H   UNL     1      -4.710  -7.598   4.630  0.00  0.00    +0.149 HD
ENDROOT
BRANCH   1  10
ATOM      5  C   UNL     1      -2.543  -2.768   0.011  0.00  0.00    +0.262 C 
ATOM      6  N   UNL     1      -2.427  -4.228  -0.095  0.00  0.00    -0.307 N 
ATOM      7  C   UNL     1      -2.999  -4.754   1.065  0.00  0.00    +0.072 A 
ATOM      8  C   UNL     1      -3.159  -6.072   1.484  0.00  0.00    +0.027 A 
ATOM      9  C   UNL     1      -3.765  -6.348   2.688  0.00  0.00    +0.015 A 
ATOM     10  C   UNL     1      -4.223  -5.302   3.493  0.00  0.00    +0.040 A 
ATOM     11  C   UNL     1      -4.064  -3.979   3.074  0.00  0.00    +0.060 A 
ATOM     12  C   UNL     1      -3.453  -3.705   1.862  0.00  0.00    +0.145 A 
ATOM     13  O   UNL     1      -3.195  -2.511   1.258  0.00  0.00    -0.469 OA
ATOM     14  H   UNL     1      -2.031  -4.728  -0.826  0.00  0.00    +0.150 HD
BRANCH   5  15
ATOM     15  C   UNL     1      -1.154  -2.126   0.002  0.00  0.00    +0.093 C 
BRANCH  15  16
ATOM     16  C   UNL     1      -1.295  -0.603   0.011  0.00  0.00    +0.164 C 
BRANCH  16  18
ATOM     17  C   UNL     1      -0.017   1.425   0.010  0.00  0.00    +0.193 C 
ATOM     18  O   UNL     1       0.002  -0.004   0.002  0.00  0.00    -0.383 OA
ENDBRANCH  16  18
ENDBRANCH  15  16
ENDBRANCH   5  15
ENDBRANCH   1  10
BRANCH   3  19
ATOM     19  C   UNL     1      -5.673  -7.162   6.470  0.00  0.00    +0.133 C 
BRANCH  19  20
ATOM     20  C   UNL     1      -5.721  -8.675   6.686  0.00  0.00    +0.120 C 
ATOM     21  C   UNL     1      -6.217  -8.988   8.080  0.00  0.00    +0.009 C 
ATOM     22  C   UNL     1      -5.217  -9.662   8.692  0.00  0.00    -0.003 A 
ATOM     23  C   UNL     1      -5.082 -10.234  10.037  0.00  0.00    +0.029 A 
ATOM     24  C   UNL     1      -3.932 -10.867  10.368  0.00  0.00    +0.042 A 
ATOM     25  C   UNL     1      -2.870 -10.989   9.460  0.00  0.00    +0.022 A 
ATOM     26  C   UNL     1      -2.921 -10.489   8.207  0.00  0.00    +0.027 A 
ATOM     27  C   UNL     1      -4.082  -9.805   7.753  0.00  0.00    +0.043 A 
ATOM     28  N   UNL     1      -4.370  -9.241   6.603  0.00  0.00    -0.376 N 
ATOM     29 CL   UNL     1      -3.767 -11.545  11.958  0.00  0.00    -0.084 Cl
ATOM     30  H   UNL     1      -3.787  -9.203   5.828  0.00  0.00    +0.160 HD
ENDBRANCH  19  20
ENDBRANCH   3  19
TORSDOF 6
