REMARK  Name = ZINC43064911
REMARK  11 active torsions:
REMARK  status: ('A' for Active; 'I' for Inactive)
REMARK    1  A    between atoms: C_1  and  C_2
REMARK    2  A    between atoms: C_2  and  C_3
REMARK    3  A    between atoms: C_2  and  N_4
REMARK    4  A    between atoms: N_4  and  C_5
REMARK    5  A    between atoms: N_4  and  C_23
REMARK    6  A    between atoms: C_5  and  C_6
REMARK    7  A    between atoms: C_6  and  N_7
REMARK    8  A    between atoms: N_10  and  N_11
REMARK    9  A    between atoms: N_11  and  C_12
REMARK   10  A    between atoms: C_23  and  C_24
REMARK   11  A    between atoms: C_23  and  C_25
REMARK                            x       y       z     vdW  Elec       q    Type
REMARK                         _______ _______ _______ _____ _____    ______ ____
ROOT
ATOM      1  N   UNL     1      -3.104   1.954  -2.297  0.00  0.00    -0.300 N 
ATOM      2  C   UNL     1      -2.936   3.225  -2.712  0.00  0.00    +0.316 C 
ATOM      3  O   UNL     1      -2.119   3.941  -2.166  0.00  0.00    -0.251 OA
ATOM      4  N   UNL     1      -3.675   3.704  -3.733  0.00  0.00    -0.220 N 
ATOM      5  H   UNL     1      -3.756   1.383  -2.733  0.00  0.00    +0.150 HD
ATOM      6  H   UNL     1      -3.555   4.619  -4.032  0.00  0.00    +0.174 HD
ENDROOT
BRANCH   4   7
ATOM      7  N   UNL     1      -4.617   2.880  -4.363  0.00  0.00    -0.258 N 
ATOM      8  H   UNL     1      -4.798   1.994  -4.011  0.00  0.00    +0.170 HD
BRANCH   7   9
ATOM      9  C   UNL     1      -5.297   3.335  -5.500  0.00  0.00    +0.121 A 
ATOM     10  C   UNL     1      -4.830   4.446  -6.192  0.00  0.00    +0.186 A 
ATOM     11  C   UNL     1      -5.503   4.894  -7.316  0.00  0.00    +0.198 A 
ATOM     12  C   UNL     1      -6.642   4.234  -7.752  0.00  0.00    +0.199 A 
ATOM     13  C   UNL     1      -7.109   3.126  -7.064  0.00  0.00    +0.198 A 
ATOM     14  C   UNL     1      -6.436   2.672  -5.942  0.00  0.00    +0.186 A 
ATOM     15  F   UNL     1      -6.888   1.588  -5.274  0.00  0.00    -0.200 F 
ATOM     16  F   UNL     1      -8.219   2.485  -7.490  0.00  0.00    -0.199 F 
ATOM     17  F   UNL     1      -7.297   4.673  -8.849  0.00  0.00    -0.199 F 
ATOM     18  F   UNL     1      -5.050   5.974  -7.989  0.00  0.00    -0.199 F 
ATOM     19  F   UNL     1      -3.720   5.089  -5.767  0.00  0.00    -0.200 F 
ENDBRANCH   7   9
ENDBRANCH   4   7
BRANCH   1  20
ATOM     20  C   UNL     1      -2.301   1.434  -1.187  0.00  0.00    +0.087 C 
BRANCH  20  21
ATOM     21  C   UNL     1      -2.684  -0.022  -0.919  0.00  0.00    -0.059 C 
BRANCH  21  22
ATOM     22  N   UNL     1      -1.994  -0.496   0.288  0.00  0.00    +0.384 N 
ATOM     23  H   UNL     1      -2.178   0.139   1.052  0.00  0.00    -0.081 HD
BRANCH  22  25
ATOM     24  C   UNL     1      -0.300  -0.814  -1.451  0.00  0.00    -0.014 C 
ATOM     25  C   UNL     1      -0.548  -0.552   0.036  0.00  0.00    -0.074 C 
ATOM     26  C   UNL     1       0.091   0.780   0.433  0.00  0.00    -0.014 C 
ENDBRANCH  22  25
BRANCH  22  27
ATOM     27  C   UNL     1      -2.483  -1.836   0.638  0.00  0.00    -0.074 C 
ATOM     28  C   UNL     1      -1.862  -2.276   1.965  0.00  0.00    -0.014 C 
ATOM     29  C   UNL     1      -4.007  -1.805   0.773  0.00  0.00    -0.014 C 
ENDBRANCH  22  27
ENDBRANCH  21  22
ENDBRANCH  20  21
ENDBRANCH   1  20
TORSDOF 7
