REMARK  Name = ZINC29730087
REMARK  5 active torsions:
REMARK  status: ('A' for Active; 'I' for Inactive)
REMARK    1  A    between atoms: C_1  and  C_2
REMARK    2  A    between atoms: C_3  and  C_7
REMARK    3  A    between atoms: N_9  and  N_10
REMARK    4  A    between atoms: N_13  and  C_14
REMARK    5  A    between atoms: C_14  and  C_15
REMARK                            x       y       z     vdW  Elec       q    Type
REMARK                         _______ _______ _______ _____ _____    ______ ____
ROOT
ATOM      1  N   UNL     1       5.604   3.278  -2.931  0.00  0.00    -0.218 N 
ATOM      2  C   UNL     1       5.228   3.045  -1.658  0.00  0.00    +0.316 C 
ATOM      3  O   UNL     1       5.919   3.438  -0.738  0.00  0.00    -0.251 OA
ATOM      4  N   UNL     1       4.085   2.377  -1.405  0.00  0.00    -0.294 N 
ATOM      5  H   UNL     1       6.537   3.824  -3.138  0.00  0.00    +0.174 HD
ATOM      6  H   UNL     1       3.460   2.022  -2.237  0.00  0.00    +0.151 HD
ENDROOT
BRANCH   1   9
ATOM      7  C   UNL     1       5.184   3.059  -5.264  0.00  0.00    +0.263 C 
ATOM      8  O   UNL     1       6.216   3.662  -5.492  0.00  0.00    -0.269 OA
ATOM      9  N   UNL     1       4.808   2.826  -3.991  0.00  0.00    -0.229 N 
ATOM     10  H   UNL     1       3.875   2.280  -3.784  0.00  0.00    +0.173 HD
BRANCH   7  13
ATOM     11  C   UNL     1       5.774   3.434  -8.322  0.00  0.00    +0.087 C 
ATOM     12  C   UNL     1       4.585   2.736  -7.713  0.00  0.00    +0.114 A 
ATOM     13  C   UNL     1       4.347   2.583  -6.379  0.00  0.00    +0.079 A 
ATOM     14  C   UNL     1       3.083   1.838  -6.286  0.00  0.00    +0.054 A 
ATOM     15  C   UNL     1       2.685   1.627  -7.550  0.00  0.00    +0.196 A 
ATOM     16  O   UNL     1       3.586   2.161  -8.389  0.00  0.00    -0.467 OA
ENDBRANCH   7  13
ENDBRANCH   1   9
BRANCH   4  17
ATOM     17  C   UNL     1       3.676   2.124  -0.021  0.00  0.00    +0.141 C 
BRANCH  17  18
ATOM     18  C   UNL     1       2.373   1.365  -0.013  0.00  0.00    -0.026 A 
ATOM     19  C   UNL     1       1.159   2.039   0.002  0.00  0.00    +0.023 A 
ATOM     20  C   UNL     1      -0.016   1.315   0.009  0.00  0.00    +0.084 A 
ATOM     21  N   UNL     1       0.002  -0.004   0.002  0.00  0.00    -0.350 N 
ATOM     22  C   UNL     1       1.139  -0.683  -0.013  0.00  0.00    +0.099 A 
ATOM     23  C   UNL     1       2.361  -0.018  -0.021  0.00  0.00    +0.047 A 
ATOM     24  N   UNL     1       1.111  -2.072  -0.020  0.00  0.00    -0.312 N 
ATOM     25  C   UNL     1       1.850  -2.608  -1.173  0.00  0.00    +0.134 C 
ATOM     26  C   UNL     1       1.845  -4.138  -1.110  0.00  0.00    +0.178 C 
ATOM     27  O   UNL     1       0.493  -4.604  -1.069  0.00  0.00    -0.377 OA
ATOM     28  C   UNL     1      -0.255  -4.102   0.041  0.00  0.00    +0.178 C 
ATOM     29  C   UNL     1      -0.272  -2.572  -0.010  0.00  0.00    +0.134 C 
ATOM     30  H   UNL     1      -0.943  -0.567   0.008  0.00  0.00    +0.166 HD
ENDBRANCH  17  18
ENDBRANCH   4  17
TORSDOF 4
