REMARK  Name = ZINC62872380
REMARK  4 active torsions:
REMARK  status: ('A' for Active; 'I' for Inactive)
REMARK    1  A    between atoms: C_1  and  C_2
REMARK    2  A    between atoms: C_2  and  C_8
REMARK    3  A    between atoms: C_10  and  C_13
REMARK    4  A    between atoms: C_13  and  C_14
REMARK                            x       y       z     vdW  Elec       q    Type
REMARK                         _______ _______ _______ _____ _____    ______ ____
ROOT
ATOM      1  C   UNL     1       0.705  -0.491  -1.239  0.00  0.00    +0.231 A 
ATOM      2  N   UNL     1       0.347  -0.242  -2.468  0.00  0.00    -0.195 NA
ATOM      3  C   UNL     1       1.194  -0.829  -3.321  0.00  0.00    +0.176 A 
ATOM      4  N   UNL     1       2.107  -1.462  -2.641  0.00  0.00    -0.061 NA
ATOM      5  O   UNL     1       1.809  -1.249  -1.269  0.00  0.00    -0.338 OA
ENDROOT
BRANCH   1   7
ATOM      6  C   UNL     1      -0.019   1.526   0.010  0.00  0.00    +0.019 C 
ATOM      7  C   UNL     1       0.002  -0.004   0.002  0.00  0.00    +0.032 C 
ATOM      8  C   UNL     1      -1.434  -0.535   0.018  0.00  0.00    +0.012 C 
ATOM      9  C   UNL     1      -1.402  -2.064   0.089  0.00  0.00    -0.018 C 
ATOM     10  C   UNL     1      -0.610  -2.496   1.325  0.00  0.00    -0.083 C 
ATOM     11  N   UNL     1       0.761  -1.980   1.237  0.00  0.00    +0.380 N 
ATOM     12  C   UNL     1       0.742  -0.512   1.241  0.00  0.00    -0.067 C 
ATOM     13  H   UNL     1       1.296  -2.310   2.027  0.00  0.00    -0.086 HD
ATOM     14  H   UNL     1       1.189  -2.307   0.384  0.00  0.00    -0.086 HD
ENDBRANCH   1   7
BRANCH   3  15
ATOM     15  C   UNL     1       1.107  -0.768  -4.824  0.00  0.00    +0.115 C 
BRANCH  15  16
ATOM     16  C   UNL     1       1.887   0.420  -5.325  0.00  0.00    -0.038 A 
ATOM     17  C   UNL     1       1.264   1.647  -5.464  0.00  0.00    +0.005 A 
ATOM     18  C   UNL     1       1.978   2.737  -5.924  0.00  0.00    +0.022 A 
ATOM     19  C   UNL     1       3.317   2.602  -6.244  0.00  0.00    +0.059 A 
ATOM     20  C   UNL     1       3.941   1.374  -6.104  0.00  0.00    +0.060 A 
ATOM     21  C   UNL     1       3.226   0.285  -5.639  0.00  0.00    +0.025 A 
ATOM     22 CL   UNL     1       5.621   1.202  -6.506  0.00  0.00    -0.082 Cl
ATOM     23 CL   UNL     1       4.215   3.971  -6.822  0.00  0.00    -0.082 Cl
ENDBRANCH  15  16
ENDBRANCH   3  15
TORSDOF 3
