REMARK  Name = ZINC08307299
REMARK  10 active torsions:
REMARK  status: ('A' for Active; 'I' for Inactive)
REMARK    1  A    between atoms: C_1  and  C_2
REMARK    2  A    between atoms: C_5  and  C_27
REMARK    3  A    between atoms: C_9  and  C_11
REMARK    4  A    between atoms: C_9  and  C_12
REMARK    5  A    between atoms: C_9  and  N_54
REMARK    6  A    between atoms: N_14  and  C_15
REMARK    7  A    between atoms: C_15  and  C_16
REMARK    8  A    between atoms: C_16  and  C_17
REMARK    9  A    between atoms: C_20  and  S_23
REMARK   10  A    between atoms: S_23  and  N_26
REMARK                            x       y       z     vdW  Elec       q    Type
REMARK                         _______ _______ _______ _____ _____    ______ ____
ROOT
ATOM      1  C   UNL     1      -0.011   1.205  -0.060  0.00  0.00    +0.199 C 
ATOM      2  O   UNL     1       0.007   0.014  -0.288  0.00  0.00    -0.278 OA
ATOM      3  N   UNL     1      -1.185   1.837   0.134  0.00  0.00    -0.316 N 
ATOM      4  H   UNL     1      -1.200   2.789   0.317  0.00  0.00    +0.149 HD
ENDROOT
BRANCH   1   5
ATOM      5  C   UNL     1       1.280   1.980   0.001  0.00  0.00    +0.016 C 
ATOM      6  C   UNL     1       1.431   2.820  -1.270  0.00  0.00    -0.004 C 
BRANCH   5  14
ATOM      7  C   UNL     1       4.300  -0.274   1.877  0.00  0.00    +0.005 C 
ATOM      8  C   UNL     1       4.736   0.710   0.790  0.00  0.00    -0.031 C 
ATOM      9  C   UNL     1       5.008  -0.052  -0.510  0.00  0.00    +0.003 C 
ATOM     10  C   UNL     1       3.714  -0.721  -0.980  0.00  0.00    -0.031 C 
ATOM     11  C   UNL     1       2.632   0.345  -1.166  0.00  0.00    -0.075 C 
ATOM     12  C   UNL     1       3.625   1.735   0.552  0.00  0.00    -0.075 C 
ATOM     13  C   UNL     1       3.962  -1.435  -2.310  0.00  0.00    +0.005 C 
ATOM     14  N   UNL     1       2.400   1.024   0.126  0.00  0.00    +0.387 N 
ATOM     15  H   UNL     1       2.160   0.320   0.834  0.00  0.00    -0.081 HD
ENDBRANCH   5  14
ENDBRANCH   1   5
BRANCH   3  16
ATOM     16  C   UNL     1      -2.441   1.085   0.070  0.00  0.00    +0.109 C 
BRANCH  16  17
ATOM     17  C   UNL     1      -3.616   2.031   0.324  0.00  0.00    +0.054 C 
BRANCH  17  18
ATOM     18  C   UNL     1      -4.908   1.258   0.257  0.00  0.00    -0.046 A 
ATOM     19  C   UNL     1      -5.577   1.132  -0.946  0.00  0.00    +0.005 A 
ATOM     20  C   UNL     1      -6.759   0.418  -1.008  0.00  0.00    +0.029 A 
ATOM     21  C   UNL     1      -7.278  -0.160   0.136  0.00  0.00    +0.105 A 
ATOM     22  C   UNL     1      -6.612  -0.030   1.340  0.00  0.00    +0.029 A 
ATOM     23  C   UNL     1      -5.426   0.679   1.401  0.00  0.00    +0.005 A 
BRANCH  21  24
ATOM     24  S   UNL     1      -8.788  -1.064   0.058  0.00  0.00    +0.056 S 
ATOM     25  O   UNL     1      -8.932  -1.501  -1.286  0.00  0.00    -0.153 OA
ATOM     26  O   UNL     1      -8.779  -1.966   1.156  0.00  0.00    -0.153 OA
BRANCH  24  27
ATOM     27  N   UNL     1     -10.017   0.011   0.340  0.00  0.00    -0.204 NA
ATOM     28  H   UNL     1     -10.888  -0.133  -0.061  0.00  0.00    +0.144 HD
ATOM     29  H   UNL     1      -9.864   0.783   0.906  0.00  0.00    +0.144 HD
ENDBRANCH  24  27
ENDBRANCH  21  24
ENDBRANCH  17  18
ENDBRANCH  16  17
ENDBRANCH   3  16
TORSDOF 7
