REMARK  Name = ZINC40951527
REMARK  9 active torsions:
REMARK  status: ('A' for Active; 'I' for Inactive)
REMARK    1  A    between atoms: C_1  and  C_2
REMARK    2  A    between atoms: C_5  and  O_12
REMARK    3  A    between atoms: C_8  and  C_10
REMARK    4  A    between atoms: C_8  and  C_11
REMARK    5  A    between atoms: O_12  and  C_13
REMARK    6  A    between atoms: C_13  and  C_15
REMARK    7  A    between atoms: C_15  and  C_16
REMARK    8  A    between atoms: C_15  and  C_17
REMARK    9  A    between atoms: C_15  and  N_20
REMARK                            x       y       z     vdW  Elec       q    Type
REMARK                         _______ _______ _______ _____ _____    ______ ____
ROOT
ATOM      1  C   UNL     1      -1.046  -3.102  -2.428  0.00  0.00    +0.296 C 
ATOM      2  O   UNL     1      -0.400  -2.972  -3.441  0.00  0.00    -0.252 OA
ENDROOT
BRANCH   1   3
ATOM      3  C   UNL     1      -2.456  -3.631  -2.496  0.00  0.00    +0.028 C 
ATOM      4  C   UNL     1      -3.438  -2.458  -2.538  0.00  0.00    +0.001 C 
BRANCH   3   5
ATOM      5  N   UNL     1      -2.727  -4.455  -1.311  0.00  0.00    +0.389 N 
ATOM      6  H   UNL     1      -2.618  -3.895  -0.479  0.00  0.00    -0.088 HD
ATOM      7  H   UNL     1      -3.671  -4.809  -1.356  0.00  0.00    -0.088 HD
ATOM      8  H   UNL     1      -2.079  -5.228  -1.283  0.00  0.00    -0.088 HD
ENDBRANCH   3   5
BRANCH   3   9
ATOM      9  C   UNL     1      -2.622  -4.480  -3.757  0.00  0.00    -0.012 C 
ATOM     10  C   UNL     1      -3.428  -3.881  -4.912  0.00  0.00    +0.003 C 
ATOM     11  C   UNL     1      -4.021  -5.014  -4.071  0.00  0.00    +0.003 C 
ENDBRANCH   3   9
ENDBRANCH   1   3
BRANCH   1  12
ATOM     12  O   UNL     1      -0.508  -2.776  -1.243  0.00  0.00    -0.462 OA
BRANCH  12  16
ATOM     13  C   UNL     1       0.032   1.381  -0.374  0.00  0.00    +0.007 C 
ATOM     14  C   UNL     1       0.051  -0.142  -0.226  0.00  0.00    -0.010 C 
ATOM     15  C   UNL     1       0.814  -0.759  -1.401  0.00  0.00    +0.048 C 
ATOM     16  C   UNL     1       0.833  -2.281  -1.253  0.00  0.00    +0.177 C 
ATOM     17  C   UNL     1       1.525  -2.658   0.059  0.00  0.00    +0.051 C 
ATOM     18  C   UNL     1       0.763  -2.041   1.233  0.00  0.00    -0.031 C 
ATOM     19  C   UNL     1       0.744  -0.518   1.085  0.00  0.00    +0.010 C 
ATOM     20  C   UNL     1       1.455  -2.417   2.545  0.00  0.00    +0.011 C 
ATOM     21  C   UNL     1      -0.673  -2.570   1.244  0.00  0.00    +0.011 C 
ENDBRANCH  12  16
ENDBRANCH   1  12
TORSDOF 5
