REMARK  Name = ZINC36144635
REMARK  8 active torsions:
REMARK  status: ('A' for Active; 'I' for Inactive)
REMARK    1  A    between atoms: C_1  and  O_2
REMARK    2  A    between atoms: O_2  and  C_3
REMARK    3  A    between atoms: C_7  and  O_9
REMARK    4  A    between atoms: O_9  and  C_10
REMARK    5  A    between atoms: N_17  and  C_19
REMARK    6  A    between atoms: C_19  and  C_20
REMARK    7  A    between atoms: C_20  and  C_21
REMARK    8  A    between atoms: C_21  and  N_22
REMARK                            x       y       z     vdW  Elec       q    Type
REMARK                         _______ _______ _______ _____ _____    ______ ____
ROOT
ATOM      1  C   UNL     1       0.606  -0.607  -1.055  0.00  0.00    +0.127 A 
ATOM      2  C   UNL     1       0.652  -1.994  -1.124  0.00  0.00    +0.092 A 
ATOM      3  C   UNL     1       1.265  -2.610  -2.198  0.00  0.00    +0.136 A 
ATOM      4  C   UNL     1       1.838  -1.832  -3.215  0.00  0.00    +0.058 A 
ATOM      5  C   UNL     1       1.789  -0.439  -3.142  0.00  0.00    +0.134 A 
ATOM      6  C   UNL     1       1.166   0.167  -2.062  0.00  0.00    +0.092 A 
ATOM      7  C   UNL     1       2.487  -2.519  -4.351  0.00  0.00    +0.015 C 
ATOM      8  C   UNL     1       2.227  -3.813  -4.532  0.00  0.00    +0.022 C 
ATOM      9  C   UNL     1       1.287  -4.525  -3.601  0.00  0.00    +0.143 C 
ATOM     10  O   UNL     1       1.325  -3.964  -2.292  0.00  0.00    -0.480 OA
ATOM     11  C   UNL     1       1.639  -6.022  -3.543  0.00  0.00    +0.069 C 
ATOM     12  C   UNL     1       0.385  -6.748  -4.077  0.00  0.00    +0.089 C 
ATOM     13  N   UNL     1      -0.730  -5.794  -3.838  0.00  0.00    -0.298 NA
ATOM     14  C   UNL     1      -0.148  -4.464  -4.157  0.00  0.00    +0.136 C 
ENDROOT
BRANCH   1  16
ATOM     15  C   UNL     1      -0.017   1.425   0.010  0.00  0.00    +0.277 C 
ATOM     16  O   UNL     1       0.002  -0.004   0.002  0.00  0.00    -0.495 OA
ENDBRANCH   1  16
BRANCH   5  17
ATOM     17  O   UNL     1       2.343   0.317  -4.124  0.00  0.00    -0.494 OA
ATOM     18  C   UNL     1       2.253   1.736  -3.979  0.00  0.00    +0.277 C 
ENDBRANCH   5  17
BRANCH  13  19
ATOM     19  C   UNL     1      -1.874  -6.092  -4.710  0.00  0.00    +0.082 C 
BRANCH  19  20
ATOM     20  C   UNL     1      -2.526  -7.403  -4.267  0.00  0.00    -0.004 C 
BRANCH  20  21
ATOM     21  C   UNL     1      -3.717  -7.713  -5.176  0.00  0.00    -0.085 C 
BRANCH  21  22
ATOM     22  N   UNL     1      -4.343  -8.971  -4.750  0.00  0.00    +0.378 N 
ATOM     23  H   UNL     1      -5.129  -9.176  -5.349  0.00  0.00    -0.090 HD
ATOM     24  H   UNL     1      -3.670  -9.720  -4.811  0.00  0.00    -0.090 HD
ATOM     25  H   UNL     1      -4.662  -8.883  -3.796  0.00  0.00    -0.090 HD
ENDBRANCH  21  22
ENDBRANCH  20  21
ENDBRANCH  19  20
ENDBRANCH  13  19
TORSDOF 6
