REMARK  Name = ZINC00466170
REMARK  4 active torsions:
REMARK  status: ('A' for Active; 'I' for Inactive)
REMARK    1  A    between atoms: C_4  and  C_7
REMARK    2  A    between atoms: C_8  and  C_9
REMARK    3  A    between atoms: C_8  and  N_12
REMARK    4  A    between atoms: C_13  and  C_15
REMARK                            x       y       z     vdW  Elec       q    Type
REMARK                         _______ _______ _______ _____ _____    ______ ____
ROOT
ATOM      1  N   UNL     1       4.660   4.103  -0.118  0.00  0.00    -0.277 N 
ATOM      2  C   UNL     1       4.520   5.443  -0.076  0.00  0.00    +0.249 C 
ATOM      3  O   UNL     1       3.420   5.935   0.085  0.00  0.00    -0.270 OA
ATOM      4  H   UNL     1       5.545   3.710  -0.178  0.00  0.00    +0.155 HD
ENDROOT
BRANCH   2   5
ATOM      5  C   UNL     1       5.701   6.313  -0.226  0.00  0.00    +0.045 A 
ATOM      6  C   UNL     1       6.940   5.767  -0.531  0.00  0.00    +0.014 A 
ATOM      7  C   UNL     1       8.057   6.581  -0.673  0.00  0.00    +0.001 A 
ATOM      8  C   UNL     1       7.969   7.932  -0.517  0.00  0.00    +0.008 A 
ATOM      9  C   UNL     1       6.734   8.528  -0.208  0.00  0.00    -0.017 A 
ATOM     10  C   UNL     1       5.583   7.716  -0.064  0.00  0.00    -0.006 A 
ATOM     11  C   UNL     1       4.354   8.311   0.249  0.00  0.00    +0.009 A 
ATOM     12  C   UNL     1       4.278   9.663   0.402  0.00  0.00    +0.001 A 
ATOM     13  C   UNL     1       5.408  10.465   0.257  0.00  0.00    +0.001 A 
ATOM     14  C   UNL     1       6.619   9.920  -0.043  0.00  0.00    +0.008 A 
ENDBRANCH   2   5
BRANCH   1  16
ATOM     15  C   UNL     1       3.675   1.939   0.017  0.00  0.00    +0.036 C 
ATOM     16  C   UNL     1       3.531   3.281  -0.075  0.00  0.00    +0.096 C 
BRANCH  15  20
ATOM     17  C   UNL     1       0.296  -0.590  -0.410  0.00  0.00    +0.000 A 
ATOM     18  C   UNL     1       1.370  -0.999   0.361  0.00  0.00    +0.001 A 
ATOM     19  C   UNL     1       2.471  -0.183   0.505  0.00  0.00    +0.008 A 
ATOM     20  C   UNL     1       2.503   1.062  -0.131  0.00  0.00    -0.023 A 
ATOM     21  C   UNL     1       1.414   1.468  -0.910  0.00  0.00    +0.008 A 
ATOM     22  C   UNL     1       0.320   0.641  -1.044  0.00  0.00    +0.001 A 
ENDBRANCH  15  20
BRANCH  16  23
ATOM     23  C   UNL     1       2.187   3.875  -0.130  0.00  0.00    +0.256 C 
ATOM     24  O   UNL     1       1.864   4.562  -1.080  0.00  0.00    -0.269 OA
ATOM     25  N   UNL     1       1.313   3.657   0.873  0.00  0.00    -0.324 N 
ATOM     26  H   UNL     1       1.593   3.170   1.664  0.00  0.00    +0.145 HD
ATOM     27  H   UNL     1       0.403   3.987   0.803  0.00  0.00    +0.145 HD
ENDBRANCH  16  23
ENDBRANCH   1  16
TORSDOF 4
