REMARK  Name = ZINC50812439
REMARK  2 active torsions:
REMARK  status: ('A' for Active; 'I' for Inactive)
REMARK    1  A    between atoms: N_11  and  C_12
REMARK    2  A    between atoms: C_12  and  C_13
REMARK                            x       y       z     vdW  Elec       q    Type
REMARK                         _______ _______ _______ _____ _____    ______ ____
ROOT
ATOM      1  C   UNL     1      -0.092   1.266  -0.587  0.00  0.00    +0.002 A 
ATOM      2  C   UNL     1       1.067   2.018  -0.605  0.00  0.00    +0.002 A 
ATOM      3  C   UNL     1       2.296   1.407  -0.428  0.00  0.00    +0.025 A 
ATOM      4  C   UNL     1       2.360   0.040  -0.232  0.00  0.00    +0.052 A 
ATOM      5  C   UNL     1       1.191  -0.723  -0.217  0.00  0.00    +0.055 A 
ATOM      6  C   UNL     1      -0.035  -0.102  -0.393  0.00  0.00    +0.025 A 
ATOM      7  N   UNL     1       1.272  -2.108  -0.030  0.00  0.00    -0.283 N 
ATOM      8  C   UNL     1       2.409  -2.676   0.416  0.00  0.00    +0.235 C 
ATOM      9  O   UNL     1       2.472  -3.882   0.530  0.00  0.00    -0.274 OA
ATOM     10  C   UNL     1       3.604  -1.831   0.774  0.00  0.00    +0.201 C 
ATOM     11  N   UNL     1       3.589  -0.608  -0.043  0.00  0.00    -0.315 N 
ATOM     12  H   UNL     1       0.501  -2.665  -0.223  0.00  0.00    +0.155 HD
ENDROOT
BRANCH  11  13
ATOM     13  C   UNL     1       4.819  -0.084  -0.642  0.00  0.00    +0.142 C 
BRANCH  13  14
ATOM     14  C   UNL     1       4.943  -0.585  -2.057  0.00  0.00    -0.014 A 
ATOM     15  C   UNL     1       5.550  -1.807  -2.318  0.00  0.00    +0.010 A 
ATOM     16  C   UNL     1       5.643  -2.231  -3.631  0.00  0.00    +0.041 A 
ATOM     17  C   UNL     1       5.129  -1.423  -4.641  0.00  0.00    +0.093 A 
ATOM     18  N   UNL     1       4.558  -0.265  -4.352  0.00  0.00    -0.350 N 
ATOM     19  C   UNL     1       4.450   0.162  -3.107  0.00  0.00    +0.089 A 
ATOM     20  N   UNL     1       5.216  -1.837  -5.965  0.00  0.00    -0.345 N 
ATOM     21  H   UNL     1       5.634  -2.685  -6.182  0.00  0.00    +0.144 HD
ATOM     22  H   UNL     1       4.860  -1.277  -6.672  0.00  0.00    +0.144 HD
ATOM     23  H   UNL     1       4.207   0.283  -5.072  0.00  0.00    +0.166 HD
ENDBRANCH  13  14
ENDBRANCH  11  13
TORSDOF 2
