REMARK  Name = ZINC40399830
REMARK  11 active torsions:
REMARK  status: ('A' for Active; 'I' for Inactive)
REMARK    1  A    between atoms: C_1  and  C_2
REMARK    2  A    between atoms: C_2  and  C_3
REMARK    3  A    between atoms: C_3  and  C_5
REMARK    4  A    between atoms: C_3  and  C_6
REMARK    5  A    between atoms: N_10  and  C_25
REMARK    6  A    between atoms: N_20  and  C_21
REMARK    7  A    between atoms: C_21  and  C_22
REMARK    8  A    between atoms: C_21  and  C_23
REMARK    9  A    between atoms: C_21  and  C_24
REMARK   10  A    between atoms: C_25  and  C_26
REMARK   11  A    between atoms: C_25  and  C_27
REMARK                            x       y       z     vdW  Elec       q    Type
REMARK                         _______ _______ _______ _____ _____    ______ ____
ROOT
ATOM      1  C   UNL     1       0.731  -2.164   1.392  0.00  0.00    +0.022 C 
ATOM      2  C   UNL     1       1.359  -2.667   0.111  0.00  0.00    +0.201 C 
ATOM      3  O   UNL     1       0.884  -2.562  -1.000  0.00  0.00    -0.277 OA
ATOM      4  N   UNL     1       2.537  -3.253   0.412  0.00  0.00    -0.311 N 
ATOM      5  C   UNL     1       2.760  -3.186   1.859  0.00  0.00    +0.006 C 
ATOM      6  N   UNL     1       1.838  -2.152   2.380  0.00  0.00    +0.401 N 
ATOM      7  C   UNL     1       2.439  -4.533   2.505  0.00  0.00    +0.025 C 
ATOM      8  C   UNL     1       3.371  -5.606   1.932  0.00  0.00    +0.109 C 
ATOM      9  N   UNL     1       4.762  -5.162   2.099  0.00  0.00    -0.286 N 
ATOM     10  C   UNL     1       5.152  -3.845   1.577  0.00  0.00    +0.109 C 
ATOM     11  C   UNL     1       4.205  -2.787   2.153  0.00  0.00    +0.025 C 
ATOM     12  C   UNL     1       5.663  -5.949   2.719  0.00  0.00    +0.303 C 
ATOM     13  O   UNL     1       6.782  -5.530   2.944  0.00  0.00    -0.253 OA
ATOM     14  N   UNL     1       5.324  -7.199   3.089  0.00  0.00    -0.294 N 
ATOM     15  H   UNL     1       2.289  -1.250   2.398  0.00  0.00    -0.082 HD
ATOM     16  H   UNL     1       4.459  -7.561   2.843  0.00  0.00    +0.151 HD
ATOM     17  H   UNL     1       1.500  -2.403   3.297  0.00  0.00    -0.082 HD
ENDROOT
BRANCH  14  18
ATOM     18  C   UNL     1       6.264  -8.014   3.864  0.00  0.00    +0.028 C 
ATOM     19  C   UNL     1       6.580  -7.310   5.186  0.00  0.00    +0.031 C 
ATOM     20  C   UNL     1       5.638  -9.380   4.151  0.00  0.00    +0.031 C 
ATOM     21  C   UNL     1       7.555  -8.202   3.066  0.00  0.00    +0.031 C 
ENDBRANCH  14  18
BRANCH   4  22
ATOM     22  C   UNL     1       3.452  -3.861  -0.557  0.00  0.00    +0.068 C 
ATOM     23  C   UNL     1       2.644  -4.504  -1.686  0.00  0.00    +0.027 C 
ATOM     24  C   UNL     1       4.370  -2.784  -1.137  0.00  0.00    +0.027 C 
ENDBRANCH   4  22
BRANCH   1  25
ATOM     25  C   UNL     1       0.178  -0.751   1.196  0.00  0.00    -0.020 C 
ATOM     26  C   UNL     1      -0.385  -0.235   2.521  0.00  0.00    +0.006 C 
BRANCH  25  28
ATOM     27  C   UNL     1      -1.403   0.647  -0.142  0.00  0.00    +0.004 C 
ATOM     28  C   UNL     1      -0.935  -0.781   0.146  0.00  0.00    -0.001 C 
ENDBRANCH  25  28
ENDBRANCH   1  25
TORSDOF 4
