REMARK  Name = ZINC20586280
REMARK  1 active torsions:
REMARK  status: ('A' for Active; 'I' for Inactive)
REMARK    1  A    between atoms: C_6  and  N_7
REMARK                            x       y       z     vdW  Elec       q    Type
REMARK                         _______ _______ _______ _____ _____    ______ ____
ROOT
ATOM      1  C   UNL     1       3.630   2.936  -0.383  0.00  0.00    +0.028 A 
ATOM      2  C   UNL     1       2.856   1.805  -0.566  0.00  0.00    +0.016 A 
ATOM      3  C   UNL     1       1.472   1.907  -0.557  0.00  0.00    +0.049 A 
ATOM      4  C   UNL     1       0.859   3.164  -0.363  0.00  0.00    +0.051 A 
ATOM      5  C   UNL     1       1.640   4.290  -0.181  0.00  0.00    +0.041 A 
ATOM      6  C   UNL     1       3.030   4.175  -0.191  0.00  0.00    +0.067 A 
ATOM      7  C   UNL     1      -0.598   2.915  -0.411  0.00  0.00    +0.251 C 
ATOM      8  O   UNL     1      -1.466   3.755  -0.285  0.00  0.00    -0.270 OA
ATOM      9  N   UNL     1      -0.799   1.602  -0.625  0.00  0.00    -0.248 N 
ATOM     10  C   UNL     1       0.368   0.941  -0.717  0.00  0.00    +0.251 C 
ATOM     11  O   UNL     1       0.493  -0.253  -0.904  0.00  0.00    -0.270 OA
ATOM     12  H   UNL     1      -1.824   1.208  -0.701  0.00  0.00    +0.158 HD
ENDROOT
BRANCH   6  13
ATOM     13  N   UNL     1       3.821   5.307  -0.007  0.00  0.00    -0.226 NA
ATOM     14  C   UNL     1       5.020   5.208   0.666  0.00  0.00    +0.154 C 
ATOM     15  N   UNL     1       5.317   4.085   1.202  0.00  0.00    -0.324 N 
ATOM     16  C   UNL     1       6.490   3.736   1.973  0.00  0.00    +0.104 C 
ATOM     17  C   UNL     1       7.650   4.700   1.751  0.00  0.00    +0.030 C 
ATOM     18  C   UNL     1       7.179   6.128   2.060  0.00  0.00    +0.079 C 
ATOM     19  S   UNL     1       6.044   6.636   0.741  0.00  0.00    -0.091 S 
ATOM     20  H   UNL     1       4.538   3.332   1.014  0.00  0.00    +0.148 HD
ENDBRANCH   6  13
TORSDOF 1
