REMARK  Name = ZINC59311389
REMARK  9 active torsions:
REMARK  status: ('A' for Active; 'I' for Inactive)
REMARK    1  A    between atoms: C_1  and  C_2
REMARK    2  A    between atoms: C_2  and  C_26
REMARK    3  A    between atoms: N_3  and  N_4
REMARK    4  A    between atoms: C_7  and  S_10
REMARK    5  A    between atoms: S_10  and  C_11
REMARK    6  A    between atoms: C_11  and  C_12
REMARK    7  A    between atoms: N_14  and  C_15
REMARK    8  A    between atoms: C_16  and  C_24
REMARK    9  A    between atoms: C_29  and  N_32
REMARK                            x       y       z     vdW  Elec       q    Type
REMARK                         _______ _______ _______ _____ _____    ______ ____
ROOT
ATOM      1  N   UNL     1       0.024   0.035   2.340  0.00  0.00    -0.205 N 
ATOM      2  C   UNL     1       0.044  -0.663   3.533  0.00  0.00    +0.232 A 
ATOM      3  N   UNL     1       0.069  -1.973   3.664  0.00  0.00    -0.186 NA
ATOM      4  C   UNL     1       0.085  -2.295   4.962  0.00  0.00    +0.211 A 
ATOM      5  N   UNL     1       0.070  -1.194   5.675  0.00  0.00    -0.144 NA
ATOM      6  N   UNL     1       0.049  -0.121   4.770  0.00  0.00    -0.245 N 
ATOM      7  H   UNL     1       0.011   1.005   2.345  0.00  0.00    +0.177 HD
ATOM      8  H   UNL     1       0.038   0.824   4.990  0.00  0.00    +0.192 HD
ENDROOT
BRANCH   1  11
ATOM      9  C   UNL     1      -0.018   1.503   0.010  0.00  0.00    +0.068 C 
ATOM     10  C   UNL     1       0.002  -0.004   0.002  0.00  0.00    +0.063 C 
ATOM     11  N   UNL     1       0.022  -0.659   1.123  0.00  0.00    -0.184 NA
BRANCH  10  12
ATOM     12  C   UNL     1      -0.000  -0.734  -1.279  0.00  0.00    -0.002 A 
ATOM     13  C   UNL     1      -0.015  -0.033  -2.487  0.00  0.00    +0.012 A 
ATOM     14  C   UNL     1      -0.017  -0.723  -3.681  0.00  0.00    +0.033 A 
ATOM     15  C   UNL     1      -0.005  -2.106  -3.685  0.00  0.00    +0.126 A 
ATOM     16  C   UNL     1       0.010  -2.808  -2.492  0.00  0.00    +0.033 A 
ATOM     17  C   UNL     1       0.019  -2.131  -1.290  0.00  0.00    +0.012 A 
BRANCH  15  18
ATOM     18  N   UNL     1      -0.007  -2.840  -4.971  0.00  0.00    +0.056 N 
ATOM     19  O   UNL     1      -0.021  -2.230  -6.015  0.00  0.00    -0.126 OA
ATOM     20  O   UNL     1       0.003  -4.049  -4.978  0.00  0.00    -0.126 OA
ENDBRANCH  15  18
ENDBRANCH  10  12
ENDBRANCH   1  11
BRANCH   4  21
ATOM     21  S   UNL     1       0.118  -3.934   5.609  0.00  0.00    -0.075 S 
BRANCH  21  22
ATOM     22  C   UNL     1       0.127  -3.695   7.407  0.00  0.00    +0.173 C 
BRANCH  22  23
ATOM     23  C   UNL     1       0.156  -5.037   8.092  0.00  0.00    +0.228 C 
ATOM     24  O   UNL     1       0.170  -6.055   7.432  0.00  0.00    -0.275 OA
ATOM     25  N   UNL     1       0.167  -5.107   9.438  0.00  0.00    -0.278 N 
ATOM     26  H   UNL     1       0.156  -4.293   9.966  0.00  0.00    +0.155 HD
BRANCH  25  27
ATOM     27  C   UNL     1       0.194  -6.343  10.069  0.00  0.00    +0.090 A 
ATOM     28  C   UNL     1       0.203  -6.605  11.429  0.00  0.00    +0.084 A 
ATOM     29  C   UNL     1       0.231  -7.998  11.837  0.00  0.00    -0.018 A 
ATOM     30  C   UNL     1       0.246  -8.875  10.809  0.00  0.00    -0.004 A 
ATOM     31  S   UNL     1       0.215  -7.864   9.358  0.00  0.00    -0.077 S 
ATOM     32  C   UNL     1       0.278 -10.369  10.902  0.00  0.00    +0.043 C 
ATOM     33  C   UNL     1       0.671 -10.755  12.335  0.00  0.00    +0.005 C 
ATOM     34  C   UNL     1      -0.179  -9.944  13.318  0.00  0.00    +0.005 C 
ATOM     35  C   UNL     1       0.243  -8.474  13.282  0.00  0.00    +0.037 C 
BRANCH  28  36
ATOM     36  C   UNL     1       0.185  -5.546  12.392  0.00  0.00    +0.102 C 
ATOM     37  N   UNL     1       0.171  -4.705  13.156  0.00  0.00    -0.191 NA
ENDBRANCH  28  36
ENDBRANCH  25  27
ENDBRANCH  22  23
ENDBRANCH  21  22
ENDBRANCH   4  21
TORSDOF 8
