REMARK  Name = ZINC03592331
REMARK  9 active torsions:
REMARK  status: ('A' for Active; 'I' for Inactive)
REMARK    1  A    between atoms: C_1  and  C_2
REMARK    2  A    between atoms: C_2  and  C_3
REMARK    3  A    between atoms: C_2  and  C_4
REMARK    4  A    between atoms: C_2  and  N_6
REMARK    5  A    between atoms: C_4  and  O_5
REMARK    6  A    between atoms: C_7  and  C_9
REMARK    7  A    between atoms: C_12  and  C_15
REMARK    8  A    between atoms: N_20  and  C_23
REMARK    9  A    between atoms: C_24  and  N_28
REMARK                            x       y       z     vdW  Elec       q    Type
REMARK                         _______ _______ _______ _____ _____    ______ ____
ROOT
ATOM      1  C   UNL     1      -1.802   8.782   1.649  0.00  0.00    +0.265 C 
ATOM      2  O   UNL     1      -2.943   9.156   1.461  0.00  0.00    -0.268 OA
ATOM      3  N   UNL     1      -1.363   7.643   1.079  0.00  0.00    -0.293 N 
ATOM      4  C   UNL     1      -2.191   6.921   0.101  0.00  0.00    +0.127 C 
ATOM      5  C   UNL     1      -2.280   5.452   0.529  0.00  0.00    +0.125 C 
ATOM      6  N   UNL     1      -0.925   4.915   0.712  0.00  0.00    -0.312 N 
ATOM      7  C   UNL     1      -0.217   5.613   1.794  0.00  0.00    +0.125 C 
ATOM      8  C   UNL     1      -0.044   7.088   1.418  0.00  0.00    +0.127 C 
ENDROOT
BRANCH   6   9
ATOM      9  C   UNL     1      -0.959   3.542   0.942  0.00  0.00    +0.120 A 
ATOM     10  C   UNL     1      -0.364   2.671   0.025  0.00  0.00    +0.063 A 
ATOM     11  C   UNL     1      -0.407   1.305   0.270  0.00  0.00    +0.027 A 
ATOM     12  C   UNL     1      -1.042   0.859   1.421  0.00  0.00    +0.019 A 
ATOM     13  C   UNL     1      -1.612   1.778   2.279  0.00  0.00    +0.084 A 
ATOM     14  N   UNL     1      -1.586   3.124   2.077  0.00  0.00    -0.348 N 
ATOM     15  H   UNL     1      -2.013   3.783   2.738  0.00  0.00    +0.167 HD
BRANCH  10  16
ATOM     16  N   UNL     1       0.265   3.168  -1.123  0.00  0.00    -0.355 N 
ATOM     17  H   UNL     1       0.677   2.556  -1.754  0.00  0.00    +0.142 HD
ATOM     18  H   UNL     1       0.290   4.123  -1.287  0.00  0.00    +0.142 HD
ENDBRANCH  10  16
ENDBRANCH   6   9
BRANCH   1  22
ATOM     19  C   UNL     1       0.807  11.030   4.074  0.00  0.00    +0.055 A 
ATOM     20  C   UNL     1      -0.547  11.382   4.048  0.00  0.00    +0.017 A 
ATOM     21  C   UNL     1      -1.402  10.645   3.246  0.00  0.00    +0.034 A 
ATOM     22  C   UNL     1      -0.892   9.581   2.507  0.00  0.00    +0.126 A 
ATOM     23  N   UNL     1       0.398   9.275   2.555  0.00  0.00    -0.250 NA
ATOM     24  C   UNL     1       1.243   9.952   3.300  0.00  0.00    +0.124 A 
BRANCH  19  26
ATOM     25  N   UNL     1       3.065  11.442   4.929  0.00  0.00    -0.304 N 
ATOM     26  C   UNL     1       1.763  11.789   4.911  0.00  0.00    +0.246 C 
ATOM     27  O   UNL     1       1.374  12.725   5.581  0.00  0.00    -0.270 OA
ATOM     28  H   UNL     1       3.376  10.695   4.394  0.00  0.00    +0.150 HD
BRANCH  25  30
ATOM     29  C   UNL     1       4.026  13.658   5.315  0.00  0.00    +0.033 C 
ATOM     30  C   UNL     1       4.012  12.193   5.758  0.00  0.00    +0.052 C 
ATOM     31  C   UNL     1       3.586  12.107   7.225  0.00  0.00    +0.033 C 
BRANCH  30  32
ATOM     32  C   UNL     1       5.412  11.599   5.598  0.00  0.00    +0.181 C 
BRANCH  32  33
ATOM     33  O   UNL     1       6.336  12.331   6.406  0.00  0.00    -0.393 OA
ATOM     34  H   UNL     1       7.246  12.009   6.354  0.00  0.00    +0.209 HD
ENDBRANCH  32  33
ENDBRANCH  30  32
ENDBRANCH  25  30
ENDBRANCH  19  26
ENDBRANCH   1  22
TORSDOF 7
