REMARK  Name = ZINC39355841
REMARK  10 active torsions:
REMARK  status: ('A' for Active; 'I' for Inactive)
REMARK    1  A    between atoms: C_1  and  C_2
REMARK    2  A    between atoms: C_6  and  C_7
REMARK    3  A    between atoms: C_7  and  C_9
REMARK    4  A    between atoms: C_7  and  C_26
REMARK    5  A    between atoms: C_12  and  O_16
REMARK    6  A    between atoms: O_16  and  C_17
REMARK    7  A    between atoms: C_17  and  C_18
REMARK    8  A    between atoms: C_23  and  C_24
REMARK    9  A    between atoms: C_27  and  C_33
REMARK   10  A    between atoms: C_30  and  O_32
REMARK                            x       y       z     vdW  Elec       q    Type
REMARK                         _______ _______ _______ _____ _____    ______ ____
ROOT
ATOM      1  C   UNL     1       0.025  -0.160   2.489  0.00  0.00    +0.088 C 
ENDROOT
BRANCH   1   7
ATOM      2  C   UNL     1      -2.334  -1.298   0.707  0.00  0.00    +0.068 C 
ATOM      3  C   UNL     1      -0.870  -1.313   0.350  0.00  0.00    +0.068 A 
ATOM      4  N   UNL     1      -0.355  -1.794  -0.752  0.00  0.00    -0.176 NA
ATOM      5  N   UNL     1       1.034  -1.619  -0.703  0.00  0.00    -0.243 N 
ATOM      6  C   UNL     1       1.336  -1.016   0.469  0.00  0.00    +0.271 A 
ATOM      7  C   UNL     1       0.170  -0.811   1.138  0.00  0.00    +0.052 A 
ATOM      8  O   UNL     1       2.578  -0.674   0.898  0.00  0.00    -0.266 OA
ATOM      9  H   UNL     1       1.668  -1.884  -1.388  0.00  0.00    +0.192 HD
ENDBRANCH   1   7
BRANCH   1  10
ATOM     10  C   UNL     1      -1.075  -0.842   3.260  0.00  0.00    -0.034 A 
ATOM     11  C   UNL     1      -1.018  -2.206   3.483  0.00  0.00    +0.008 A 
ATOM     12  C   UNL     1      -2.026  -2.834   4.189  0.00  0.00    +0.047 A 
ATOM     13  C   UNL     1      -3.095  -2.096   4.675  0.00  0.00    +0.135 A 
ATOM     14  C   UNL     1      -3.149  -0.728   4.451  0.00  0.00    +0.060 A 
ATOM     15  C   UNL     1      -2.136  -0.103   3.748  0.00  0.00    +0.023 A 
ATOM     16 BR   UNL     1      -4.605   0.282   5.112  0.00  0.00    -0.047 Br
BRANCH  13  17
ATOM     17  O   UNL     1      -4.087  -2.712   5.370  0.00  0.00    -0.486 OA
BRANCH  17  18
ATOM     18  C   UNL     1      -3.965  -4.123   5.562  0.00  0.00    +0.265 C 
BRANCH  18  19
ATOM     19  C   UNL     1      -5.149  -4.627   6.347  0.00  0.00    +0.007 A 
ATOM     20  C   UNL     1      -6.134  -3.751   6.752  0.00  0.00    +0.008 A 
ATOM     21  C   UNL     1      -7.221  -4.212   7.473  0.00  0.00    +0.000 A 
ATOM     22  C   UNL     1      -7.328  -5.554   7.793  0.00  0.00    +0.001 A 
ATOM     23  C   UNL     1      -6.350  -6.441   7.395  0.00  0.00    +0.019 A 
ATOM     24  C   UNL     1      -5.253  -5.984   6.661  0.00  0.00    +0.058 A 
BRANCH  24  25
ATOM     25  C   UNL     1      -4.237  -6.900   6.239  0.00  0.00    +0.100 C 
ATOM     26  N   UNL     1      -3.432  -7.628   5.904  0.00  0.00    -0.191 NA
ENDBRANCH  24  25
ENDBRANCH  18  19
ENDBRANCH  17  18
ENDBRANCH  13  17
ENDBRANCH   1  10
BRANCH   1  27
ATOM     27  C   UNL     1       1.322  -0.283   3.248  0.00  0.00    +0.017 C 
ATOM     28  C   UNL     1       2.161   0.691   3.606  0.00  0.00    +0.065 C 
ATOM     29  N   UNL     1       3.221   0.189   4.277  0.00  0.00    -0.156 NA
ATOM     30  N   UNL     1       3.202  -1.036   4.421  0.00  0.00    -0.151 NA
ATOM     31  C   UNL     1       1.973  -1.544   3.788  0.00  0.00    +0.284 C 
ATOM     32  C   UNL     1       1.955   2.153   3.302  0.00  0.00    +0.067 C 
BRANCH  31  33
ATOM     33  O   UNL     1       2.290  -2.445   2.725  0.00  0.00    -0.366 OA
ATOM     34  H   UNL     1       2.708  -3.266   3.017  0.00  0.00    +0.212 HD
ENDBRANCH  31  33
ENDBRANCH   1  27
TORSDOF 8
