REMARK  Name = ZINC06591294
REMARK  8 active torsions:
REMARK  status: ('A' for Active; 'I' for Inactive)
REMARK    1  A    between atoms: C_1  and  C_2
REMARK    2  A    between atoms: C_2  and  C_23
REMARK    3  A    between atoms: C_7  and  C_12
REMARK    4  A    between atoms: C_12  and  N_13
REMARK    5  A    between atoms: C_14  and  C_16
REMARK    6  A    between atoms: C_19  and  C_21
REMARK    7  A    between atoms: C_21  and  N_45
REMARK    8  A    between atoms: C_22  and  N_45
REMARK                            x       y       z     vdW  Elec       q    Type
REMARK                         _______ _______ _______ _____ _____    ______ ____
ROOT
ATOM      1  N   UNL     1       0.002  -0.004   0.002  0.00  0.00    -0.310 N 
ATOM      2  C   UNL     1       0.585  -0.664  -1.018  0.00  0.00    +0.266 C 
ATOM      3  O   UNL     1       1.095  -0.044  -1.932  0.00  0.00    -0.268 OA
ATOM      4  H   UNL     1      -0.404  -0.499   0.731  0.00  0.00    +0.149 HD
ENDROOT
BRANCH   2   5
ATOM      5  C   UNL     1       0.605  -2.139  -1.026  0.00  0.00    +0.163 A 
ATOM      6  C   UNL     1       1.154  -2.934  -1.984  0.00  0.00    +0.230 A 
ATOM      7  O   UNL     1       0.952  -4.205  -1.600  0.00  0.00    -0.449 OA
ATOM      8  C   UNL     1       0.292  -4.191  -0.433  0.00  0.00    +0.179 A 
ATOM      9  N   UNL     1       0.083  -2.959  -0.075  0.00  0.00    -0.210 NA
BRANCH   8  10
ATOM     10  C   UNL     1      -0.132  -5.410   0.344  0.00  0.00    +0.015 C 
BRANCH  10  12
ATOM     11  C   UNL     1      -1.925  -7.008   0.655  0.00  0.00    -0.100 C 
ATOM     12  N   UNL     1      -1.482  -5.814  -0.091  0.00  0.00    +0.383 N 
ATOM     13  H   UNL     1      -1.464  -6.030  -1.095  0.00  0.00    -0.086 HD
ATOM     14  H   UNL     1      -2.139  -5.044   0.082  0.00  0.00    -0.086 HD
ENDBRANCH  10  12
ENDBRANCH   8  10
ENDBRANCH   2   5
BRANCH   1  15
ATOM     15  C   UNL     1      -0.018   1.461   0.010  0.00  0.00    +0.108 C 
BRANCH  15  21
ATOM     16  C   UNL     1      -2.936   3.220   2.731  0.00  0.00    +0.011 C 
ATOM     17  C   UNL     1      -1.721   4.063   2.348  0.00  0.00    -0.029 C 
ATOM     18  C   UNL     1      -0.482   3.874   3.240  0.00  0.00    -0.005 C 
ATOM     19  C   UNL     1      -0.299   2.423   3.705  0.00  0.00    +0.004 C 
ATOM     20  C   UNL     1       0.080   1.550   2.506  0.00  0.00    +0.005 C 
ATOM     21  C   UNL     1      -0.737   1.956   1.274  0.00  0.00    +0.010 C 
ATOM     22  C   UNL     1      -0.845   3.487   1.223  0.00  0.00    -0.000 C 
ATOM     23  C   UNL     1       0.337   4.147   1.962  0.00  0.00    +0.008 C 
ATOM     24  C   UNL     1      -2.102   5.537   2.134  0.00  0.00    +0.011 C 
ENDBRANCH  15  21
ENDBRANCH   1  15
TORSDOF 5
