REMARK  Name = ZINC47846486
REMARK  6 active torsions:
REMARK  status: ('A' for Active; 'I' for Inactive)
REMARK    1  A    between atoms: C_1  and  S_2
REMARK    2  A    between atoms: S_2  and  N_5
REMARK    3  A    between atoms: C_11  and  C_13
REMARK    4  A    between atoms: C_13  and  N_14
REMARK    5  A    between atoms: C_19  and  C_21
REMARK    6  A    between atoms: C_21  and  O_22
REMARK                            x       y       z     vdW  Elec       q    Type
REMARK                         _______ _______ _______ _____ _____    ______ ____
ROOT
ATOM      1  N   UNL     1       1.117  -0.705  -1.067  0.00  0.00    -0.178 NA
ATOM      2  C   UNL     1       0.307  -0.948  -2.269  0.00  0.00    +0.128 C 
ATOM      3  C   UNL     1       0.769   0.011  -3.373  0.00  0.00    +0.125 C 
ATOM      4  N   UNL     1       2.233  -0.064  -3.478  0.00  0.00    -0.300 N 
ATOM      5  C   UNL     1       3.043   0.179  -2.276  0.00  0.00    +0.125 C 
ATOM      6  C   UNL     1       2.581  -0.774  -1.173  0.00  0.00    +0.128 C 
ATOM      7  C   UNL     1       2.823  -0.351  -4.655  0.00  0.00    +0.199 C 
ATOM      8  O   UNL     1       2.145  -0.550  -5.641  0.00  0.00    -0.278 OA
ENDROOT
BRANCH   1  10
ATOM      9  C   UNL     1       0.241   1.456   0.397  0.00  0.00    +0.215 C 
ATOM     10  S   UNL     1       0.392  -0.352   0.380  0.00  0.00    +0.029 S 
ATOM     11  O   UNL     1       1.325  -0.774   1.365  0.00  0.00    -0.158 OA
ATOM     12  O   UNL     1      -0.895  -0.950   0.296  0.00  0.00    -0.158 OA
ENDBRANCH   1  10
BRANCH   7  13
ATOM     13  C   UNL     1       4.326  -0.424  -4.747  0.00  0.00    +0.019 C 
BRANCH  13  14
ATOM     14  N   UNL     1       4.716  -0.750  -6.126  0.00  0.00    +0.389 N 
ATOM     15  C   UNL     1       4.266  -2.108  -6.452  0.00  0.00    -0.078 C 
ATOM     16  C   UNL     1       4.599  -2.422  -7.913  0.00  0.00    -0.019 C 
ATOM     17  C   UNL     1       6.113  -2.321  -8.118  0.00  0.00    -0.003 C 
ATOM     18  C   UNL     1       6.583  -0.923  -7.704  0.00  0.00    -0.013 C 
ATOM     19  C   UNL     1       6.176  -0.665  -6.252  0.00  0.00    -0.042 C 
ATOM     20  H   UNL     1       4.287  -0.093  -6.760  0.00  0.00    -0.081 HD
BRANCH  19  21
ATOM     21  C   UNL     1       6.644   0.731  -5.833  0.00  0.00    +0.140 C 
BRANCH  21  22
ATOM     22  O   UNL     1       6.096   1.704  -6.724  0.00  0.00    -0.397 OA
ATOM     23  H   UNL     1       6.352   2.614  -6.518  0.00  0.00    +0.209 HD
ENDBRANCH  21  22
ENDBRANCH  19  21
ENDBRANCH  13  14
ENDBRANCH   7  13
TORSDOF 5
