REMARK  Name = ZINC51257436
REMARK  14 active torsions:
REMARK  status: ('A' for Active; 'I' for Inactive)
REMARK    1  A    between atoms: C_1  and  C_2
REMARK    2  A    between atoms: C_2  and  C_3
REMARK    3  A    between atoms: C_2  and  C_4
REMARK    4  A    between atoms: C_2  and  C_5
REMARK    5  A    between atoms: C_5  and  N_6
REMARK    6  A    between atoms: N_6  and  C_7
REMARK    7  A    between atoms: N_6  and  C_8
REMARK    8  A    between atoms: C_8  and  C_9
REMARK    9  A    between atoms: C_9  and  C_14
REMARK   10  A    between atoms: C_14  and  N_15
REMARK   11  A    between atoms: N_15  and  C_16
REMARK   12  A    between atoms: C_16  and  C_17
REMARK   13  A    between atoms: C_16  and  C_18
REMARK   14  A    between atoms: C_16  and  C_19
REMARK                            x       y       z     vdW  Elec       q    Type
REMARK                         _______ _______ _______ _____ _____    ______ ____
ROOT
ATOM      1  C   UNL     1       4.243  -0.470  -2.420  0.00  0.00    -0.059 C 
ATOM      2  C   UNL     1       4.604   0.981  -2.038  0.00  0.00    +0.003 C 
ATOM      3  C   UNL     1       4.695   0.955  -0.492  0.00  0.00    +0.000 C 
ATOM      4  C   UNL     1       5.349  -0.421  -0.211  0.00  0.00    +0.000 C 
ATOM      5  C   UNL     1       4.717  -1.361  -1.259  0.00  0.00    +0.003 C 
ENDROOT
BRANCH   1   6
ATOM      6  C   UNL     1       2.729  -0.604  -2.599  0.00  0.00    -0.074 C 
BRANCH   6   7
ATOM      7  N   UNL     1       2.059  -0.337  -1.319  0.00  0.00    +0.378 N 
ATOM      8  C   UNL     1       1.682   1.081  -1.251  0.00  0.00    -0.096 C 
ATOM      9  H   UNL     1       2.686  -0.555  -0.559  0.00  0.00    -0.082 HD
BRANCH   7  10
ATOM     10  C   UNL     1       0.854  -1.170  -1.215  0.00  0.00    -0.073 C 
BRANCH  10  12
ATOM     11  C   UNL     1      -0.525   0.289   0.273  0.00  0.00    +0.009 C 
ATOM     12  C   UNL     1       0.254  -1.025   0.185  0.00  0.00    -0.053 C 
ATOM     13  C   UNL     1       1.377  -1.022   1.224  0.00  0.00    +0.009 C 
ATOM     14  C   UNL     1      -0.690  -2.197   0.459  0.00  0.00    +0.009 C 
ENDBRANCH  10  12
ENDBRANCH   7  10
ENDBRANCH   6   7
ENDBRANCH   1   6
BRANCH   1  15
ATOM     15  C   UNL     1       4.960  -0.866  -3.712  0.00  0.00    -0.077 C 
BRANCH  15  16
ATOM     16  N   UNL     1       6.412  -0.733  -3.526  0.00  0.00    +0.383 N 
ATOM     17  H   UNL     1       6.635   0.224  -3.298  0.00  0.00    -0.085 HD
ATOM     18  H   UNL     1       6.712  -1.337  -2.776  0.00  0.00    -0.085 HD
BRANCH  16  19
ATOM     19  C   UNL     1       7.101  -1.114  -4.767  0.00  0.00    -0.077 C 
ATOM     20  C   UNL     1       6.646  -0.198  -5.905  0.00  0.00    -0.011 C 
ATOM     21  C   UNL     1       8.612  -0.976  -4.574  0.00  0.00    -0.011 C 
ATOM     22  C   UNL     1       6.761  -2.565  -5.114  0.00  0.00    -0.011 C 
ENDBRANCH  16  19
ENDBRANCH  15  16
ENDBRANCH   1  15
TORSDOF 7
