REMARK  Name = ZINC04073991
REMARK  4 active torsions:
REMARK  status: ('A' for Active; 'I' for Inactive)
REMARK    1  A    between atoms: C_1  and  C_2
REMARK    2  A    between atoms: C_18  and  C_20
REMARK    3  A    between atoms: C_20  and  N_58
REMARK    4  A    between atoms: C_21  and  N_58
REMARK                            x       y       z     vdW  Elec       q    Type
REMARK                         _______ _______ _______ _____ _____    ______ ____
ROOT
ATOM      1  C   UNL     1       0.221   0.002   2.319  0.00  0.00    +0.011 C 
ATOM      2  C   UNL     1       0.792  -0.351   0.944  0.00  0.00    -0.023 C 
ATOM      3  C   UNL     1       2.162   0.299   0.754  0.00  0.00    +0.007 C 
ATOM      4  C   UNL     1       2.044   1.816   0.917  0.00  0.00    +0.003 C 
ATOM      5  C   UNL     1       1.131   2.378  -0.177  0.00  0.00    +0.037 C 
ATOM      6  C   UNL     1      -0.223   1.668  -0.106  0.00  0.00    +0.096 C 
ATOM      7  C   UNL     1      -0.161   0.141  -0.154  0.00  0.00    +0.030 C 
ATOM      8  C   UNL     1      -1.549  -0.443   0.096  0.00  0.00    +0.014 C 
ATOM      9  C   UNL     1      -1.517  -1.971   0.016  0.00  0.00    +0.042 C 
ATOM     10  C   UNL     1      -0.426  -2.548   0.938  0.00  0.00    +0.181 C 
ATOM     11  C   UNL     1       0.907  -1.853   0.810  0.00  0.00    +0.052 C 
ATOM     12  O   UNL     1      -1.000  -2.416   2.270  0.00  0.00    -0.461 OA
ATOM     13  C   UNL     1      -2.307  -2.748   2.174  0.00  0.00    +0.309 C 
ATOM     14  O   UNL     1      -2.985  -3.188   3.072  0.00  0.00    -0.251 OA
ATOM     15  C   UNL     1      -2.799  -2.478   0.742  0.00  0.00    +0.087 C 
ATOM     16  C   UNL     1      -1.324   2.315   0.732  0.00  0.00    +0.196 C 
ATOM     17  O   UNL     1      -1.349   2.313  -0.698  0.00  0.00    -0.368 OA
ENDROOT
BRANCH  15  18
ATOM     18  C   UNL     1      -3.309  -3.765   0.090  0.00  0.00    -0.067 C 
BRANCH  18  19
ATOM     19  N   UNL     1      -4.585  -4.153   0.720  0.00  0.00    +0.387 N 
ATOM     20  H   UNL     1      -5.271  -3.400   0.588  0.00  0.00    -0.085 HD
ATOM     21  H   UNL     1      -4.435  -4.306   1.724  0.00  0.00    -0.085 HD
BRANCH  19  22
ATOM     22  C   UNL     1      -5.102  -5.393   0.111  0.00  0.00    +0.016 C 
ATOM     23  C   UNL     1      -4.448  -6.606   0.778  0.00  0.00    -0.007 C 
ATOM     24  C   UNL     1      -4.197  -6.338   2.251  0.00  0.00    +0.000 C 
ATOM     25  C   UNL     1      -5.464  -6.196   3.074  0.00  0.00    +0.019 C 
ATOM     26  C   UNL     1      -6.234  -4.935   2.676  0.00  0.00    +0.104 C 
ATOM     27  N   UNL     1      -7.112  -5.258   1.540  0.00  0.00    -0.317 N 
ATOM     28  C   UNL     1      -6.599  -5.470   0.324  0.00  0.00    +0.199 C 
ATOM     29  O   UNL     1      -7.330  -5.730  -0.608  0.00  0.00    -0.278 OA
ATOM     30  H   UNL     1      -8.072  -5.315   1.673  0.00  0.00    +0.149 HD
ENDBRANCH  19  22
ENDBRANCH  18  19
ENDBRANCH  15  18
TORSDOF 3
