REMARK  Name = ZINC66939470
REMARK  8 active torsions:
REMARK  status: ('A' for Active; 'I' for Inactive)
REMARK    1  A    between atoms: C_1  and  C_2
REMARK    2  A    between atoms: C_2  and  C_4
REMARK    3  A    between atoms: C_2  and  N_18
REMARK    4  A    between atoms: C_4  and  N_5
REMARK    5  A    between atoms: N_5  and  C_6
REMARK    6  A    between atoms: C_6  and  C_8
REMARK    7  A    between atoms: C_6  and  C_15
REMARK    8  A    between atoms: N_21  and  C_24
REMARK                            x       y       z     vdW  Elec       q    Type
REMARK                         _______ _______ _______ _____ _____    ______ ____
ROOT
ATOM      1  N   UNL     1       1.112  -1.835  -1.277  0.00  0.00    +0.390 N 
ATOM      2  H   UNL     1       1.614  -2.157  -0.463  0.00  0.00    -0.084 HD
ATOM      3  H   UNL     1       0.240  -2.337  -1.356  0.00  0.00    -0.084 HD
ENDROOT
BRANCH   1   4
ATOM      4  C   UNL     1       0.841  -0.398  -1.148  0.00  0.00    -0.062 C 
BRANCH   4   6
ATOM      5  C   UNL     1      -0.105   1.372   0.340  0.00  0.00    +0.022 C 
ATOM      6  C   UNL     1       0.109  -0.133   0.169  0.00  0.00    +0.037 C 
BRANCH   6   7
ATOM      7  N   UNL     1       0.913  -0.643   1.287  0.00  0.00    -0.298 NA
ATOM      8  C   UNL     1       0.126  -0.684   2.527  0.00  0.00    +0.103 C 
ATOM      9  C   UNL     1       0.937  -1.387   3.620  0.00  0.00    +0.120 C 
ATOM     10  N   UNL     1       2.243  -0.720   3.735  0.00  0.00    -0.327 N 
ATOM     11  C   UNL     1       3.032  -0.520   2.509  0.00  0.00    +0.120 C 
ATOM     12  C   UNL     1       2.138   0.149   1.459  0.00  0.00    +0.103 C 
BRANCH  10  13
ATOM     13  C   UNL     1       2.722  -0.288   4.974  0.00  0.00    +0.030 A 
ATOM     14  C   UNL     1       1.918  -0.384   6.102  0.00  0.00    +0.023 A 
ATOM     15  C   UNL     1       2.394   0.043   7.326  0.00  0.00    +0.002 A 
ATOM     16  C   UNL     1       3.670   0.566   7.429  0.00  0.00    +0.000 A 
ATOM     17  C   UNL     1       4.474   0.663   6.307  0.00  0.00    +0.002 A 
ATOM     18  C   UNL     1       4.005   0.232   5.081  0.00  0.00    +0.023 A 
ENDBRANCH  10  13
ENDBRANCH   6   7
ENDBRANCH   4   6
ENDBRANCH   1   4
BRANCH   1  19
ATOM     19  C   UNL     1       1.924  -2.075  -2.478  0.00  0.00    +0.047 C 
BRANCH  19  20
ATOM     20  C   UNL     1       2.306  -3.531  -2.544  0.00  0.00    -0.053 A 
ATOM     21  C   UNL     1       1.385  -4.503  -2.201  0.00  0.00    +0.005 A 
ATOM     22  C   UNL     1       1.734  -5.839  -2.262  0.00  0.00    +0.038 A 
ATOM     23  C   UNL     1       3.007  -6.203  -2.667  0.00  0.00    +0.123 A 
ATOM     24  C   UNL     1       3.929  -5.229  -3.010  0.00  0.00    +0.038 A 
ATOM     25  C   UNL     1       3.576  -3.894  -2.953  0.00  0.00    +0.005 A 
ATOM     26  F   UNL     1       3.350  -7.509  -2.726  0.00  0.00    -0.205 F 
ENDBRANCH  19  20
BRANCH  19  27
ATOM     27  C   UNL     1       1.128  -1.708  -3.704  0.00  0.00    +0.201 C 
ATOM     28  O   UNL     1      -0.004  -1.288  -3.589  0.00  0.00    -0.277 OA
ATOM     29  N   UNL     1       1.674  -1.846  -4.928  0.00  0.00    -0.330 N 
ATOM     30  H   UNL     1       2.580  -2.181  -5.020  0.00  0.00    +0.145 HD
ATOM     31  H   UNL     1       1.162  -1.610  -5.717  0.00  0.00    +0.145 HD
ENDBRANCH  19  27
ENDBRANCH   1  19
TORSDOF 7
