REMARK  Name = ZINC39605318
REMARK  7 active torsions:
REMARK  status: ('A' for Active; 'I' for Inactive)
REMARK    1  A    between atoms: C_3  and  C_13
REMARK    2  A    between atoms: C_7  and  C_9
REMARK    3  A    between atoms: C_17  and  C_26
REMARK    4  A    between atoms: N_28  and  C_29
REMARK    5  A    between atoms: C_29  and  C_30
REMARK    6  A    between atoms: C_30  and  C_31
REMARK    7  A    between atoms: C_31  and  O_32
REMARK                            x       y       z     vdW  Elec       q    Type
REMARK                         _______ _______ _______ _____ _____    ______ ____
ROOT
ATOM      1  C   UNL     1       3.684   0.512  -0.565  0.00  0.00    +0.236 C 
ATOM      2  O   UNL     1       4.057  -0.360   0.190  0.00  0.00    -0.274 OA
ATOM      3  N   UNL     1       4.574   1.387  -1.076  0.00  0.00    -0.299 N 
ATOM      4  C   UNL     1       4.311   2.514  -2.001  0.00  0.00    +0.121 C 
ATOM      5  C   UNL     1       5.228   3.653  -1.498  0.00  0.00    +0.100 C 
ATOM      6  C   UNL     1       6.359   2.940  -0.739  0.00  0.00    -0.004 C 
ATOM      7  C   UNL     1       6.036   1.441  -0.834  0.00  0.00    +0.115 C 
ATOM      8  C   UNL     1       6.372   3.378   0.723  0.00  0.00    -0.010 C 
ATOM      9  C   UNL     1       7.540   2.700   1.444  0.00  0.00    -0.082 C 
ATOM     10  N   UNL     1       8.802   3.068   0.790  0.00  0.00    +0.379 N 
ATOM     11  C   UNL     1       8.818   2.561  -0.588  0.00  0.00    -0.082 C 
ATOM     12  C   UNL     1       7.704   3.233  -1.395  0.00  0.00    -0.010 C 
ATOM     13  H   UNL     1       8.892   4.072   0.778  0.00  0.00    -0.086 HD
ATOM     14  H   UNL     1       9.574   2.669   1.302  0.00  0.00    -0.086 HD
ENDROOT
BRANCH   1  17
ATOM     15  C   UNL     1       0.058   1.271  -0.132  0.00  0.00    +0.021 C 
ATOM     16  C   UNL     1       1.540   1.728  -0.097  0.00  0.00    +0.033 C 
ATOM     17  C   UNL     1       2.227   0.620  -0.933  0.00  0.00    +0.162 C 
ATOM     18  N   UNL     1       1.513  -0.620  -0.576  0.00  0.00    -0.283 N 
ATOM     19  C   UNL     1       0.169  -0.268  -0.094  0.00  0.00    +0.109 C 
ATOM     20  C   UNL     1       2.010  -1.869  -0.675  0.00  0.00    +0.320 C 
ATOM     21  O   UNL     1       3.136  -2.042  -1.089  0.00  0.00    -0.266 OA
BRANCH  20  22
ATOM     22  C   UNL     1       1.164  -3.050  -0.273  0.00  0.00    +0.470 C 
ATOM     23  F   UNL     1       1.891  -4.230  -0.464  0.00  0.00    -0.162 F 
ATOM     24  F   UNL     1       0.812  -2.933   1.076  0.00  0.00    -0.162 F 
ATOM     25  F   UNL     1       0.006  -3.083  -1.057  0.00  0.00    -0.162 F 
ENDBRANCH  20  22
ENDBRANCH   1  17
BRANCH   5  26
ATOM     26  C   UNL     1       5.784   4.431  -2.663  0.00  0.00    +0.218 C 
ATOM     27  O   UNL     1       5.981   3.877  -3.724  0.00  0.00    -0.275 OA
ATOM     28  N   UNL     1       6.064   5.742  -2.525  0.00  0.00    -0.315 N 
ATOM     29  H   UNL     1       5.907   6.185  -1.677  0.00  0.00    +0.149 HD
BRANCH  28  30
ATOM     30  C   UNL     1       6.605   6.498  -3.658  0.00  0.00    +0.106 C 
BRANCH  30  31
ATOM     31  C   UNL     1       6.831   7.952  -3.238  0.00  0.00    +0.046 C 
BRANCH  31  32
ATOM     32  C   UNL     1       7.396   8.742  -4.420  0.00  0.00    +0.157 C 
BRANCH  32  33
ATOM     33  O   UNL     1       7.607  10.100  -4.029  0.00  0.00    -0.395 OA
ATOM     34  H   UNL     1       7.965  10.661  -4.731  0.00  0.00    +0.209 HD
ENDBRANCH  32  33
ENDBRANCH  31  32
ENDBRANCH  30  31
ENDBRANCH  28  30
ENDBRANCH   5  26
TORSDOF 7
