REMARK  Name = ZINC62747950
REMARK  5 active torsions:
REMARK  status: ('A' for Active; 'I' for Inactive)
REMARK    1  A    between atoms: C_1  and  C_2
REMARK    2  A    between atoms: C_2  and  C_4
REMARK    3  A    between atoms: C_9  and  O_10
REMARK    4  A    between atoms: O_10  and  C_11
REMARK    5  A    between atoms: C_18  and  O_20
REMARK                            x       y       z     vdW  Elec       q    Type
REMARK                         _______ _______ _______ _____ _____    ______ ____
ROOT
ATOM      1  C   UNL     1       0.265  -0.748  -1.282  0.00  0.00    +0.059 A 
ATOM      2  C   UNL     1       0.520  -0.064  -2.478  0.00  0.00    +0.018 A 
ATOM      3  C   UNL     1       0.776  -0.769  -3.631  0.00  0.00    +0.039 A 
ATOM      4  C   UNL     1       0.783  -2.158  -3.616  0.00  0.00    +0.127 A 
ATOM      5  C   UNL     1       0.533  -2.847  -2.442  0.00  0.00    +0.084 A 
ATOM      6  C   UNL     1       0.279  -2.153  -1.270  0.00  0.00    +0.134 A 
ATOM      7  F   UNL     1       1.036  -2.841  -4.754  0.00  0.00    -0.205 F 
ENDROOT
BRANCH   1   9
ATOM      8  C   UNL     1      -0.023   1.504  -0.068  0.00  0.00    +0.092 C 
ATOM      9  C   UNL     1      -0.009  -0.003  -0.050  0.00  0.00    +0.164 C 
ATOM     10  O   UNL     1      -0.224  -0.599   0.985  0.00  0.00    -0.292 OA
ENDBRANCH   1   9
BRANCH   6  11
ATOM     11  O   UNL     1       0.039  -2.827  -0.118  0.00  0.00    -0.484 OA
BRANCH  11  12
ATOM     12  C   UNL     1      -0.053  -4.250  -0.206  0.00  0.00    +0.224 C 
ATOM     13  C   UNL     1       1.376  -4.837  -0.223  0.00  0.00    +0.213 C 
ATOM     14  S   UNL     1       1.580  -5.341   1.541  0.00  0.00    -0.025 S 
ATOM     15  O   UNL     1       1.953  -4.209   2.314  0.00  0.00    -0.174 OA
ATOM     16  O   UNL     1       2.361  -6.527   1.605  0.00  0.00    -0.174 OA
ATOM     17  C   UNL     1      -0.188  -5.753   1.874  0.00  0.00    +0.201 C 
ATOM     18  C   UNL     1      -0.908  -4.753   0.947  0.00  0.00    +0.177 C 
BRANCH  18  19
ATOM     19  O   UNL     1      -2.069  -5.390   0.410  0.00  0.00    -0.386 OA
ATOM     20  H   UNL     1      -2.671  -5.740   1.081  0.00  0.00    +0.210 HD
ENDBRANCH  18  19
ENDBRANCH  11  12
ENDBRANCH   6  11
TORSDOF 4
