REMARK  Name = ZINC44742554
REMARK  10 active torsions:
REMARK  status: ('A' for Active; 'I' for Inactive)
REMARK    1  A    between atoms: C_1  and  C_2
REMARK    2  A    between atoms: C_2  and  C_3
REMARK    3  A    between atoms: C_3  and  C_5
REMARK    4  A    between atoms: C_3  and  N_6
REMARK    5  A    between atoms: C_7  and  C_9
REMARK    6  A    between atoms: C_9  and  N_10
REMARK    7  A    between atoms: N_13  and  C_16
REMARK    8  A    between atoms: C_16  and  C_17
REMARK    9  A    between atoms: N_22  and  C_23
REMARK   10  A    between atoms: C_29  and  C_31
REMARK                            x       y       z     vdW  Elec       q    Type
REMARK                         _______ _______ _______ _____ _____    ______ ____
ROOT
ATOM      1  N   UNL     1       4.803   0.553  -3.671  0.00  0.00    +0.387 N 
ATOM      2  C   UNL     1       4.804  -0.785  -4.278  0.00  0.00    -0.063 C 
ATOM      3  C   UNL     1       5.340  -0.696  -5.708  0.00  0.00    +0.066 C 
ATOM      4  N   UNL     1       6.704  -0.149  -5.684  0.00  0.00    -0.298 NA
ATOM      5  C   UNL     1       6.723   1.179  -5.056  0.00  0.00    +0.066 C 
ATOM      6  C   UNL     1       6.176   1.075  -3.631  0.00  0.00    -0.063 C 
ATOM      7  H   UNL     1       4.224   1.171  -4.220  0.00  0.00    -0.081 HD
ENDROOT
BRANCH   1   8
ATOM      8  C   UNL     1       4.271   0.470  -2.304  0.00  0.00    +0.019 C 
BRANCH   8  10
ATOM      9  N   UNL     1       2.125  -0.091  -1.209  0.00  0.00    -0.314 N 
ATOM     10  C   UNL     1       2.824   0.051  -2.353  0.00  0.00    +0.197 C 
ATOM     11  O   UNL     1       2.289  -0.157  -3.421  0.00  0.00    -0.278 OA
ATOM     12  H   UNL     1       2.553   0.075  -0.355  0.00  0.00    +0.149 HD
BRANCH   9  13
ATOM     13  C   UNL     1       0.718  -0.497  -1.257  0.00  0.00    +0.070 C 
ATOM     14  C   UNL     1       0.630  -2.023  -1.329  0.00  0.00    +0.028 C 
BRANCH  13  16
ATOM     15  C   UNL     1      -0.019   1.526   0.010  0.00  0.00    +0.005 C 
ATOM     16  C   UNL     1       0.002  -0.004   0.002  0.00  0.00    +0.018 C 
ENDBRANCH  13  16
ENDBRANCH   9  13
ENDBRANCH   8  10
ENDBRANCH   1   8
BRANCH   4  17
ATOM     17  C   UNL     1       7.277  -0.101  -7.036  0.00  0.00    +0.180 C 
BRANCH  17  18
ATOM     18  C   UNL     1       8.745   0.227  -6.948  0.00  0.00    +0.234 C 
ATOM     19  O   UNL     1       9.263   0.404  -5.867  0.00  0.00    -0.274 OA
ATOM     20  N   UNL     1       9.482   0.325  -8.073  0.00  0.00    -0.239 N 
ATOM     21  C   UNL     1      10.795   0.619  -7.994  0.00  0.00    +0.306 C 
ATOM     22  O   UNL     1      11.314   0.795  -6.910  0.00  0.00    -0.252 OA
ATOM     23  N   UNL     1      11.531   0.716  -9.119  0.00  0.00    -0.296 N 
ATOM     24  H   UNL     1       9.067   0.184  -8.938  0.00  0.00    +0.159 HD
ATOM     25  H   UNL     1      11.117   0.575  -9.984  0.00  0.00    +0.151 HD
BRANCH  23  26
ATOM     26  C   UNL     1      12.959   1.036  -9.034  0.00  0.00    +0.077 C 
ATOM     27  C   UNL     1      13.138   2.553  -8.959  0.00  0.00    +0.022 C 
ATOM     28  C   UNL     1      12.545   3.199 -10.213  0.00  0.00    +0.002 C 
ATOM     29  C   UNL     1      13.263   2.661 -11.452  0.00  0.00    +0.000 C 
ATOM     30  C   UNL     1      13.083   1.143 -11.527  0.00  0.00    +0.005 C 
ATOM     31  C   UNL     1      13.676   0.497 -10.273  0.00  0.00    +0.006 C 
ATOM     32  C   UNL     1      13.496  -1.020 -10.348  0.00  0.00    +0.009 C 
ENDBRANCH  23  26
ENDBRANCH  17  18
ENDBRANCH   4  17
TORSDOF 7
