REMARK  Name = ZINC40345914
REMARK  9 active torsions:
REMARK  status: ('A' for Active; 'I' for Inactive)
REMARK    1  A    between atoms: C_1  and  C_2
REMARK    2  A    between atoms: C_2  and  C_3
REMARK    3  A    between atoms: C_2  and  O_4
REMARK    4  A    between atoms: O_4  and  C_5
REMARK    5  A    between atoms: C_5  and  C_6
REMARK    6  A    between atoms: C_9  and  C_11
REMARK    7  A    between atoms: N_13  and  N_14
REMARK    8  A    between atoms: C_15  and  C_17
REMARK    9  A    between atoms: C_26  and  N_27
REMARK                            x       y       z     vdW  Elec       q    Type
REMARK                         _______ _______ _______ _____ _____    ______ ____
ROOT
ATOM      1  N   UNL     1      -6.236  -5.176   2.885  0.00  0.00    -0.230 N 
ATOM      2  C   UNL     1      -5.826  -5.729   4.043  0.00  0.00    +0.263 C 
ATOM      3  O   UNL     1      -4.667  -5.616   4.394  0.00  0.00    -0.269 OA
ATOM      4  H   UNL     1      -7.161  -5.266   2.604  0.00  0.00    +0.173 HD
ENDROOT
BRANCH   2   5
ATOM      5  C   UNL     1      -6.780  -6.471   4.883  0.00  0.00    +0.075 A 
ATOM      6  C   UNL     1      -8.144  -6.504   4.549  0.00  0.00    +0.098 A 
ATOM      7  N   UNL     1      -9.013  -7.155   5.277  0.00  0.00    -0.360 N 
ATOM      8  C   UNL     1      -8.655  -7.827   6.380  0.00  0.00    +0.048 A 
ATOM      9  C   UNL     1      -9.611  -8.518   7.143  0.00  0.00    +0.026 A 
ATOM     10  C   UNL     1      -9.226  -9.195   8.260  0.00  0.00    +0.002 A 
ATOM     11  C   UNL     1      -7.894  -9.214   8.664  0.00  0.00    +0.001 A 
ATOM     12  C   UNL     1      -6.939  -8.555   7.949  0.00  0.00    +0.012 A 
ATOM     13  C   UNL     1      -7.302  -7.849   6.793  0.00  0.00    +0.020 A 
ATOM     14  C   UNL     1      -6.336  -7.158   6.022  0.00  0.00    +0.047 A 
ATOM     15  H   UNL     1      -9.946  -7.152   5.010  0.00  0.00    +0.165 HD
BRANCH  14  16
ATOM     16  N   UNL     1      -5.007  -7.156   6.382  0.00  0.00    -0.357 N 
ATOM     17  H   UNL     1      -4.372  -6.611   5.891  0.00  0.00    +0.142 HD
ATOM     18  H   UNL     1      -4.705  -7.700   7.126  0.00  0.00    +0.142 HD
ENDBRANCH  14  16
ENDBRANCH   2   5
BRANCH   1  21
ATOM     19  C   UNL     1      -5.739  -3.916   0.927  0.00  0.00    +0.295 C 
ATOM     20  O   UNL     1      -6.898  -4.029   0.576  0.00  0.00    -0.265 OA
ATOM     21  N   UNL     1      -5.328  -4.469   2.085  0.00  0.00    -0.228 N 
ATOM     22  H   UNL     1      -4.404  -4.379   2.365  0.00  0.00    +0.173 HD
BRANCH  19  26
ATOM     23  C   UNL     1      -2.928  -2.259  -0.625  0.00  0.00    +0.131 A 
ATOM     24  C   UNL     1      -3.875  -1.986  -1.549  0.00  0.00    +0.048 A 
ATOM     25  C   UNL     1      -5.070  -2.570  -1.100  0.00  0.00    +0.055 A 
ATOM     26  C   UNL     1      -4.788  -3.176   0.090  0.00  0.00    +0.191 A 
ATOM     27  O   UNL     1      -3.480  -2.981   0.359  0.00  0.00    -0.453 OA
BRANCH  23  28
ATOM     28  C   UNL     1      -1.485  -1.827  -0.692  0.00  0.00    +0.234 C 
BRANCH  28  29
ATOM     29  O   UNL     1      -1.338  -0.557  -0.055  0.00  0.00    -0.369 OA
BRANCH  29  31
ATOM     30  C   UNL     1      -0.031   1.476  -0.082  0.00  0.00    +0.037 C 
ATOM     31  C   UNL     1      -0.000  -0.054  -0.064  0.00  0.00    +0.113 C 
ATOM     32  C   UNL     1       0.734  -0.534   1.190  0.00  0.00    +0.037 C 
ENDBRANCH  29  31
ENDBRANCH  28  29
ENDBRANCH  23  28
ENDBRANCH  19  26
ENDBRANCH   1  21
TORSDOF 7
