REMARK  Name = ZINC40700821
REMARK  8 active torsions:
REMARK  status: ('A' for Active; 'I' for Inactive)
REMARK    1  A    between atoms: C_1  and  C_2
REMARK    2  A    between atoms: C_11  and  N_12
REMARK    3  A    between atoms: C_14  and  N_30
REMARK    4  A    between atoms: C_15  and  O_19
REMARK    5  A    between atoms: O_19  and  C_20
REMARK    6  A    between atoms: C_23  and  C_26
REMARK    7  A    between atoms: C_26  and  O_28
REMARK    8  A    between atoms: O_28  and  C_29
REMARK                            x       y       z     vdW  Elec       q    Type
REMARK                         _______ _______ _______ _____ _____    ______ ____
ROOT
ATOM      1  N   UNL     1       0.523  -4.881  -1.097  0.00  0.00    -0.297 N 
ATOM      2  C   UNL     1       0.655  -6.264  -1.066  0.00  0.00    +0.151 A 
ATOM      3  C   UNL     1       0.523  -7.017  -2.237  0.00  0.00    +0.128 A 
ATOM      4  C   UNL     1       0.665  -8.401  -2.149  0.00  0.00    +0.246 A 
ATOM      5  N   UNL     1       0.918  -8.949  -0.965  0.00  0.00    -0.199 NA
ATOM      6  C   UNL     1       1.036  -8.205   0.116  0.00  0.00    +0.227 A 
ATOM      7  N   UNL     1       0.915  -6.893   0.077  0.00  0.00    -0.218 NA
ATOM      8  H   UNL     1       0.429  -4.422  -1.946  0.00  0.00    +0.154 HD
ENDROOT
BRANCH   1  19
ATOM      9  C   UNL     1       2.317   1.190   0.341  0.00  0.00    +0.063 C 
ATOM     10  C   UNL     1       1.841  -0.238   0.260  0.00  0.00    +0.013 A 
ATOM     11  C   UNL     1       1.870  -0.893  -0.968  0.00  0.00    +0.021 A 
ATOM     12  C   UNL     1       1.443  -2.188  -1.060  0.00  0.00    +0.013 A 
ATOM     13  C   UNL     1       0.983  -2.820   0.108  0.00  0.00    +0.020 A 
ATOM     14  C   UNL     1       0.979  -2.095   1.326  0.00  0.00    +0.048 A 
ATOM     15  N   UNL     1       1.415  -0.831   1.349  0.00  0.00    -0.358 N 
ATOM     16  C   UNL     1       0.519  -2.723   2.496  0.00  0.00    +0.026 A 
ATOM     17  C   UNL     1       0.084  -4.013   2.453  0.00  0.00    +0.004 A 
ATOM     18  C   UNL     1       0.083  -4.733   1.263  0.00  0.00    +0.024 A 
ATOM     19  C   UNL     1       0.526  -4.154   0.091  0.00  0.00    +0.042 A 
ATOM     20  H   UNL     1       1.413  -0.343   2.187  0.00  0.00    +0.166 HD
ENDBRANCH   1  19
BRANCH   3  21
ATOM     21  N   UNL     1       0.255  -6.396  -3.466  0.00  0.00    -0.351 N 
ATOM     22  H   UNL     1       0.159  -5.432  -3.512  0.00  0.00    +0.143 HD
ATOM     23  H   UNL     1       0.166  -6.931  -4.270  0.00  0.00    +0.143 HD
ENDBRANCH   3  21
BRANCH   4  24
ATOM     24  O   UNL     1       0.545  -9.176  -3.256  0.00  0.00    -0.436 OA
BRANCH  24  25
ATOM     25  C   UNL     1       0.558 -10.524  -3.094  0.00  0.00    +0.130 A 
ATOM     26  C   UNL     1      -0.572 -11.174  -2.612  0.00  0.00    +0.047 A 
ATOM     27  C   UNL     1      -0.564 -12.541  -2.445  0.00  0.00    +0.018 A 
ATOM     28  C   UNL     1       0.583 -13.274  -2.763  0.00  0.00    +0.059 A 
ATOM     29  C   UNL     1       1.717 -12.616  -3.248  0.00  0.00    +0.018 A 
ATOM     30  C   UNL     1       1.698 -11.250  -3.417  0.00  0.00    +0.047 A 
BRANCH  28  31
ATOM     31  C   UNL     1       0.597 -14.738  -2.586  0.00  0.00    +0.339 C 
ATOM     32  O   UNL     1      -0.390 -15.309  -2.164  0.00  0.00    -0.245 OA
BRANCH  31  33
ATOM     33  O   UNL     1       1.703 -15.444  -2.893  0.00  0.00    -0.464 OA
ATOM     34  C   UNL     1       1.646 -16.858  -2.697  0.00  0.00    +0.280 C 
ENDBRANCH  31  33
ENDBRANCH  28  31
ENDBRANCH  24  25
ENDBRANCH   4  24
TORSDOF 6
