REMARK  Name = ZINC16923310
REMARK  7 active torsions:
REMARK  status: ('A' for Active; 'I' for Inactive)
REMARK    1  A    between atoms: C_1  and  C_2
REMARK    2  A    between atoms: C_5  and  N_8
REMARK    3  A    between atoms: C_11  and  C_16
REMARK    4  A    between atoms: C_16  and  C_17
REMARK    5  A    between atoms: N_19  and  C_20
REMARK    6  A    between atoms: C_23  and  O_28
REMARK    7  A    between atoms: C_25  and  C_26
REMARK                            x       y       z     vdW  Elec       q    Type
REMARK                         _______ _______ _______ _____ _____    ______ ____
ROOT
ATOM      1  C   UNL     1       1.421  -1.387  -1.036  0.00  0.00    +0.120 C 
ENDROOT
BRANCH   1   5
ATOM      2  N   UNL     1       0.038   1.364   0.564  0.00  0.00    -0.200 N 
ATOM      3  C   UNL     1       0.012   0.044   0.487  0.00  0.00    +0.241 C 
ATOM      4  O   UNL     1      -1.018  -0.590   0.569  0.00  0.00    -0.274 OA
ATOM      5  C   UNL     1       1.365  -0.625   0.290  0.00  0.00    +0.151 C 
ATOM      6  S   UNL     1       2.447   0.860   0.254  0.00  0.00    -0.054 S 
ATOM      7  C   UNL     1       1.169   2.088   0.476  0.00  0.00    +0.286 C 
ATOM      8  O   UNL     1       1.293   3.296   0.535  0.00  0.00    -0.262 OA
BRANCH   2  13
ATOM      9  C   UNL     1      -4.873   4.118   1.276  0.00  0.00    +0.044 C 
ATOM     10  C   UNL     1      -3.569   3.387   1.087  0.00  0.00    -0.050 A 
ATOM     11  C   UNL     1      -3.338   2.679  -0.078  0.00  0.00    +0.005 A 
ATOM     12  C   UNL     1      -2.143   2.008  -0.254  0.00  0.00    +0.024 A 
ATOM     13  C   UNL     1      -1.175   2.044   0.740  0.00  0.00    +0.045 A 
ATOM     14  C   UNL     1      -1.413   2.750   1.911  0.00  0.00    +0.024 A 
ATOM     15  C   UNL     1      -2.607   3.425   2.079  0.00  0.00    +0.005 A 
ENDBRANCH   2  13
ENDBRANCH   1   5
BRANCH   1  16
ATOM     16  C   UNL     1       2.728  -2.131  -1.133  0.00  0.00    +0.219 C 
ATOM     17  O   UNL     1       3.535  -2.059  -0.231  0.00  0.00    -0.275 OA
ATOM     18  N   UNL     1       2.999  -2.876  -2.222  0.00  0.00    -0.285 N 
ATOM     19  H   UNL     1       2.390  -2.872  -2.977  0.00  0.00    +0.155 HD
BRANCH  18  20
ATOM     20  C   UNL     1       4.156  -3.653  -2.265  0.00  0.00    +0.048 A 
ATOM     21  C   UNL     1       4.632  -4.257  -1.109  0.00  0.00    +0.028 A 
ATOM     22  C   UNL     1       5.774  -5.031  -1.151  0.00  0.00    +0.047 A 
ATOM     23  C   UNL     1       6.462  -5.203  -2.346  0.00  0.00    +0.118 A 
ATOM     24  C   UNL     1       6.005  -4.604  -3.505  0.00  0.00    +0.062 A 
ATOM     25  C   UNL     1       4.846  -3.823  -3.474  0.00  0.00    +0.088 A 
BRANCH  25  26
ATOM     26  C   UNL     1       4.352  -3.181  -4.705  0.00  0.00    +0.388 C 
ATOM     27  O   UNL     1       3.298  -2.577  -4.695  0.00  0.00    -0.241 OA
ATOM     28  O   UNL     1       5.070  -3.263  -5.843  0.00  0.00    -0.241 OA
ENDBRANCH  25  26
BRANCH  23  29
ATOM     29  O   UNL     1       7.590  -5.962  -2.376  0.00  0.00    -0.507 OA
ATOM     30  H   UNL     1       8.403  -5.466  -2.207  0.00  0.00    +0.292 HD
ENDBRANCH  23  29
ENDBRANCH  18  20
ENDBRANCH   1  16
TORSDOF 6
