REMARK  Name = ZINC00478524
REMARK  6 active torsions:
REMARK  status: ('A' for Active; 'I' for Inactive)
REMARK    1  A    between atoms: C_1  and  C_2
REMARK    2  A    between atoms: C_3  and  C_19
REMARK    3  A    between atoms: C_6  and  O_17
REMARK    4  A    between atoms: C_7  and  C_11
REMARK    5  A    between atoms: N_12  and  N_13
REMARK    6  A    between atoms: O_17  and  C_18
REMARK                            x       y       z     vdW  Elec       q    Type
REMARK                         _______ _______ _______ _____ _____    ______ ____
ROOT
ATOM      1  C   UNL     1      -0.018   1.503   0.010  0.00  0.00    +0.087 C 
ATOM      2  C   UNL     1       0.002  -0.004   0.002  0.00  0.00    +0.111 A 
ATOM      3  C   UNL     1      -1.096  -0.796   0.003  0.00  0.00    +0.031 A 
ATOM      4  C   UNL     1      -0.595  -2.182  -0.008  0.00  0.00    +0.032 A 
ATOM      5  C   UNL     1      -1.210  -3.433  -0.012  0.00  0.00    +0.058 A 
ATOM      6  C   UNL     1      -0.438  -4.576  -0.022  0.00  0.00    +0.130 A 
ATOM      7  C   UNL     1       0.965  -4.475  -0.029  0.00  0.00    +0.040 A 
ATOM      8  C   UNL     1       1.579  -3.225  -0.024  0.00  0.00    +0.060 A 
ATOM      9  C   UNL     1       0.806  -2.075  -0.014  0.00  0.00    +0.137 A 
ATOM     10  O   UNL     1       1.112  -0.760  -0.013  0.00  0.00    -0.459 OA
ENDROOT
BRANCH   3  11
ATOM     11  C   UNL     1      -2.513  -0.358   0.013  0.00  0.00    -0.014 A 
ATOM     12  C   UNL     1      -3.324  -0.640   1.111  0.00  0.00    +0.008 A 
ATOM     13  C   UNL     1      -4.641  -0.231   1.115  0.00  0.00    +0.001 A 
ATOM     14  C   UNL     1      -5.158   0.458   0.033  0.00  0.00    +0.000 A 
ATOM     15  C   UNL     1      -4.358   0.741  -1.060  0.00  0.00    +0.001 A 
ATOM     16  C   UNL     1      -3.037   0.342  -1.072  0.00  0.00    +0.008 A 
ENDBRANCH   3  11
BRANCH   7  17
ATOM     17  C   UNL     1       1.788  -5.697  -0.040  0.00  0.00    +0.144 C 
ATOM     18  N   UNL     1       1.218  -6.864  -0.043  0.00  0.00    -0.180 NA
BRANCH  18  19
ATOM     19  N   UNL     1       2.000  -8.026  -0.054  0.00  0.00    -0.258 N 
ATOM     20  C   UNL     1       1.400  -9.254  -0.058  0.00  0.00    +0.156 C 
ATOM     21  N   UNL     1       0.036  -9.349  -0.051  0.00  0.00    -0.338 N 
ATOM     22  S   UNL     1       2.328 -10.631  -0.070  0.00  0.00    -0.015 SA
ATOM     23  H   UNL     1      -0.506  -8.544  -0.044  0.00  0.00    +0.144 HD
ATOM     24  H   UNL     1      -0.390 -10.220  -0.054  0.00  0.00    +0.144 HD
ATOM     25  H   UNL     1       2.968  -7.958  -0.058  0.00  0.00    +0.191 HD
ENDBRANCH  18  19
ENDBRANCH   7  17
BRANCH   6  26
ATOM     26  O   UNL     1      -1.032  -5.798  -0.026  0.00  0.00    -0.494 OA
ATOM     27  C   UNL     1      -2.461  -5.825  -0.018  0.00  0.00    +0.277 C 
ENDBRANCH   6  26
TORSDOF 4
