REMARK  Name = ZINC57553834
REMARK  5 active torsions:
REMARK  status: ('A' for Active; 'I' for Inactive)
REMARK    1  A    between atoms: C_1  and  C_2
REMARK    2  A    between atoms: C_2  and  C_4
REMARK    3  A    between atoms: C_2  and  N_11
REMARK    4  A    between atoms: N_11  and  C_12
REMARK    5  A    between atoms: C_12  and  C_13
REMARK                            x       y       z     vdW  Elec       q    Type
REMARK                         _______ _______ _______ _____ _____    ______ ____
ROOT
ATOM      1  C   UNL     1      -0.235  -0.547  -2.346  0.00  0.00    +0.135 C 
ENDROOT
BRANCH   1   2
ATOM      2  C   UNL     1       0.504  -1.036  -3.564  0.00  0.00    +0.037 A 
ATOM      3  C   UNL     1       0.179  -2.243  -4.145  0.00  0.00    +0.093 A 
ATOM      4  C   UNL     1       0.874  -2.679  -5.273  0.00  0.00    +0.259 A 
ATOM      5  O   UNL     1       0.590  -3.747  -5.792  0.00  0.00    -0.267 OA
ATOM      6  N   UNL     1       1.874  -1.908  -5.798  0.00  0.00    -0.264 N 
ATOM      7  C   UNL     1       2.644  -2.199  -6.898  0.00  0.00    +0.104 A 
ATOM      8  C   UNL     1       3.594  -1.361  -7.313  0.00  0.00    +0.067 A 
ATOM      9  S   UNL     1       3.460  -0.037  -6.122  0.00  0.00    -0.059 S 
ATOM     10  C   UNL     1       2.131  -0.725  -5.159  0.00  0.00    +0.158 A 
ATOM     11  N   UNL     1       1.479  -0.307  -4.103  0.00  0.00    -0.338 N 
ATOM     12  H   UNL     1       1.712   0.546  -3.704  0.00  0.00    +0.168 HD
ENDBRANCH   1   2
BRANCH   1  13
ATOM     13  N   UNL     1       0.690  -0.478  -1.207  0.00  0.00    -0.304 NA
ATOM     14  H   UNL     1       1.485   0.104  -1.422  0.00  0.00    +0.123 HD
BRANCH  13  16
ATOM     15  C   UNL     1      -0.019   1.526   0.010  0.00  0.00    +0.029 C 
ATOM     16  C   UNL     1       0.002  -0.004   0.002  0.00  0.00    +0.081 C 
BRANCH  16  17
ATOM     17  C   UNL     1       0.731  -0.503   1.223  0.00  0.00    -0.031 A 
ATOM     18  C   UNL     1       2.113  -0.514   1.246  0.00  0.00    +0.006 A 
ATOM     19  C   UNL     1       2.782  -0.971   2.366  0.00  0.00    +0.020 A 
ATOM     20  C   UNL     1       2.068  -1.419   3.463  0.00  0.00    +0.041 A 
ATOM     21  C   UNL     1       0.685  -1.409   3.439  0.00  0.00    +0.020 A 
ATOM     22  C   UNL     1       0.017  -0.945   2.321  0.00  0.00    +0.006 A 
ATOM     23 CL   UNL     1       2.908  -1.995   4.869  0.00  0.00    -0.084 Cl
ENDBRANCH  16  17
ENDBRANCH  13  16
ENDBRANCH   1  13
TORSDOF 4
