REMARK  Name = ZINC12454097
REMARK  5 active torsions:
REMARK  status: ('A' for Active; 'I' for Inactive)
REMARK    1  A    between atoms: C_4  and  C_7
REMARK    2  A    between atoms: C_7  and  N_8
REMARK    3  A    between atoms: C_12  and  C_15
REMARK    4  A    between atoms: C_12  and  O_22
REMARK    5  A    between atoms: C_15  and  N_55
REMARK                            x       y       z     vdW  Elec       q    Type
REMARK                         _______ _______ _______ _____ _____    ______ ____
ROOT
ATOM      1  N   UNL     1       3.412   2.793   3.366  0.00  0.00    -0.299 N 
ATOM      2  C   UNL     1       3.594   2.616   4.801  0.00  0.00    +0.108 C 
ATOM      3  C   UNL     1       2.404   1.868   5.403  0.00  0.00    +0.022 C 
ATOM      4  C   UNL     1       1.111   2.560   4.953  0.00  0.00    +0.044 C 
ATOM      5  C   UNL     1       0.953   2.355   3.444  0.00  0.00    +0.127 C 
ATOM      6  C   UNL     1       2.236   2.702   2.744  0.00  0.00    +0.245 C 
ATOM      7  O   UNL     1       2.200   2.909   1.550  0.00  0.00    -0.273 OA
ENDROOT
BRANCH   5   8
ATOM      8  O   UNL     1       0.626   0.989   3.183  0.00  0.00    -0.381 OA
ATOM      9  H   UNL     1       1.294   0.359   3.486  0.00  0.00    +0.211 HD
ENDBRANCH   5   8
BRANCH   1  10
ATOM     10  C   UNL     1       4.596   3.091   2.555  0.00  0.00    +0.111 C 
BRANCH  10  14
ATOM     11  C   UNL     1       7.535  -0.004   1.841  0.00  0.00    +0.000 C 
ATOM     12  C   UNL     1       7.013   0.787   0.639  0.00  0.00    +0.000 C 
ATOM     13  C   UNL     1       6.385   2.095   1.123  0.00  0.00    +0.005 C 
ATOM     14  C   UNL     1       5.224   1.783   2.071  0.00  0.00    +0.006 C 
ATOM     15  C   UNL     1       5.745   0.992   3.272  0.00  0.00    +0.005 C 
ATOM     16  C   UNL     1       6.374  -0.316   2.788  0.00  0.00    +0.000 C 
ENDBRANCH  10  14
ENDBRANCH   1  10
BRANCH   5  17
ATOM     17  C   UNL     1      -0.169   3.255   2.924  0.00  0.00    -0.034 C 
BRANCH  17  24
ATOM     18  C   UNL     1      -0.950   4.314   0.880  0.00  0.00    -0.076 C 
ATOM     19  C   UNL     1      -1.297   4.101  -0.599  0.00  0.00    +0.009 C 
ATOM     20  C   UNL     1      -0.166   3.440  -1.349  0.00  0.00    +0.158 C 
ATOM     21  O   UNL     1      -0.380   2.020  -1.310  0.00  0.00    -0.382 OA
ATOM     22  C   UNL     1      -0.002   1.360  -0.176  0.00  0.00    +0.141 C 
ATOM     23  C   UNL     1      -0.781   1.868   1.057  0.00  0.00    -0.050 C 
ATOM     24  N   UNL     1      -0.189   3.159   1.463  0.00  0.00    +0.383 N 
ATOM     25  H   UNL     1       0.777   3.198   1.116  0.00  0.00    -0.082 HD
ENDBRANCH  17  24
ENDBRANCH   5  17
TORSDOF 5
