REMARK  Name = ZINC64886584
REMARK  12 active torsions:
REMARK  status: ('A' for Active; 'I' for Inactive)
REMARK    1  A    between atoms: C_1  and  C_2
REMARK    2  A    between atoms: C_2  and  C_3
REMARK    3  A    between atoms: C_4  and  C_25
REMARK    4  A    between atoms: C_5  and  C_24
REMARK    5  A    between atoms: C_6  and  C_9
REMARK    6  A    between atoms: N_11  and  N_12
REMARK    7  A    between atoms: N_15  and  C_16
REMARK    8  A    between atoms: C_16  and  C_17
REMARK    9  A    between atoms: C_17  and  C_18
REMARK   10  A    between atoms: C_18  and  N_19
REMARK   11  A    between atoms: C_25  and  O_27
REMARK   12  A    between atoms: O_27  and  C_28
REMARK                            x       y       z     vdW  Elec       q    Type
REMARK                         _______ _______ _______ _____ _____    ______ ____
ROOT
ATOM      1  C   UNL     1      -4.418  -1.789   1.621  0.00  0.00    +0.277 C 
ATOM      2  O   UNL     1      -5.491  -2.140   1.167  0.00  0.00    -0.267 OA
ATOM      3  N   UNL     1      -4.201  -1.837   2.950  0.00  0.00    -0.228 N 
ATOM      4  H   UNL     1      -3.345  -1.557   3.312  0.00  0.00    +0.173 HD
ENDROOT
BRANCH   1   8
ATOM      5  C   UNL     1      -1.412  -0.526   0.013  0.00  0.00    +0.031 A 
ATOM      6  C   UNL     1      -2.213  -0.713  -1.098  0.00  0.00    +0.083 A 
ATOM      7  C   UNL     1      -3.452  -1.214  -0.636  0.00  0.00    -0.006 A 
ATOM      8  C   UNL     1      -3.361  -1.312   0.720  0.00  0.00    +0.107 A 
ATOM      9  N   UNL     1      -2.105  -0.893   1.102  0.00  0.00    -0.353 N 
ATOM     10  H   UNL     1      -1.775  -0.865   2.014  0.00  0.00    +0.166 HD
ATOM     11  C   UNL     1      -4.646  -1.571  -1.483  0.00  0.00    +0.047 C 
BRANCH   5  13
ATOM     12  C   UNL     1      -0.019   1.526   0.010  0.00  0.00    +0.010 C 
ATOM     13  C   UNL     1       0.002  -0.004   0.002  0.00  0.00    +0.050 C 
ENDBRANCH   5  13
BRANCH   6  14
ATOM     14  C   UNL     1      -1.846  -0.442  -2.498  0.00  0.00    +0.341 C 
ATOM     15  O   UNL     1      -1.332  -1.313  -3.172  0.00  0.00    -0.245 OA
BRANCH  14  16
ATOM     16  O   UNL     1      -2.081   0.773  -3.033  0.00  0.00    -0.464 OA
ATOM     17  C   UNL     1      -1.699   0.966  -4.396  0.00  0.00    +0.280 C 
ENDBRANCH  14  16
ENDBRANCH   6  14
ENDBRANCH   1   8
BRANCH   3  18
ATOM     18  N   UNL     1      -5.210  -2.292   3.809  0.00  0.00    -0.218 N 
ATOM     19  C   UNL     1      -4.992  -2.341   5.138  0.00  0.00    +0.316 C 
ATOM     20  O   UNL     1      -5.868  -2.735   5.883  0.00  0.00    -0.251 OA
ATOM     21  N   UNL     1      -3.804  -1.952   5.641  0.00  0.00    -0.298 N 
ATOM     22  H   UNL     1      -6.065  -2.572   3.447  0.00  0.00    +0.174 HD
ATOM     23  H   UNL     1      -3.105  -1.637   5.046  0.00  0.00    +0.150 HD
BRANCH  21  24
ATOM     24  C   UNL     1      -3.567  -2.005   7.085  0.00  0.00    +0.107 C 
BRANCH  24  25
ATOM     25  C   UNL     1      -2.150  -1.512   7.388  0.00  0.00    +0.040 C 
BRANCH  25  26
ATOM     26  C   UNL     1      -1.903  -1.567   8.897  0.00  0.00    +0.124 C 
BRANCH  26  27
ATOM     27  N   UNL     1      -0.547  -1.096   9.188  0.00  0.00    -0.338 N 
ATOM     28  C   UNL     1       0.585  -1.864   9.243  0.00  0.00    +0.104 A 
ATOM     29  C   UNL     1       1.605  -1.034   9.537  0.00  0.00    +0.101 A 
ATOM     30  N   UNL     1       1.108   0.206   9.658  0.00  0.00    -0.352 N 
ATOM     31  C   UNL     1      -0.179   0.177   9.445  0.00  0.00    +0.173 A 
ATOM     32  H   UNL     1       1.625   1.000   9.866  0.00  0.00    +0.166 HD
ENDBRANCH  26  27
ENDBRANCH  25  26
ENDBRANCH  24  25
ENDBRANCH  21  24
ENDBRANCH   3  18
TORSDOF 9
