REMARK  Name = ZINC39426057
REMARK  7 active torsions:
REMARK  status: ('A' for Active; 'I' for Inactive)
REMARK    1  A    between atoms: C_1  and  C_2
REMARK    2  A    between atoms: C_3  and  N_9
REMARK    3  A    between atoms: N_24  and  C_27
REMARK    4  A    between atoms: C_28  and  C_31
REMARK    5  A    between atoms: C_29  and  N_30
REMARK    6  A    between atoms: C_31  and  O_33
REMARK    7  A    between atoms: O_33  and  C_34
REMARK                            x       y       z     vdW  Elec       q    Type
REMARK                         _______ _______ _______ _____ _____    ______ ____
ROOT
ATOM      1  N   UNL     1       0.019  -0.093  -2.445  0.00  0.00    -0.260 N 
ATOM      2  C   UNL     1       1.186   0.324  -3.029  0.00  0.00    +0.025 C 
ATOM      3  C   UNL     1       1.200   0.751  -4.310  0.00  0.00    +0.037 C 
ATOM      4  C   UNL     1       2.390   1.195  -4.913  0.00  0.00    +0.162 C 
ATOM      5  O   UNL     1       2.371   1.561  -6.071  0.00  0.00    -0.292 OA
ATOM      6  C   UNL     1       3.687   1.228  -4.150  0.00  0.00    +0.080 C 
ATOM      7  C   UNL     1       3.385   1.417  -2.660  0.00  0.00    +0.014 C 
ATOM      8  C   UNL     1       2.452   0.292  -2.208  0.00  0.00    +0.052 C 
ATOM      9  C   UNL     1      -0.062   0.762  -5.132  0.00  0.00    +0.138 C 
ATOM     10  C   UNL     1      -0.047  -0.350  -6.135  0.00  0.00    -0.002 A 
ATOM     11  C   UNL     1      -0.010  -1.719  -5.978  0.00  0.00    +0.007 A 
ATOM     12  C   UNL     1      -0.008  -2.487  -7.138  0.00  0.00    +0.000 A 
ATOM     13  C   UNL     1      -0.040  -1.902  -8.387  0.00  0.00    +0.002 A 
ATOM     14  C   UNL     1      -0.075  -0.526  -8.553  0.00  0.00    +0.024 A 
ATOM     15  C   UNL     1      -0.080   0.256  -7.396  0.00  0.00    +0.041 A 
ATOM     16  N   UNL     1      -0.113   1.633  -7.268  0.00  0.00    -0.273 N 
ATOM     17  C   UNL     1      -0.106   2.021  -5.976  0.00  0.00    +0.239 C 
ATOM     18  O   UNL     1      -0.131   3.162  -5.566  0.00  0.00    -0.274 OA
ATOM     19  C   UNL     1      -0.150   2.561  -8.401  0.00  0.00    +0.138 C 
ATOM     20  C   UNL     1      -1.284   0.685  -4.266  0.00  0.00    +0.096 C 
ATOM     21  C   UNL     1      -1.198   0.259  -2.977  0.00  0.00    +0.104 C 
ENDROOT
BRANCH   1  24
ATOM     22  C   UNL     1       0.035   1.200   0.091  0.00  0.00    +0.047 C 
ATOM     23  C   UNL     1       0.076  -0.301  -0.038  0.00  0.00    -0.010 A 
ATOM     24  C   UNL     1       0.067  -0.891  -1.295  0.00  0.00    +0.044 A 
ATOM     25  C   UNL     1       0.105  -2.275  -1.410  0.00  0.00    +0.024 A 
ATOM     26  C   UNL     1       0.152  -3.060  -0.275  0.00  0.00    +0.003 A 
ATOM     27  C   UNL     1       0.161  -2.470   0.976  0.00  0.00    +0.020 A 
ATOM     28  C   UNL     1       0.128  -1.092   1.094  0.00  0.00    +0.046 A 
ATOM     29 CL   UNL     1       0.147  -0.355   2.666  0.00  0.00    -0.083 Cl
ENDBRANCH   1  24
BRANCH  21  30
ATOM     30  N   UNL     1      -2.330   0.185  -2.207  0.00  0.00    -0.346 N 
ATOM     31  H   UNL     1      -2.261  -0.024  -1.262  0.00  0.00    +0.143 HD
ATOM     32  H   UNL     1      -3.200   0.341  -2.606  0.00  0.00    +0.143 HD
ENDBRANCH  21  30
BRANCH  20  33
ATOM     33  C   UNL     1      -2.530   1.051  -4.794  0.00  0.00    +0.340 C 
ATOM     34  O   UNL     1      -3.134   0.282  -5.521  0.00  0.00    -0.245 OA
BRANCH  33  35
ATOM     35  O   UNL     1      -3.061   2.257  -4.497  0.00  0.00    -0.465 OA
ATOM     36  C   UNL     1      -4.334   2.565  -5.069  0.00  0.00    +0.280 C 
ENDBRANCH  33  35
ENDBRANCH  20  33
TORSDOF 4
