REMARK  Name = ZINC62957024
REMARK  8 active torsions:
REMARK  status: ('A' for Active; 'I' for Inactive)
REMARK    1  A    between atoms: C_1  and  C_2
REMARK    2  A    between atoms: C_2  and  C_3
REMARK    3  A    between atoms: C_3  and  C_20
REMARK    4  A    between atoms: N_6  and  C_9
REMARK    5  A    between atoms: C_9  and  C_10
REMARK    6  A    between atoms: C_15  and  N_17
REMARK    7  A    between atoms: N_17  and  C_18
REMARK    8  A    between atoms: C_18  and  C_19
REMARK                            x       y       z     vdW  Elec       q    Type
REMARK                         _______ _______ _______ _____ _____    ______ ____
ROOT
ATOM      1  C   UNL     1       1.286  -2.615   4.907  0.00  0.00    -0.077 C 
ENDROOT
BRANCH   1   5
ATOM      2  C   UNL     1       0.742  -0.511   1.242  0.00  0.00    -0.036 C 
ATOM      3  C   UNL     1       0.021  -0.026   2.502  0.00  0.00    -0.012 C 
ATOM      4  C   UNL     1       0.719  -0.602   3.736  0.00  0.00    -0.078 C 
ATOM      5  N   UNL     1       0.683  -2.068   3.684  0.00  0.00    +0.380 N 
ATOM      6  C   UNL     1       1.435  -2.543   2.515  0.00  0.00    -0.078 C 
ATOM      7  C   UNL     1       0.764  -2.042   1.235  0.00  0.00    -0.012 C 
ATOM      8  C   UNL     1       2.177   0.021   1.234  0.00  0.00    +0.011 C 
ATOM      9  H   UNL     1      -0.274  -2.378   3.615  0.00  0.00    -0.082 HD
BRANCH   2  11
ATOM     10  C   UNL     1      -0.019   1.526   0.010  0.00  0.00    +0.004 C 
ATOM     11  C   UNL     1       0.002  -0.004   0.002  0.00  0.00    +0.003 C 
ENDBRANCH   2  11
ENDBRANCH   1   5
BRANCH   1  12
ATOM     12  C   UNL     1       1.137  -4.138   4.911  0.00  0.00    -0.042 C 
ATOM     13  C   UNL     1      -0.350  -4.524   5.043  0.00  0.00    -0.000 C 
ATOM     14  C   UNL     1      -0.337  -5.784   5.944  0.00  0.00    -0.001 C 
ATOM     15  C   UNL     1       0.781  -5.462   6.966  0.00  0.00    -0.016 C 
ATOM     16  C   UNL     1       1.858  -4.735   6.133  0.00  0.00    -0.070 C 
BRANCH  16  17
ATOM     17  N   UNL     1       2.886  -5.689   5.695  0.00  0.00    +0.381 N 
ATOM     18  H   UNL     1       2.444  -6.474   5.241  0.00  0.00    -0.086 HD
ATOM     19  H   UNL     1       3.512  -5.234   5.047  0.00  0.00    -0.086 HD
BRANCH  17  20
ATOM     20  C   UNL     1       3.645  -6.160   6.861  0.00  0.00    -0.086 C 
ATOM     21  C   UNL     1       4.715  -7.153   6.405  0.00  0.00    -0.017 C 
ENDBRANCH  17  20
ENDBRANCH  16  17
ENDBRANCH   1  12
TORSDOF 5
