REMARK  Name = ZINC37210330
REMARK  7 active torsions:
REMARK  status: ('A' for Active; 'I' for Inactive)
REMARK    1  A    between atoms: C_1  and  C_2
REMARK    2  A    between atoms: C_7  and  N_12
REMARK    3  A    between atoms: C_9  and  C_11
REMARK    4  A    between atoms: N_12  and  C_13
REMARK    5  A    between atoms: C_13  and  C_15
REMARK    6  A    between atoms: C_13  and  C_16
REMARK    7  A    between atoms: N_19  and  C_22
REMARK                            x       y       z     vdW  Elec       q    Type
REMARK                         _______ _______ _______ _____ _____    ______ ____
ROOT
ATOM      1  N   UNL     1       1.473  -2.527   2.423  0.00  0.00    +0.383 N 
ATOM      2  H   UNL     1       2.393  -2.113   2.459  0.00  0.00    -0.085 HD
ATOM      3  H   UNL     1       0.957  -2.272   3.251  0.00  0.00    -0.085 HD
ENDROOT
BRANCH   1   9
ATOM      4  C   UNL     1      -0.019   1.526   0.010  0.00  0.00    +0.008 C 
ATOM      5  C   UNL     1       0.002  -0.004   0.002  0.00  0.00    -0.013 C 
ATOM      6  C   UNL     1      -1.433  -0.534   0.013  0.00  0.00    +0.003 C 
ATOM      7  C   UNL     1      -1.413  -2.063   0.004  0.00  0.00    -0.001 C 
ATOM      8  C   UNL     1      -0.673  -2.570   1.244  0.00  0.00    -0.015 C 
ATOM      9  C   UNL     1       0.763  -2.041   1.233  0.00  0.00    -0.068 C 
ATOM     10  C   UNL     1       0.742  -0.511   1.242  0.00  0.00    -0.025 C 
ATOM     11  C   UNL     1       0.026  -0.018   2.500  0.00  0.00    +0.006 C 
ENDBRANCH   1   9
BRANCH   1  12
ATOM     12  C   UNL     1       1.598  -3.990   2.355  0.00  0.00    -0.072 C 
ATOM     13  C   UNL     1       2.486  -4.371   1.169  0.00  0.00    -0.013 C 
BRANCH  12  14
ATOM     14  C   UNL     1       2.226  -4.508   3.651  0.00  0.00    -0.029 C 
ATOM     15  C   UNL     1       3.617  -3.894   3.827  0.00  0.00    -0.017 C 
ATOM     16  C   UNL     1       4.271  -4.478   5.082  0.00  0.00    -0.079 C 
ATOM     17  N   UNL     1       4.391  -5.934   4.943  0.00  0.00    +0.378 N 
ATOM     18  C   UNL     1       3.057  -6.537   4.845  0.00  0.00    -0.079 C 
ATOM     19  C   UNL     1       2.357  -6.033   3.581  0.00  0.00    -0.017 C 
ATOM     20  C   UNL     1       5.089  -6.480   6.114  0.00  0.00    -0.096 C 
ATOM     21  H   UNL     1       4.918  -6.149   4.109  0.00  0.00    -0.082 HD
ENDBRANCH  12  14
ENDBRANCH   1  12
TORSDOF 3
