REMARK  Name = ZINC06553593
REMARK  8 active torsions:
REMARK  status: ('A' for Active; 'I' for Inactive)
REMARK    1  A    between atoms: C_1  and  C_2
REMARK    2  A    between atoms: C_5  and  N_8
REMARK    3  A    between atoms: N_8  and  C_9
REMARK    4  A    between atoms: C_14  and  N_15
REMARK    5  A    between atoms: N_15  and  S_16
REMARK    6  A    between atoms: S_16  and  C_19
REMARK    7  A    between atoms: C_22  and  N_25
REMARK    8  A    between atoms: C_26  and  C_28
REMARK                            x       y       z     vdW  Elec       q    Type
REMARK                         _______ _______ _______ _____ _____    ______ ____
ROOT
ATOM      1  N   UNL     1      -1.055   8.144   1.218  0.00  0.00    -0.214 N 
ATOM      2  H   UNL     1      -1.681   8.833   1.491  0.00  0.00    +0.174 HD
ENDROOT
BRANCH   1   8
ATOM      3  C   UNL     1       0.096   8.065   3.346  0.00  0.00    +0.054 A 
ATOM      4  C   UNL     1       1.256   7.845   4.074  0.00  0.00    +0.025 A 
ATOM      5  C   UNL     1       2.423   7.489   3.425  0.00  0.00    +0.002 A 
ATOM      6  C   UNL     1       2.438   7.350   2.049  0.00  0.00    +0.002 A 
ATOM      7  C   UNL     1       1.286   7.562   1.316  0.00  0.00    +0.026 A 
ATOM      8  C   UNL     1       0.112   7.924   1.958  0.00  0.00    +0.069 A 
BRANCH   3   9
ATOM      9  N   UNL     1      -1.087   8.425   4.002  0.00  0.00    -0.313 N 
ATOM     10  H   UNL     1      -1.868   8.681   3.488  0.00  0.00    +0.152 HD
BRANCH   9  15
ATOM     11  C   UNL     1      -1.314   8.385   9.669  0.00  0.00    +0.044 C 
ATOM     12  C   UNL     1      -1.253   8.396   8.163  0.00  0.00    -0.050 A 
ATOM     13  C   UNL     1      -1.859   9.418   7.455  0.00  0.00    +0.005 A 
ATOM     14  C   UNL     1      -1.806   9.431   6.075  0.00  0.00    +0.023 A 
ATOM     15  C   UNL     1      -1.143   8.415   5.398  0.00  0.00    +0.031 A 
ATOM     16  C   UNL     1      -0.540   7.387   6.112  0.00  0.00    +0.023 A 
ATOM     17  C   UNL     1      -0.592   7.383   7.492  0.00  0.00    +0.005 A 
ENDBRANCH   9  15
ENDBRANCH   3   9
ENDBRANCH   1   8
BRANCH   1  18
ATOM     18  S   UNL     1      -1.368   7.227  -0.125  0.00  0.00    +0.072 S 
ATOM     19  O   UNL     1      -0.233   7.345  -0.971  0.00  0.00    -0.150 OA
ATOM     20  O   UNL     1      -2.678   7.571  -0.556  0.00  0.00    -0.150 OA
BRANCH  18  21
ATOM     21  C   UNL     1      -1.435   5.545   0.396  0.00  0.00    +0.109 A 
ATOM     22  C   UNL     1      -2.637   4.995   0.800  0.00  0.00    +0.030 A 
ATOM     23  C   UNL     1      -2.693   3.677   1.210  0.00  0.00    +0.025 A 
ATOM     24  C   UNL     1      -1.539   2.904   1.215  0.00  0.00    +0.033 A 
ATOM     25  C   UNL     1      -0.332   3.461   0.814  0.00  0.00    +0.025 A 
ATOM     26  C   UNL     1      -0.284   4.778   0.400  0.00  0.00    +0.030 A 
BRANCH  24  27
ATOM     27  N   UNL     1      -1.592   1.569   1.629  0.00  0.00    -0.286 N 
ATOM     28  C   UNL     1      -2.674   0.817   1.343  0.00  0.00    +0.214 C 
ATOM     29  O   UNL     1      -3.646   1.325   0.827  0.00  0.00    -0.276 OA
ATOM     30  C   UNL     1      -2.677  -0.654   1.672  0.00  0.00    +0.109 C 
ATOM     31  H   UNL     1      -0.850   1.184   2.121  0.00  0.00    +0.155 HD
ENDBRANCH  24  27
ENDBRANCH  18  21
ENDBRANCH   1  18
TORSDOF 6
