REMARK  Name = ZINC66152769
REMARK  6 active torsions:
REMARK  status: ('A' for Active; 'I' for Inactive)
REMARK    1  A    between atoms: C_3  and  O_19
REMARK    2  A    between atoms: C_6  and  N_7
REMARK    3  A    between atoms: C_8  and  C_10
REMARK    4  A    between atoms: C_10  and  C_11
REMARK    5  A    between atoms: O_19  and  C_20
REMARK    6  A    between atoms: C_20  and  C_21
REMARK                            x       y       z     vdW  Elec       q    Type
REMARK                         _______ _______ _______ _____ _____    ______ ____
ROOT
ATOM      1  N   UNL     1      -1.202  -0.721   0.010  0.00  0.00    -0.286 N 
ATOM      2  C   UNL     1      -2.327  -0.155  -0.469  0.00  0.00    +0.216 C 
ATOM      3  O   UNL     1      -2.281   0.940  -0.990  0.00  0.00    -0.276 OA
ATOM      4  H   UNL     1      -1.224  -1.627   0.357  0.00  0.00    +0.155 HD
ENDROOT
BRANCH   1  10
ATOM      5  C   UNL     1      -0.013   1.374   0.193  0.00  0.00    +0.027 A 
ATOM      6  C   UNL     1       1.173   2.082   0.191  0.00  0.00    +0.047 A 
ATOM      7  C   UNL     1       2.377   1.419   0.003  0.00  0.00    +0.121 A 
ATOM      8  C   UNL     1       2.391   0.045  -0.183  0.00  0.00    +0.047 A 
ATOM      9  C   UNL     1       1.206  -0.665  -0.181  0.00  0.00    +0.027 A 
ATOM     10  C   UNL     1       0.001  -0.002   0.007  0.00  0.00    +0.034 A 
BRANCH   7  11
ATOM     11  O   UNL     1       3.544   2.118  -0.000  0.00  0.00    -0.489 OA
BRANCH  11  12
ATOM     12  C   UNL     1       4.746   1.371  -0.199  0.00  0.00    +0.260 C 
BRANCH  12  13
ATOM     13  C   UNL     1       5.946   2.320  -0.171  0.00  0.00    +0.156 C 
ATOM     14  C   UNL     1       7.237   1.542  -0.505  0.00  0.00    +0.037 C 
ATOM     15  C   UNL     1       8.266   2.177   0.469  0.00  0.00    +0.031 C 
ATOM     16  C   UNL     1       7.366   2.476   1.694  0.00  0.00    +0.160 C 
ATOM     17  O   UNL     1       6.098   2.872   1.142  0.00  0.00    -0.373 OA
ENDBRANCH  12  13
ENDBRANCH  11  12
ENDBRANCH   7  11
ENDBRANCH   1  10
BRANCH   2  18
ATOM     18  C   UNL     1      -3.642  -0.882  -0.358  0.00  0.00    +0.089 C 
BRANCH  18  19
ATOM     19  C   UNL     1      -4.751  -0.026  -0.974  0.00  0.00    +0.025 C 
ATOM     20  C   UNL     1      -6.078  -0.693  -0.747  0.00  0.00    +0.199 C 
ATOM     21  O   UNL     1      -6.300  -1.196   0.334  0.00  0.00    -0.278 OA
ATOM     22  N   UNL     1      -7.026  -0.753  -1.689  0.00  0.00    -0.318 N 
ATOM     23  C   UNL     1      -6.841  -0.200  -3.029  0.00  0.00    +0.085 C 
ATOM     24  C   UNL     1      -5.669   0.783  -3.028  0.00  0.00    -0.063 C 
ATOM     25  N   UNL     1      -4.505   0.127  -2.413  0.00  0.00    +0.388 N 
ATOM     26  H   UNL     1      -7.870  -1.181  -1.475  0.00  0.00    +0.149 HD
ATOM     27  H   UNL     1      -3.684   0.696  -2.556  0.00  0.00    -0.085 HD
ATOM     28  H   UNL     1      -4.366  -0.780  -2.831  0.00  0.00    -0.085 HD
ENDBRANCH  18  19
ENDBRANCH   2  18
TORSDOF 6
