REMARK  Name = ZINC66121902
REMARK  5 active torsions:
REMARK  status: ('A' for Active; 'I' for Inactive)
REMARK    1  A    between atoms: C_5  and  C_7
REMARK    2  A    between atoms: C_10  and  N_12
REMARK    3  A    between atoms: C_19  and  C_22
REMARK    4  A    between atoms: C_22  and  C_23
REMARK    5  A    between atoms: C_23  and  C_24
REMARK                            x       y       z     vdW  Elec       q    Type
REMARK                         _______ _______ _______ _____ _____    ______ ____
ROOT
ATOM      1  N   UNL     1       1.177  -4.162   1.608  0.00  0.00    -0.296 N 
ATOM      2  C   UNL     1       1.003  -4.575   2.879  0.00  0.00    +0.302 C 
ATOM      3  O   UNL     1       0.416  -3.866   3.674  0.00  0.00    -0.253 OA
ATOM      4  N   UNL     1       1.480  -5.774   3.269  0.00  0.00    -0.285 N 
ATOM      5  C   UNL     1       2.295  -6.588   2.357  0.00  0.00    +0.109 C 
ATOM      6  C   UNL     1       3.607  -6.952   3.060  0.00  0.00    +0.019 C 
ATOM      7  C   UNL     1       3.294  -7.628   4.397  0.00  0.00    +0.006 C 
ATOM      8  C   UNL     1       2.519  -6.658   5.292  0.00  0.00    +0.007 C 
ATOM      9  C   UNL     1       1.201  -6.288   4.617  0.00  0.00    +0.112 C 
ATOM     10  H   UNL     1       1.707  -4.693   0.993  0.00  0.00    +0.151 HD
ENDROOT
BRANCH   1  13
ATOM     11  C   UNL     1       1.221  -2.190  -0.026  0.00  0.00    +0.042 C 
ATOM     12  C   UNL     1      -0.114  -2.912  -0.217  0.00  0.00    +0.033 C 
ATOM     13  C   UNL     1       0.566  -2.910   1.155  0.00  0.00    +0.083 C 
BRANCH  11  18
ATOM     14  C   UNL     1      -0.018   1.375   0.005  0.00  0.00    +0.000 A 
ATOM     15  C   UNL     1       1.170   2.082  -0.008  0.00  0.00    +0.001 A 
ATOM     16  C   UNL     1       2.376   1.406  -0.027  0.00  0.00    +0.020 A 
ATOM     17  C   UNL     1       2.393   0.022  -0.033  0.00  0.00    +0.044 A 
ATOM     18  C   UNL     1       1.203  -0.683  -0.019  0.00  0.00    -0.024 A 
ATOM     19  C   UNL     1      -0.002  -0.007  -0.001  0.00  0.00    +0.005 A 
ATOM     20 CL   UNL     1       3.907  -0.827  -0.057  0.00  0.00    -0.083 Cl
ENDBRANCH  11  18
ENDBRANCH   1  13
BRANCH   8  21
ATOM     21  C   UNL     1       2.236  -7.324   6.640  0.00  0.00    +0.014 C 
BRANCH  21  22
ATOM     22  C   UNL     1       1.573  -6.313   7.578  0.00  0.00    +0.096 C 
BRANCH  22  23
ATOM     23  C   UNL     1       1.294  -6.968   8.906  0.00  0.00    +0.210 C 
ATOM     24  O   UNL     1       1.596  -8.129   9.085  0.00  0.00    -0.276 OA
ATOM     25  N   UNL     1       0.709  -6.264   9.896  0.00  0.00    -0.329 N 
ATOM     26  H   UNL     1       0.468  -5.335   9.752  0.00  0.00    +0.145 HD
ATOM     27  H   UNL     1       0.530  -6.685  10.751  0.00  0.00    +0.145 HD
ENDBRANCH  22  23
ENDBRANCH  21  22
ENDBRANCH   8  21
TORSDOF 5
