REMARK  Name = ZINC29479022
REMARK  6 active torsions:
REMARK  status: ('A' for Active; 'I' for Inactive)
REMARK    1  A    between atoms: C_1  and  C_2
REMARK    2  A    between atoms: C_8  and  C_10
REMARK    3  A    between atoms: C_10  and  S_11
REMARK    4  A    between atoms: S_11  and  C_12
REMARK    5  A    between atoms: N_13  and  C_14
REMARK    6  A    between atoms: C_14  and  C_15
REMARK                            x       y       z     vdW  Elec       q    Type
REMARK                         _______ _______ _______ _____ _____    ______ ____
ROOT
ATOM      1  C   UNL     1      -3.689   3.166  -3.438  0.00  0.00    +0.126 C 
ATOM      2  N   UNL     1      -2.503   2.929  -2.950  0.00  0.00    -0.365 N 
ATOM      3  N   UNL     1      -4.604   3.883  -2.703  0.00  0.00    -0.339 N 
ATOM      4  H   UNL     1      -4.336   4.256  -1.704  0.00  0.00    +0.144 HD
ATOM      5  H   UNL     1      -5.604   4.083  -3.115  0.00  0.00    +0.144 HD
ATOM      6  H   UNL     1      -1.737   2.447  -3.576  0.00  0.00    +0.161 HD
ENDROOT
BRANCH   1   7
ATOM      7  S   UNL     1      -4.119   2.569  -5.039  0.00  0.00    -0.084 S 
BRANCH   7   8
ATOM      8  C   UNL     1      -2.575   1.738  -5.490  0.00  0.00    +0.173 C 
BRANCH   8  16
ATOM      9  C   UNL     1       1.850   0.530  -9.785  0.00  0.00    +0.007 C 
ATOM     10  C   UNL     1       0.687   0.064  -8.907  0.00  0.00    -0.011 C 
ATOM     11  C   UNL     1      -0.637   0.365  -9.614  0.00  0.00    +0.022 C 
ATOM     12  C   UNL     1      -1.798  -0.134  -8.748  0.00  0.00    +0.108 C 
ATOM     13  N   UNL     1      -1.679   0.461  -7.410  0.00  0.00    -0.301 N 
ATOM     14  C   UNL     1      -0.412   0.314  -6.681  0.00  0.00    +0.108 C 
ATOM     15  C   UNL     1       0.731   0.803  -7.568  0.00  0.00    +0.022 C 
ATOM     16  C   UNL     1      -2.712   1.134  -6.863  0.00  0.00    +0.226 C 
ATOM     17  O   UNL     1      -3.751   1.252  -7.477  0.00  0.00    -0.275 OA
ENDBRANCH   8  16
ENDBRANCH   7   8
ENDBRANCH   1   7
BRANCH   2  18
ATOM     18  C   UNL     1      -2.190   3.304  -1.569  0.00  0.00    +0.146 C 
BRANCH  18  19
ATOM     19  C   UNL     1      -1.877   2.045  -0.757  0.00  0.00    +0.137 C 
ATOM     20  C   UNL     1      -1.597   2.413   0.722  0.00  0.00    +0.035 C 
ATOM     21  C   UNL     1      -0.715   1.212   1.164  0.00  0.00    +0.031 C 
ATOM     22  C   UNL     1       0.071   0.892  -0.126  0.00  0.00    +0.160 C 
ATOM     23  O   UNL     1      -0.663   1.438  -1.228  0.00  0.00    -0.375 OA
ENDBRANCH  18  19
ENDBRANCH   2  18
TORSDOF 5
