REMARK  Name = ZINC37971988
REMARK  5 active torsions:
REMARK  status: ('A' for Active; 'I' for Inactive)
REMARK    1  A    between atoms: C_1  and  O_2
REMARK    2  A    between atoms: O_2  and  C_3
REMARK    3  A    between atoms: C_3  and  C_5
REMARK    4  A    between atoms: C_5  and  N_15
REMARK    5  A    between atoms: N_15  and  C_16
REMARK                            x       y       z     vdW  Elec       q    Type
REMARK                         _______ _______ _______ _____ _____    ______ ____
ROOT
ATOM      1  C   UNL     1       0.655  -2.101  -1.118  0.00  0.00    +0.057 C 
ATOM      2  C   UNL     1      -0.496  -2.885  -1.743  0.00  0.00    +0.004 C 
ATOM      3  C   UNL     1       0.001  -4.299  -2.067  0.00  0.00    +0.004 C 
ATOM      4  C   UNL     1       0.991  -4.206  -3.227  0.00  0.00    +0.035 C 
ATOM      5  C   UNL     1       2.046  -3.170  -2.940  0.00  0.00    -0.045 A 
ATOM      6  C   UNL     1       1.891  -2.201  -1.974  0.00  0.00    -0.045 A 
ATOM      7  C   UNL     1       2.900  -1.271  -1.764  0.00  0.00    +0.003 A 
ATOM      8  C   UNL     1       4.059  -1.313  -2.513  0.00  0.00    +0.000 A 
ATOM      9  C   UNL     1       4.217  -2.288  -3.479  0.00  0.00    +0.000 A 
ATOM     10  C   UNL     1       3.214  -3.212  -3.691  0.00  0.00    +0.004 A 
ENDROOT
BRANCH   1  11
ATOM     11  N   UNL     1       0.945  -2.646   0.215  0.00  0.00    +0.394 N 
ATOM     12  H   UNL     1       0.176  -2.441   0.836  0.00  0.00    -0.083 HD
ATOM     13  H   UNL     1       1.067  -3.645   0.150  0.00  0.00    -0.083 HD
BRANCH  11  14
ATOM     14  C   UNL     1       2.174  -2.034   0.738  0.00  0.00    -0.070 C 
ATOM     15  C   UNL     1       1.911  -0.564   1.067  0.00  0.00    -0.016 C 
ATOM     16  C   UNL     1       3.192   0.073   1.612  0.00  0.00    -0.002 C 
ATOM     17  C   UNL     1       3.628  -0.663   2.880  0.00  0.00    -0.000 C 
ATOM     18  C   UNL     1       3.890  -2.134   2.551  0.00  0.00    -0.002 C 
ATOM     19  C   UNL     1       2.610  -2.771   2.006  0.00  0.00    -0.016 C 
ENDBRANCH  11  14
ENDBRANCH   1  11
BRANCH   1  20
ATOM     20  C   UNL     1       0.258  -0.653  -0.987  0.00  0.00    +0.300 C 
ATOM     21  O   UNL     1       0.674   0.161  -1.777  0.00  0.00    -0.252 OA
BRANCH  20  23
ATOM     22  C   UNL     1      -0.894   1.119   0.070  0.00  0.00    +0.280 C 
ATOM     23  O   UNL     1      -0.558  -0.268   0.006  0.00  0.00    -0.469 OA
ENDBRANCH  20  23
ENDBRANCH   1  20
TORSDOF 4
