REMARK  Name = ZINC62507366
REMARK  10 active torsions:
REMARK  status: ('A' for Active; 'I' for Inactive)
REMARK    1  A    between atoms: C_1  and  C_2
REMARK    2  A    between atoms: C_2  and  C_3
REMARK    3  A    between atoms: C_2  and  N_8
REMARK    4  A    between atoms: C_3  and  C_4
REMARK    5  A    between atoms: C_4  and  N_5
REMARK    6  A    between atoms: N_5  and  C_6
REMARK    7  A    between atoms: N_5  and  C_7
REMARK    8  A    between atoms: N_11  and  N_12
REMARK    9  A    between atoms: C_13  and  C_15
REMARK   10  A    between atoms: N_19  and  C_20
REMARK                            x       y       z     vdW  Elec       q    Type
REMARK                         _______ _______ _______ _____ _____    ______ ____
ROOT
ATOM      1  N   UNL     1       0.763   0.426   1.573  0.00  0.00    -0.296 N 
ATOM      2  C   UNL     1       2.110   0.388   1.589  0.00  0.00    +0.316 C 
ATOM      3  O   UNL     1       2.744   0.896   0.684  0.00  0.00    -0.251 OA
ATOM      4  N   UNL     1       2.755  -0.215   2.607  0.00  0.00    -0.218 N 
ATOM      5  H   UNL     1       0.258   0.020   2.295  0.00  0.00    +0.151 HD
ATOM      6  H   UNL     1       3.724  -0.243   2.619  0.00  0.00    +0.174 HD
ENDROOT
BRANCH   4   7
ATOM      7  N   UNL     1       2.025  -0.801   3.650  0.00  0.00    -0.228 N 
ATOM      8  C   UNL     1       2.670  -1.404   4.668  0.00  0.00    +0.277 C 
ATOM      9  O   UNL     1       3.880  -1.530   4.633  0.00  0.00    -0.267 OA
ATOM     10  H   UNL     1       1.056  -0.774   3.638  0.00  0.00    +0.173 HD
BRANCH   8  11
ATOM     11  C   UNL     1       1.914  -1.909   5.819  0.00  0.00    +0.107 A 
ATOM     12  C   UNL     1       0.541  -1.910   5.955  0.00  0.00    +0.047 A 
ATOM     13  C   UNL     1       0.252  -2.480   7.199  0.00  0.00    +0.036 A 
ATOM     14  C   UNL     1       1.427  -2.810   7.788  0.00  0.00    +0.101 A 
ATOM     15  N   UNL     1       2.444  -2.472   6.957  0.00  0.00    -0.345 N 
ATOM     16  C   UNL     1       3.870  -2.672   7.227  0.00  0.00    +0.149 C 
ATOM     17 BR   UNL     1      -1.472  -2.743   7.930  0.00  0.00    -0.049 Br
ENDBRANCH   8  11
ENDBRANCH   4   7
BRANCH   1  19
ATOM     18  C   UNL     1      -0.044   2.582   0.746  0.00  0.00    +0.028 C 
ATOM     19  C   UNL     1       0.062   1.081   0.466  0.00  0.00    +0.070 C 
BRANCH  19  20
ATOM     20  C   UNL     1      -1.341   0.488   0.328  0.00  0.00    +0.003 C 
BRANCH  20  21
ATOM     21  C   UNL     1      -1.235  -0.984  -0.075  0.00  0.00    -0.078 C 
BRANCH  21  22
ATOM     22  N   UNL     1      -2.583  -1.554  -0.207  0.00  0.00    +0.376 N 
ATOM     23  C   UNL     1      -2.485  -2.932  -0.709  0.00  0.00    -0.097 C 
ATOM     24  C   UNL     1      -3.244  -1.558   1.105  0.00  0.00    -0.097 C 
ATOM     25  H   UNL     1      -3.121  -0.998  -0.854  0.00  0.00    -0.083 HD
ENDBRANCH  21  22
ENDBRANCH  20  21
ENDBRANCH  19  20
ENDBRANCH   1  19
TORSDOF 6
