REMARK  Name = ZINC65527715
REMARK  5 active torsions:
REMARK  status: ('A' for Active; 'I' for Inactive)
REMARK    1  A    between atoms: C_1  and  N_2
REMARK    2  A    between atoms: C_3  and  C_24
REMARK    3  A    between atoms: C_7  and  C_9
REMARK    4  A    between atoms: C_9  and  N_10
REMARK    5  A    between atoms: C_24  and  C_25
REMARK                            x       y       z     vdW  Elec       q    Type
REMARK                         _______ _______ _______ _____ _____    ______ ____
ROOT
ATOM      1  C   UNL     1      -0.169   1.532   0.069  0.00  0.00    +0.108 C 
ATOM      2  N   UNL     1      -0.102   0.065   0.020  0.00  0.00    -0.272 NA
ATOM      3  C   UNL     1       0.668  -0.394  -1.167  0.00  0.00    +0.140 C 
ATOM      4  N   UNL     1       1.123  -1.749  -0.761  0.00  0.00    -0.238 NA
ATOM      5  N   UNL     1       1.438  -1.619   0.665  0.00  0.00    -0.237 NA
ATOM      6  C   UNL     1       0.660  -0.470   1.172  0.00  0.00    +0.154 C 
ATOM      7  H   UNL     1       0.398  -2.434  -0.910  0.00  0.00    +0.142 HD
ATOM      8  H   UNL     1       2.427  -1.477   0.805  0.00  0.00    +0.142 HD
ENDROOT
BRANCH   6   9
ATOM      9  C   UNL     1      -0.301  -0.931   2.268  0.00  0.00    +0.120 C 
BRANCH   9  10
ATOM     10  N   UNL     1      -1.270  -1.880   1.703  0.00  0.00    -0.297 NA
ATOM     11  C   UNL     1      -2.511  -1.889   2.482  0.00  0.00    +0.089 C 
ATOM     12  C   UNL     1      -3.602  -2.681   1.737  0.00  0.00    +0.049 C 
ATOM     13  C   UNL     1      -2.976  -3.998   1.351  0.00  0.00    -0.036 C 
ATOM     14  C   UNL     1      -3.377  -5.253   1.495  0.00  0.00    -0.001 A 
ATOM     15  C   UNL     1      -4.647  -5.831   1.963  0.00  0.00    +0.010 A 
ATOM     16  C   UNL     1      -4.708  -7.188   2.010  0.00  0.00    +0.001 A 
ATOM     17  C   UNL     1      -3.644  -8.019   1.642  0.00  0.00    +0.002 A 
ATOM     18  C   UNL     1      -2.445  -7.574   1.191  0.00  0.00    +0.026 A 
ATOM     19  C   UNL     1      -2.263  -6.165   1.088  0.00  0.00    +0.043 A 
ATOM     20  N   UNL     1      -1.243  -5.476   0.665  0.00  0.00    -0.376 N 
ATOM     21  C   UNL     1      -1.607  -4.061   0.680  0.00  0.00    +0.120 C 
ATOM     22  C   UNL     1      -0.671  -3.214   1.545  0.00  0.00    +0.113 C 
ATOM     23  H   UNL     1      -0.388  -5.840   0.388  0.00  0.00    +0.160 HD
ENDBRANCH   9  10
ENDBRANCH   6   9
BRANCH   3  24
ATOM     24  C   UNL     1      -0.232  -0.468  -2.402  0.00  0.00    +0.039 C 
BRANCH  24  25
ATOM     25  C   UNL     1       0.589  -0.942  -3.603  0.00  0.00    -0.012 C 
ATOM     26  C   UNL     1       1.056  -2.381  -3.368  0.00  0.00    -0.016 C 
ATOM     27  C   UNL     1       1.808  -2.876  -4.606  0.00  0.00    -0.082 C 
ATOM     28  N   UNL     1       0.918  -2.833  -5.772  0.00  0.00    +0.379 N 
ATOM     29  C   UNL     1       0.522  -1.447  -6.047  0.00  0.00    -0.082 C 
ATOM     30  C   UNL     1      -0.278  -0.897  -4.865  0.00  0.00    -0.016 C 
ATOM     31  H   UNL     1       1.399  -3.210  -6.575  0.00  0.00    -0.086 HD
ATOM     32  H   UNL     1       0.095  -3.386  -5.586  0.00  0.00    -0.086 HD
ENDBRANCH  24  25
ENDBRANCH   3  24
TORSDOF 4
