REMARK  Name = ZINC42879957
REMARK  4 active torsions:
REMARK  status: ('A' for Active; 'I' for Inactive)
REMARK    1  A    between atoms: C_3  and  N_9
REMARK    2  A    between atoms: N_9  and  C_10
REMARK    3  A    between atoms: C_10  and  C_11
REMARK    4  A    between atoms: C_16  and  O_17
REMARK                            x       y       z     vdW  Elec       q    Type
REMARK                         _______ _______ _______ _____ _____    ______ ____
ROOT
ATOM      1  C   UNL     1       3.564   3.593  -0.014  0.00  0.00    +0.140 C 
ENDROOT
BRANCH   1   2
ATOM      2  C   UNL     1       4.977   4.114  -0.025  0.00  0.00    +0.015 A 
ATOM      3  C   UNL     1       5.505   4.655  -1.183  0.00  0.00    +0.058 A 
ATOM      4  C   UNL     1       6.803   5.136  -1.196  0.00  0.00    +0.167 A 
ATOM      5  C   UNL     1       7.579   5.073  -0.041  0.00  0.00    +0.170 A 
ATOM      6  C   UNL     1       7.049   4.532   1.118  0.00  0.00    +0.095 A 
ATOM      7  C   UNL     1       5.746   4.056   1.128  0.00  0.00    +0.125 A 
ATOM      8  O   UNL     1       8.807   5.604  -0.311  0.00  0.00    -0.452 OA
ATOM      9  C   UNL     1       8.914   5.618  -1.747  0.00  0.00    +0.466 C 
ATOM     10  O   UNL     1       7.547   5.706  -2.190  0.00  0.00    -0.453 OA
BRANCH   7  11
ATOM     11  O   UNL     1       5.223   3.529   2.267  0.00  0.00    -0.506 OA
ATOM     12  H   UNL     1       5.365   2.577   2.361  0.00  0.00    +0.292 HD
ENDBRANCH   7  11
ENDBRANCH   1   2
BRANCH   1  13
ATOM     13  N   UNL     1       3.583   2.128  -0.021  0.00  0.00    -0.337 N 
ATOM     14  H   UNL     1       4.430   1.654  -0.032  0.00  0.00    +0.146 HD
BRANCH  13  17
ATOM     15  C   UNL     1      -0.017   1.379   0.010  0.00  0.00    +0.022 A 
ATOM     16  C   UNL     1       1.169   2.088   0.002  0.00  0.00    +0.027 A 
ATOM     17  C   UNL     1       2.381   1.412  -0.013  0.00  0.00    +0.063 A 
ATOM     18  C   UNL     1       2.398   0.021  -0.021  0.00  0.00    +0.145 A 
ATOM     19  C   UNL     1       1.208  -0.683  -0.013  0.00  0.00    +0.060 A 
ATOM     20  C   UNL     1       0.002  -0.004   0.002  0.00  0.00    +0.044 A 
ATOM     21 CL   UNL     1      -1.490  -0.891   0.011  0.00  0.00    -0.083 Cl
ATOM     22  F   UNL     1       3.576  -0.641  -0.036  0.00  0.00    -0.204 F 
ENDBRANCH  13  17
ENDBRANCH   1  13
TORSDOF 4
