REMARK  Name = ZINC36542259
REMARK  7 active torsions:
REMARK  status: ('A' for Active; 'I' for Inactive)
REMARK    1  A    between atoms: C_1  and  C_2
REMARK    2  A    between atoms: C_2  and  C_3
REMARK    3  A    between atoms: C_3  and  C_5
REMARK    4  A    between atoms: C_3  and  C_6
REMARK    5  A    between atoms: C_9  and  N_12
REMARK    6  A    between atoms: C_16  and  C_17
REMARK    7  A    between atoms: C_20  and  O_24
REMARK                            x       y       z     vdW  Elec       q    Type
REMARK                         _______ _______ _______ _____ _____    ______ ____
ROOT
ATOM      1  N   UNL     1       1.194  -6.221  -1.837  0.00  0.00    -0.188 N 
ATOM      2  C   UNL     1       2.420  -6.779  -1.752  0.00  0.00    +0.264 C 
ATOM      3  O   UNL     1       3.423  -6.135  -2.000  0.00  0.00    -0.269 OA
ATOM      4  C   UNL     1       2.505  -8.195  -1.347  0.00  0.00    +0.102 C 
ATOM      5  C   UNL     1       3.721  -8.843  -1.235  0.00  0.00    +0.026 C 
ATOM      6  C   UNL     1       1.229  -8.889  -1.066  0.00  0.00    +0.276 C 
ATOM      7  N   UNL     1       0.086  -8.197  -1.195  0.00  0.00    -0.123 NA
ATOM      8  C   UNL     1       0.073  -6.937  -1.554  0.00  0.00    +0.340 C 
ATOM      9  O   UNL     1      -1.119  -6.317  -1.653  0.00  0.00    -0.250 OA
ATOM     10  O   UNL     1       1.216 -10.059  -0.727  0.00  0.00    -0.268 OA
ENDROOT
BRANCH   5  11
ATOM     11  C   UNL     1       4.966  -8.079  -1.300  0.00  0.00    -0.023 A 
ATOM     12  C   UNL     1       5.102  -6.889  -0.568  0.00  0.00    +0.011 A 
ATOM     13  C   UNL     1       6.267  -6.180  -0.632  0.00  0.00    +0.047 A 
ATOM     14  C   UNL     1       7.319  -6.634  -1.423  0.00  0.00    +0.131 A 
ATOM     15  C   UNL     1       7.191  -7.814  -2.152  0.00  0.00    +0.060 A 
ATOM     16  C   UNL     1       6.032  -8.535  -2.091  0.00  0.00    +0.027 A 
ATOM     17 BR   UNL     1       8.625  -8.421  -3.223  0.00  0.00    -0.047 Br
BRANCH  14  18
ATOM     18  O   UNL     1       8.473  -5.925  -1.484  0.00  0.00    -0.506 OA
ATOM     19  H   UNL     1       9.126  -6.177  -0.816  0.00  0.00    +0.292 HD
ENDBRANCH  14  18
ENDBRANCH   5  11
BRANCH   1  23
ATOM     20  C   UNL     1       0.839  -2.226  -2.971  0.00  0.00    -0.044 A 
ATOM     21  C   UNL     1       0.538  -2.605  -1.676  0.00  0.00    +0.006 A 
ATOM     22  C   UNL     1       0.655  -3.928  -1.297  0.00  0.00    +0.024 A 
ATOM     23  C   UNL     1       1.074  -4.878  -2.218  0.00  0.00    +0.046 A 
ATOM     24  C   UNL     1       1.375  -4.495  -3.518  0.00  0.00    +0.024 A 
ATOM     25  C   UNL     1       1.252  -3.171  -3.893  0.00  0.00    +0.006 A 
BRANCH  20  26
ATOM     26  C   UNL     1       0.711  -0.781  -3.381  0.00  0.00    +0.016 C 
ATOM     27  C   UNL     1      -0.734  -0.321  -3.182  0.00  0.00    +0.012 C 
BRANCH  26  29
ATOM     28  C   UNL     1       1.607   1.523  -3.022  0.00  0.00    +0.004 C 
ATOM     29  C   UNL     1       1.643   0.077  -2.524  0.00  0.00    +0.004 C 
ENDBRANCH  26  29
ENDBRANCH  20  26
ENDBRANCH   1  23
TORSDOF 5
