REMARK  Name = ZINC38819022
REMARK  6 active torsions:
REMARK  status: ('A' for Active; 'I' for Inactive)
REMARK    1  A    between atoms: C_1  and  C_2
REMARK    2  A    between atoms: C_7  and  C_12
REMARK    3  A    between atoms: C_13  and  N_31
REMARK    4  A    between atoms: N_14  and  C_18
REMARK    5  A    between atoms: C_21  and  N_24
REMARK    6  A    between atoms: N_24  and  C_25
REMARK                            x       y       z     vdW  Elec       q    Type
REMARK                         _______ _______ _______ _____ _____    ______ ____
ROOT
ATOM      1  C   UNL     1       1.327  -5.087   1.923  0.00  0.00    +0.074 C 
ATOM      2  C   UNL     1       1.342  -6.306   2.561  0.00  0.00    +0.099 C 
ATOM      3  N   UNL     1       2.615  -6.718   2.831  0.00  0.00    -0.281 N 
ATOM      4  C   UNL     1       3.531  -5.682   2.329  0.00  0.00    +0.191 C 
ATOM      5  C   UNL     1       2.624  -4.627   1.732  0.00  0.00    +0.183 C 
ATOM      6  O   UNL     1       2.962  -3.587   1.197  0.00  0.00    -0.290 OA
ENDROOT
BRANCH   1  13
ATOM      7  C   UNL     1      -0.050   1.491   0.006  0.00  0.00    +0.044 C 
ATOM      8  C   UNL     1      -0.005  -0.015  -0.015  0.00  0.00    -0.048 A 
ATOM      9  C   UNL     1       0.045  -0.672  -1.258  0.00  0.00    +0.005 A 
ATOM     10  C   UNL     1       0.086  -2.015  -1.369  0.00  0.00    +0.027 A 
ATOM     11  C   UNL     1       0.080  -2.843  -0.155  0.00  0.00    +0.060 A 
ATOM     12  N   UNL     1       0.111  -4.130   0.038  0.00  0.00    -0.359 N 
ATOM     13  C   UNL     1       0.082  -4.358   1.489  0.00  0.00    +0.212 C 
ATOM     14  N   UNL     1       0.028  -3.032   2.116  0.00  0.00    -0.359 N 
ATOM     15  C   UNL     1       0.027  -2.148   1.160  0.00  0.00    +0.061 A 
ATOM     16  C   UNL     1      -0.010  -0.679   1.158  0.00  0.00    +0.030 A 
ATOM     17  H   UNL     1       0.148  -4.813  -0.649  0.00  0.00    +0.162 HD
ATOM     18  H   UNL     1      -0.001  -2.848   3.068  0.00  0.00    +0.162 HD
ENDBRANCH   1  13
BRANCH   3  19
ATOM     19  C   UNL     1       2.982  -7.909   3.469  0.00  0.00    +0.035 A 
ATOM     20  C   UNL     1       2.737  -9.130   2.855  0.00  0.00    +0.025 A 
ATOM     21  C   UNL     1       3.099 -10.305   3.484  0.00  0.00    +0.025 A 
ATOM     22  C   UNL     1       3.708 -10.265   4.732  0.00  0.00    +0.031 A 
ATOM     23  C   UNL     1       3.954  -9.043   5.346  0.00  0.00    +0.025 A 
ATOM     24  C   UNL     1       3.597  -7.869   4.714  0.00  0.00    +0.025 A 
BRANCH  22  25
ATOM     25  N   UNL     1       4.075 -11.455   5.370  0.00  0.00    -0.314 N 
ATOM     26  H   UNL     1       4.350 -12.222   4.844  0.00  0.00    +0.152 HD
BRANCH  25  27
ATOM     27  C   UNL     1       4.045 -11.538   6.764  0.00  0.00    +0.031 A 
ATOM     28  C   UNL     1       3.199 -10.711   7.492  0.00  0.00    +0.023 A 
ATOM     29  C   UNL     1       3.172 -10.796   8.871  0.00  0.00    +0.002 A 
ATOM     30  C   UNL     1       3.986 -11.702   9.525  0.00  0.00    +0.000 A 
ATOM     31  C   UNL     1       4.830 -12.527   8.803  0.00  0.00    +0.002 A 
ATOM     32  C   UNL     1       4.857 -12.451   7.424  0.00  0.00    +0.023 A 
ENDBRANCH  25  27
ENDBRANCH  22  25
ENDBRANCH   3  19
BRANCH   2  33
ATOM     33  N   UNL     1       0.218  -7.018   2.884  0.00  0.00    -0.346 N 
ATOM     34  H   UNL     1      -0.659  -6.636   2.730  0.00  0.00    +0.143 HD
ATOM     35  H   UNL     1       0.300  -7.906   3.268  0.00  0.00    +0.143 HD
ENDBRANCH   2  33
TORSDOF 5
