REMARK  Name = ZINC44319337
REMARK  11 active torsions:
REMARK  status: ('A' for Active; 'I' for Inactive)
REMARK    1  A    between atoms: C_1  and  C_2
REMARK    2  A    between atoms: C_2  and  C_3
REMARK    3  A    between atoms: C_2  and  C_4
REMARK    4  A    between atoms: C_2  and  O_5
REMARK    5  A    between atoms: O_5  and  C_6
REMARK    6  A    between atoms: N_8  and  CA_9
REMARK    7  A    between atoms: CA_9  and  C_11
REMARK    8  A    between atoms: CA_9  and  C_24
REMARK    9  A    between atoms: C_11  and  C_12
REMARK   10  A    between atoms: C_16  and  N_19
REMARK   11  A    between atoms: C_17  and  O_18
REMARK                            x       y       z     vdW  Elec       q    Type
REMARK                         _______ _______ _______ _____ _____    ______ ____
ROOT
ATOM      1  C   UNL     1       4.759  -1.086  -3.489  0.00  0.00    +0.073 C 
ENDROOT
BRANCH   1   2
ATOM      2  C   UNL     1       4.824  -2.415  -2.783  0.00  0.00    -0.000 A 
ATOM      3  C   UNL     1       5.942  -2.751  -2.044  0.00  0.00    +0.023 A 
ATOM      4  C   UNL     1       6.003  -3.971  -1.395  0.00  0.00    +0.035 A 
ATOM      5  C   UNL     1       4.944  -4.858  -1.484  0.00  0.00    +0.066 A 
ATOM      6  C   UNL     1       3.824  -4.525  -2.222  0.00  0.00    +0.182 A 
ATOM      7  C   UNL     1       3.759  -3.300  -2.869  0.00  0.00    +0.151 A 
ATOM      8 BR   UNL     1       5.029  -6.525  -0.596  0.00  0.00    -0.047 Br
ATOM      9 BR   UNL     1       7.535  -4.428  -0.386  0.00  0.00    -0.049 Br
BRANCH   6  10
ATOM     10  N   UNL     1       2.691  -5.474  -2.318  0.00  0.00    +0.061 N 
ATOM     11  O   UNL     1       1.796  -5.431  -1.507  0.00  0.00    -0.126 OA
ATOM     12  O   UNL     1       2.662  -6.292  -3.208  0.00  0.00    -0.126 OA
ENDBRANCH   6  10
BRANCH   7  13
ATOM     13  O   UNL     1       2.656  -2.968  -3.591  0.00  0.00    -0.504 OA
ATOM     14  H   UNL     1       2.698  -3.237  -4.519  0.00  0.00    +0.292 HD
ENDBRANCH   7  13
ENDBRANCH   1   2
BRANCH   1  15
ATOM     15  CA  UNL     1       4.035  -0.071  -2.601  0.00  0.00    +0.193 C 
BRANCH  15  18
ATOM     16  C   UNL     1       1.952  -0.085  -1.337  0.00  0.00    +0.401 C 
ATOM     17  O   UNL     1       2.488   0.619  -0.503  0.00  0.00    -0.226 OA
ATOM     18  N   UNL     1       2.641  -0.485  -2.424  0.00  0.00    -0.267 N 
ATOM     19  H   UNL     1       2.213  -1.047  -3.089  0.00  0.00    +0.153 HD
BRANCH  16  20
ATOM     20  O   UNL     1       0.671  -0.465  -1.174  0.00  0.00    -0.445 OA
BRANCH  20  22
ATOM     21  C   UNL     1      -0.019   1.526   0.010  0.00  0.00    +0.055 C 
ATOM     22  C   UNL     1       0.002  -0.004   0.002  0.00  0.00    +0.107 C 
ATOM     23  C   UNL     1       0.742  -0.511   1.242  0.00  0.00    +0.055 C 
ATOM     24  C   UNL     1      -1.433  -0.534   0.013  0.00  0.00    +0.055 C 
ENDBRANCH  20  22
ENDBRANCH  16  20
ENDBRANCH  15  18
BRANCH  15  25
ATOM     25  C   UNL     1       4.077   1.287  -3.253  0.00  0.00    +0.376 C 
ATOM     26  O   UNL     1       3.039   1.857  -3.542  0.00  0.00    -0.244 OA
ATOM     27  OXT UNL     1       5.149   1.816  -3.491  0.00  0.00    -0.244 OA
ENDBRANCH  15  25
ENDBRANCH   1  15
TORSDOF 8
