REMARK  Name = ZINC00293436
REMARK  4 active torsions:
REMARK  status: ('A' for Active; 'I' for Inactive)
REMARK    1  A    between atoms: C_1  and  C_2
REMARK    2  A    between atoms: C_7  and  C_15
REMARK    3  A    between atoms: C_9  and  C_13
REMARK    4  A    between atoms: C_10  and  N_12
REMARK                            x       y       z     vdW  Elec       q    Type
REMARK                         _______ _______ _______ _____ _____    ______ ____
ROOT
ATOM      1  C   UNL     1       4.958  -2.068   4.832  0.00  0.00    +0.008 C 
ATOM      2  C   UNL     1       4.120  -1.773   3.587  0.00  0.00    +0.001 C 
ATOM      3  C   UNL     1       4.835  -2.299   2.348  0.00  0.00    +0.078 C 
ATOM      4  C   UNL     1       3.990  -2.038   1.123  0.00  0.00    +0.115 C 
ATOM      5  C   UNL     1       2.649  -2.034   1.202  0.00  0.00    +0.049 C 
ATOM      6  C   UNL     1       1.803  -1.795  -0.025  0.00  0.00    +0.137 C 
ATOM      7  C   UNL     1       2.622  -2.019  -1.266  0.00  0.00    +0.101 C 
ATOM      8  C   UNL     1       3.976  -2.017  -1.203  0.00  0.00    +0.198 C 
ATOM      9  O   UNL     1       4.622  -1.813  -0.044  0.00  0.00    -0.445 OA
ATOM     10  C   UNL     1       1.992  -2.252   2.428  0.00  0.00    +0.164 C 
ATOM     11  O   UNL     1       0.777  -2.256   2.461  0.00  0.00    -0.292 OA
ATOM     12  C   UNL     1       2.765  -2.480   3.698  0.00  0.00    +0.083 C 
ENDROOT
BRANCH   6  13
ATOM     13  C   UNL     1       1.295  -0.376  -0.012  0.00  0.00    +0.118 A 
ATOM     14  C   UNL     1       0.002  -0.004   0.002  0.00  0.00    +0.045 A 
ATOM     15  C   UNL     1      -0.017   1.410   0.010  0.00  0.00    +0.041 A 
ATOM     16  C   UNL     1       1.265   1.817  -0.000  0.00  0.00    +0.195 A 
ATOM     17  O   UNL     1       2.055   0.731  -0.014  0.00  0.00    -0.467 OA
ENDBRANCH   6  13
BRANCH   8  18
ATOM     18  N   UNL     1       4.702  -2.228  -2.349  0.00  0.00    -0.328 N 
ATOM     19  H   UNL     1       4.245  -2.377  -3.192  0.00  0.00    +0.145 HD
ATOM     20  H   UNL     1       5.671  -2.229  -2.316  0.00  0.00    +0.145 HD
ENDBRANCH   8  18
BRANCH   7  21
ATOM     21  C   UNL     1       1.968  -2.236  -2.521  0.00  0.00    +0.101 C 
ATOM     22  N   UNL     1       1.449  -2.409  -3.517  0.00  0.00    -0.191 NA
ENDBRANCH   7  21
TORSDOF 3
