REMARK  Name = ZINC57340197
REMARK  7 active torsions:
REMARK  status: ('A' for Active; 'I' for Inactive)
REMARK    1  A    between atoms: C_1  and  O_2
REMARK    2  A    between atoms: O_2  and  C_3
REMARK    3  A    between atoms: C_8  and  C_9
REMARK    4  A    between atoms: N_11  and  C_12
REMARK    5  A    between atoms: C_14  and  N_20
REMARK    6  A    between atoms: C_17  and  O_18
REMARK    7  A    between atoms: O_18  and  C_19
REMARK                            x       y       z     vdW  Elec       q    Type
REMARK                         _______ _______ _______ _____ _____    ______ ____
ROOT
ATOM      1  C   UNL     1       0.060  -2.829  -0.063  0.00  0.00    +0.252 C 
ATOM      2  O   UNL     1      -0.479  -2.296   0.888  0.00  0.00    -0.270 OA
ATOM      3  N   UNL     1       0.123  -4.173  -0.135  0.00  0.00    -0.278 N 
ATOM      4  H   UNL     1       0.494  -4.600  -0.924  0.00  0.00    +0.155 HD
ENDROOT
BRANCH   1  10
ATOM      5  C   UNL     1       0.582  -0.606  -1.065  0.00  0.00    +0.132 A 
ATOM      6  C   UNL     1       1.140   0.160  -2.078  0.00  0.00    +0.047 A 
ATOM      7  C   UNL     1       1.750  -0.453  -3.154  0.00  0.00    +0.019 A 
ATOM      8  C   UNL     1       1.810  -1.835  -3.231  0.00  0.00    +0.019 A 
ATOM      9  C   UNL     1       1.260  -2.612  -2.234  0.00  0.00    +0.032 A 
ATOM     10  C   UNL     1       0.645  -2.004  -1.137  0.00  0.00    +0.080 A 
ATOM     11 BR   UNL     1       2.649  -2.660  -4.712  0.00  0.00    -0.050 Br
BRANCH   5  13
ATOM     12  C   UNL     1      -0.044   1.424  -0.003  0.00  0.00    +0.277 C 
ATOM     13  O   UNL     1      -0.018  -0.004  -0.007  0.00  0.00    -0.494 OA
ENDBRANCH   5  13
ENDBRANCH   1  10
BRANCH   3  14
ATOM     14  C   UNL     1      -0.347  -4.955   0.927  0.00  0.00    +0.078 A 
ATOM     15  C   UNL     1      -1.446  -4.537   1.663  0.00  0.00    +0.049 A 
ATOM     16  C   UNL     1      -1.910  -5.314   2.716  0.00  0.00    +0.027 A 
ATOM     17  C   UNL     1      -1.275  -6.508   3.030  0.00  0.00    +0.026 A 
ATOM     18  C   UNL     1      -0.180  -6.925   2.297  0.00  0.00    +0.049 A 
ATOM     19  C   UNL     1       0.284  -6.156   1.243  0.00  0.00    +0.141 A 
BRANCH  16  20
ATOM     20  N   UNL     1      -3.018  -4.894   3.460  0.00  0.00    -0.358 N 
ATOM     21  H   UNL     1      -3.462  -4.059   3.240  0.00  0.00    +0.142 HD
ATOM     22  H   UNL     1      -3.343  -5.437   4.195  0.00  0.00    +0.142 HD
ENDBRANCH  16  20
BRANCH  19  23
ATOM     23  O   UNL     1       1.358  -6.571   0.518  0.00  0.00    -0.493 OA
ATOM     24  C   UNL     1       1.956  -7.812   0.898  0.00  0.00    +0.277 C 
ENDBRANCH  19  23
ENDBRANCH   3  14
TORSDOF 5
