REMARK  Name = ZINC20342742
REMARK  4 active torsions:
REMARK  status: ('A' for Active; 'I' for Inactive)
REMARK    1  A    between atoms: C_6  and  C_7
REMARK    2  A    between atoms: C_8  and  C_17
REMARK    3  A    between atoms: C_17  and  C_18
REMARK    4  A    between atoms: C_18  and  N_19
REMARK                            x       y       z     vdW  Elec       q    Type
REMARK                         _______ _______ _______ _____ _____    ______ ____
ROOT
ATOM      1  C   UNL     1      -3.680  -0.785   0.018  0.00  0.00    +0.093 A 
ATOM      2  C   UNL     1      -4.792  -0.472   0.741  0.00  0.00    +0.049 A 
ATOM      3  N   UNL     1      -5.737  -1.416   0.452  0.00  0.00    -0.302 N 
ATOM      4  C   UNL     1      -7.021  -1.594   0.882  0.00  0.00    +0.113 A 
ATOM      5  C   UNL     1      -7.757  -2.636   0.439  0.00  0.00    +0.058 A 
ATOM      6  C   UNL     1      -7.209  -3.553  -0.474  0.00  0.00    +0.025 A 
ATOM      7  C   UNL     1      -5.931  -3.387  -0.910  0.00  0.00    +0.048 A 
ATOM      8  C   UNL     1      -5.176  -2.294  -0.438  0.00  0.00    +0.139 A 
ATOM      9  N   UNL     1      -3.936  -1.898  -0.688  0.00  0.00    -0.228 NA
ATOM     10 CL   UNL     1      -9.387  -2.843   0.999  0.00  0.00    -0.082 Cl
ENDROOT
BRANCH   1  16
ATOM     11  C   UNL     1      -2.416   1.363  -0.044  0.00  0.00    +0.014 A 
ATOM     12  C   UNL     1      -1.228   2.064  -0.051  0.00  0.00    +0.050 A 
ATOM     13  C   UNL     1      -0.017   1.388   0.008  0.00  0.00    +0.162 A 
ATOM     14  C   UNL     1       0.001  -0.002   0.070  0.00  0.00    +0.163 A 
ATOM     15  C   UNL     1      -1.189  -0.710   0.073  0.00  0.00    +0.059 A 
ATOM     16  C   UNL     1      -2.403  -0.029   0.016  0.00  0.00    +0.006 A 
ATOM     17  O   UNL     1       1.180  -0.681   0.129  0.00  0.00    -0.485 OA
ATOM     18  C   UNL     1       2.357   0.039  -0.253  0.00  0.00    +0.270 C 
ATOM     19  C   UNL     1       2.323   1.412   0.431  0.00  0.00    +0.270 C 
ATOM     20  O   UNL     1       1.144   2.099  -0.000  0.00  0.00    -0.485 OA
ENDBRANCH   1  16
BRANCH   2  21
ATOM     21  C   UNL     1      -4.950   0.697   1.678  0.00  0.00    +0.036 C 
BRANCH  21  22
ATOM     22  C   UNL     1      -4.406   0.321   3.058  0.00  0.00    -0.080 C 
BRANCH  22  23
ATOM     23  N   UNL     1      -4.561   1.461   3.972  0.00  0.00    +0.378 N 
ATOM     24  H   UNL     1      -4.170   1.191   4.964  0.00  0.00    -0.090 HD
ATOM     25  H   UNL     1      -5.626   1.721   4.057  0.00  0.00    -0.090 HD
ATOM     26  H   UNL     1      -4.002   2.324   3.580  0.00  0.00    -0.090 HD
ENDBRANCH  22  23
ENDBRANCH  21  22
ENDBRANCH   2  21
TORSDOF 4
