REMARK  Name = ZINC50829530
REMARK  3 active torsions:
REMARK  status: ('A' for Active; 'I' for Inactive)
REMARK    1  A    between atoms: N_9  and  C_12
REMARK    2  A    between atoms: C_12  and  C_13
REMARK    3  A    between atoms: C_14  and  N_18
REMARK                            x       y       z     vdW  Elec       q    Type
REMARK                         _______ _______ _______ _____ _____    ______ ____
ROOT
ATOM      1  C   UNL     1      -0.017   1.373   0.010  0.00  0.00    +0.001 A 
ATOM      2  C   UNL     1       1.170   2.095   0.002  0.00  0.00    +0.002 A 
ATOM      3  C   UNL     1       2.386   1.452  -0.013  0.00  0.00    +0.030 A 
ATOM      4  C   UNL     1       2.432   0.055  -0.021  0.00  0.00    +0.100 A 
ATOM      5  C   UNL     1       1.224  -0.675  -0.013  0.00  0.00    +0.068 A 
ATOM      6  C   UNL     1       0.002  -0.004   0.002  0.00  0.00    +0.015 A 
ATOM      7  C   UNL     1       1.298  -2.144  -0.022  0.00  0.00    +0.278 A 
ATOM      8  O   UNL     1       0.291  -2.829  -0.016  0.00  0.00    -0.265 OA
ATOM      9  N   UNL     1       2.530  -2.705  -0.037  0.00  0.00    -0.204 N 
ATOM     10  N   UNL     1       3.668  -1.894  -0.044  0.00  0.00    -0.062 NA
ATOM     11  N   UNL     1       3.612  -0.612  -0.037  0.00  0.00    -0.131 NA
ENDROOT
BRANCH   9  12
ATOM     12  C   UNL     1       2.670  -4.163  -0.046  0.00  0.00    +0.208 C 
BRANCH  12  13
ATOM     13  C   UNL     1       2.704  -4.655  -1.470  0.00  0.00    +0.114 A 
ATOM     14  C   UNL     1       1.565  -4.997  -2.142  0.00  0.00    +0.108 A 
ATOM     15  S   UNL     1       2.170  -5.461  -3.640  0.00  0.00    +0.051 S 
ATOM     16  N   UNL     1       3.801  -5.207  -3.352  0.00  0.00    -0.108 NA
ATOM     17  N   UNL     1       3.831  -4.775  -2.136  0.00  0.00    -0.142 NA
BRANCH  14  18
ATOM     18  N   UNL     1       0.245  -4.969  -1.700  0.00  0.00    -0.350 N 
ATOM     19  H   UNL     1       0.041  -4.675  -0.799  0.00  0.00    +0.143 HD
ATOM     20  H   UNL     1      -0.471  -5.243  -2.294  0.00  0.00    +0.143 HD
ENDBRANCH  14  18
ENDBRANCH  12  13
ENDBRANCH   9  12
TORSDOF 3
