REMARK  Name = ZINC41799313
REMARK  10 active torsions:
REMARK  status: ('A' for Active; 'I' for Inactive)
REMARK    1  A    between atoms: C_1  and  O_2
REMARK    2  A    between atoms: O_2  and  C_3
REMARK    3  A    between atoms: C_8  and  C_9
REMARK    4  A    between atoms: C_9  and  C_11
REMARK    5  A    between atoms: C_9  and  N_26
REMARK    6  A    between atoms: C_11  and  N_12
REMARK    7  A    between atoms: C_13  and  C_15
REMARK    8  A    between atoms: C_20  and  O_21
REMARK    9  A    between atoms: O_21  and  C_22
REMARK   10  A    between atoms: C_22  and  C_23
REMARK                            x       y       z     vdW  Elec       q    Type
REMARK                         _______ _______ _______ _____ _____    ______ ____
ROOT
ATOM      1  N   UNL     1      -0.643  -3.598   2.222  0.00  0.00    -0.312 N 
ATOM      2  C   UNL     1      -0.542  -3.723   3.560  0.00  0.00    +0.248 C 
ATOM      3  O   UNL     1       0.442  -3.302   4.137  0.00  0.00    -0.270 OA
ATOM      4  H   UNL     1      -1.429  -3.933   1.761  0.00  0.00    +0.149 HD
ENDROOT
BRANCH   2   5
ATOM      5  C   UNL     1      -1.626  -4.368   4.324  0.00  0.00    +0.078 A 
ATOM      6  C   UNL     1      -2.756  -4.858   3.665  0.00  0.00    +0.017 A 
ATOM      7  C   UNL     1      -3.765  -5.460   4.385  0.00  0.00    +0.001 A 
ATOM      8  C   UNL     1      -3.664  -5.584   5.761  0.00  0.00    +0.004 A 
ATOM      9  C   UNL     1      -2.553  -5.105   6.425  0.00  0.00    +0.046 A 
ATOM     10  C   UNL     1      -1.525  -4.500   5.716  0.00  0.00    +0.133 A 
BRANCH  10  11
ATOM     11  O   UNL     1      -0.430  -4.033   6.367  0.00  0.00    -0.482 OA
BRANCH  11  12
ATOM     12  C   UNL     1      -0.398  -4.203   7.785  0.00  0.00    +0.324 C 
BRANCH  12  13
ATOM     13  C   UNL     1       0.884  -3.628   8.331  0.00  0.00    +0.248 C 
ATOM     14  O   UNL     1       1.691  -3.123   7.579  0.00  0.00    -0.272 OA
ATOM     15  N   UNL     1       1.135  -3.675   9.654  0.00  0.00    -0.327 N 
ATOM     16  H   UNL     1       0.490  -4.079  10.256  0.00  0.00    +0.145 HD
ATOM     17  H   UNL     1       1.960  -3.305  10.005  0.00  0.00    +0.145 HD
ENDBRANCH  12  13
ENDBRANCH  11  12
ENDBRANCH  10  11
ENDBRANCH   2   5
BRANCH   1  18
ATOM     18  C   UNL     1       0.433  -2.957   1.462  0.00  0.00    +0.094 C 
BRANCH  18  19
ATOM     19  C   UNL     1       0.019  -2.835  -0.005  0.00  0.00    -0.017 C 
BRANCH  19  25
ATOM     20  C   UNL     1      -0.951  -0.531  -0.203  0.00  0.00    +0.122 A 
ATOM     21  C   UNL     1      -2.036   0.327  -0.313  0.00  0.00    +0.046 A 
ATOM     22  C   UNL     1      -3.319  -0.184  -0.335  0.00  0.00    +0.004 A 
ATOM     23  C   UNL     1      -3.523  -1.548  -0.246  0.00  0.00    +0.000 A 
ATOM     24  C   UNL     1      -2.443  -2.405  -0.136  0.00  0.00    +0.005 A 
ATOM     25  C   UNL     1      -1.157  -1.900  -0.120  0.00  0.00    -0.018 A 
BRANCH  20  27
ATOM     26  C   UNL     1       0.451   1.389  -0.271  0.00  0.00    +0.277 C 
ATOM     27  O   UNL     1       0.313  -0.031  -0.182  0.00  0.00    -0.495 OA
ENDBRANCH  20  27
ENDBRANCH  19  25
BRANCH  19  28
ATOM     28  N   UNL     1      -0.356  -4.159  -0.520  0.00  0.00    +0.385 N 
ATOM     29  C   UNL     1      -0.658  -4.077  -1.972  0.00  0.00    -0.078 C 
ATOM     30  C   UNL     1      -0.471  -5.537  -2.456  0.00  0.00    -0.020 C 
ATOM     31  C   UNL     1       0.737  -6.025  -1.623  0.00  0.00    -0.020 C 
ATOM     32  C   UNL     1       0.782  -5.095  -0.397  0.00  0.00    -0.078 C 
ATOM     33  H   UNL     1      -1.155  -4.514  -0.017  0.00  0.00    -0.081 HD
ENDBRANCH  19  28
ENDBRANCH  18  19
ENDBRANCH   1  18
TORSDOF 9
