REMARK  Name = ZINC15424539
REMARK  2 active torsions:
REMARK  status: ('A' for Active; 'I' for Inactive)
REMARK    1  A    between atoms: N_9  and  C_14
REMARK    2  A    between atoms: N_12  and  N_13
REMARK                            x       y       z     vdW  Elec       q    Type
REMARK                         _______ _______ _______ _____ _____    ______ ____
ROOT
ATOM      1  C   UNL     1       2.569   3.882  -1.037  0.00  0.00    +0.001 A 
ATOM      2  C   UNL     1       3.708   3.261  -0.540  0.00  0.00    +0.002 A 
ATOM      3  C   UNL     1       3.652   1.996  -0.026  0.00  0.00    +0.028 A 
ATOM      4  C   UNL     1       2.433   1.314   0.001  0.00  0.00    +0.080 A 
ATOM      5  C   UNL     1       1.276   1.948  -0.507  0.00  0.00    +0.065 A 
ATOM      6  C   UNL     1       1.362   3.240  -1.025  0.00  0.00    +0.015 A 
ATOM      7  C   UNL     1       0.007   1.210  -0.468  0.00  0.00    +0.267 A 
ATOM      8  O   UNL     1      -1.022   1.701  -0.894  0.00  0.00    -0.267 OA
ATOM      9  N   UNL     1       0.024  -0.038   0.054  0.00  0.00    -0.248 N 
ATOM     10  C   UNL     1       1.189  -0.578   0.524  0.00  0.00    +0.217 A 
ATOM     11  N   UNL     1       2.332   0.060   0.500  0.00  0.00    -0.214 NA
ATOM     12  N   UNL     1       1.158  -1.847   1.045  0.00  0.00    -0.253 N 
ATOM     13  H   UNL     1       0.340  -2.368   1.007  0.00  0.00    +0.169 HD
ENDROOT
BRANCH   9  14
ATOM     14  C   UNL     1      -1.161  -0.783   0.114  0.00  0.00    +0.055 A 
ATOM     15  C   UNL     1      -1.525  -1.596  -0.951  0.00  0.00    +0.046 A 
ATOM     16  C   UNL     1      -2.692  -2.334  -0.888  0.00  0.00    +0.044 A 
ATOM     17  C   UNL     1      -3.502  -2.256   0.231  0.00  0.00    +0.040 A 
ATOM     18  C   UNL     1      -3.144  -1.443   1.292  0.00  0.00    +0.044 A 
ATOM     19  C   UNL     1      -1.975  -0.706   1.236  0.00  0.00    +0.046 A 
ATOM     20 CL   UNL     1      -4.162  -1.347   2.694  0.00  0.00    -0.083 Cl
ATOM     21 CL   UNL     1      -3.146  -3.354  -2.217  0.00  0.00    -0.083 Cl
ENDBRANCH   9  14
BRANCH  12  22
ATOM     22  N   UNL     1       2.279  -2.377   1.618  0.00  0.00    -0.254 NA
ATOM     23  H   UNL     1       2.105  -3.312   1.955  0.00  0.00    +0.140 HD
ATOM     24  H   UNL     1       3.055  -2.363   0.974  0.00  0.00    +0.140 HD
ENDBRANCH  12  22
TORSDOF 2
