REMARK  Name = ZINC61406102
REMARK  7 active torsions:
REMARK  status: ('A' for Active; 'I' for Inactive)
REMARK    1  A    between atoms: C_1  and  C_2
REMARK    2  A    between atoms: C_2  and  C_3
REMARK    3  A    between atoms: C_3  and  C_5
REMARK    4  A    between atoms: C_3  and  N_22
REMARK    5  A    between atoms: C_5  and  C_7
REMARK    6  A    between atoms: C_5  and  S_12
REMARK    7  A    between atoms: S_12  and  C_13
REMARK                            x       y       z     vdW  Elec       q    Type
REMARK                         _______ _______ _______ _____ _____    ______ ____
ROOT
ATOM      1  C   UNL     1       0.630  -2.023  -1.329  0.00  0.00    +0.106 C 
ENDROOT
BRANCH   1   2
ATOM      2  C   UNL     1      -0.809  -2.436  -1.501  0.00  0.00    +0.117 A 
ATOM      3  C   UNL     1      -1.512  -3.210  -0.655  0.00  0.00    +0.046 A 
ATOM      4  C   UNL     1      -2.809  -3.341  -1.202  0.00  0.00    +0.041 A 
ATOM      5  C   UNL     1      -2.821  -2.640  -2.349  0.00  0.00    +0.195 A 
ATOM      6  O   UNL     1      -1.608  -2.089  -2.523  0.00  0.00    -0.467 OA
ENDBRANCH   1   2
BRANCH   1   7
ATOM      7  C   UNL     1       0.718  -0.497  -1.257  0.00  0.00    -0.054 C 
BRANCH   7   8
ATOM      8  N   UNL     1       2.129  -0.090  -1.209  0.00  0.00    +0.381 N 
ATOM      9  H   UNL     1       2.187   0.916  -1.162  0.00  0.00    -0.090 HD
ATOM     10  H   UNL     1       2.567  -0.491  -0.394  0.00  0.00    -0.090 HD
ATOM     11  H   UNL     1       2.601  -0.415  -2.039  0.00  0.00    -0.090 HD
ENDBRANCH   7   8
BRANCH   7  13
ATOM     12  C   UNL     1      -0.019   1.526   0.010  0.00  0.00    +0.002 C 
ATOM     13  C   UNL     1       0.002  -0.004   0.002  0.00  0.00    -0.018 C 
ENDBRANCH   7  13
ENDBRANCH   1   7
BRANCH   1  14
ATOM     14  S   UNL     1       1.603  -2.619  -2.739  0.00  0.00    -0.076 S 
BRANCH  14  15
ATOM     15  C   UNL     1       1.525  -4.374  -2.599  0.00  0.00    +0.197 A 
ATOM     16  N   UNL     1       0.889  -5.054  -1.672  0.00  0.00    -0.122 NA
ATOM     17  N   UNL     1       1.036  -6.317  -1.865  0.00  0.00    -0.129 NA
ATOM     18  C   UNL     1       1.780  -6.520  -2.936  0.00  0.00    +0.162 A 
ATOM     19  N   UNL     1       2.109  -5.278  -3.437  0.00  0.00    -0.278 N 
ATOM     20  C   UNL     1       2.879  -5.167  -4.561  0.00  0.00    +0.095 A 
ATOM     21  C   UNL     1       3.325  -6.269  -5.196  0.00  0.00    +0.018 A 
ATOM     22  C   UNL     1       3.004  -7.550  -4.710  0.00  0.00    +0.005 A 
ATOM     23  C   UNL     1       2.246  -7.679  -3.590  0.00  0.00    +0.049 A 
ENDBRANCH  14  15
ENDBRANCH   1  14
TORSDOF 6
