REMARK  Name = ZINC00413678
REMARK  5 active torsions:
REMARK  status: ('A' for Active; 'I' for Inactive)
REMARK    1  A    between atoms: C_8  and  C_17
REMARK    2  A    between atoms: C_9  and  N_10
REMARK    3  A    between atoms: N_10  and  C_11
REMARK    4  A    between atoms: C_11  and  C_12
REMARK    5  A    between atoms: C_20  and  O_23
REMARK                            x       y       z     vdW  Elec       q    Type
REMARK                         _______ _______ _______ _____ _____    ______ ____
ROOT
ATOM      1  C   UNL     1      -0.016   1.355   0.009  0.00  0.00    +0.005 A 
ATOM      2  C   UNL     1       1.194   2.071   0.002  0.00  0.00    +0.018 A 
ATOM      3  C   UNL     1       2.373   1.416  -0.013  0.00  0.00    +0.094 A 
ATOM      4  N   UNL     1       2.409   0.048  -0.021  0.00  0.00    -0.289 N 
ATOM      5  C   UNL     1       1.241  -0.680  -0.014  0.00  0.00    +0.117 A 
ATOM      6  C   UNL     1       0.002  -0.004   0.002  0.00  0.00    +0.045 A 
ATOM      7  N   UNL     1       1.546  -1.967  -0.025  0.00  0.00    -0.338 N 
ATOM      8  C   UNL     1       2.884  -2.106  -0.039  0.00  0.00    +0.087 A 
ATOM      9  C   UNL     1       3.444  -0.846  -0.037  0.00  0.00    +0.129 A 
ATOM     10  H   UNL     1       0.906  -2.696  -0.022  0.00  0.00    +0.167 HD
ENDROOT
BRANCH   8  11
ATOM     11  C   UNL     1       3.626  -3.389  -0.053  0.00  0.00    +0.002 A 
ATOM     12  C   UNL     1       4.720  -3.573   0.793  0.00  0.00    +0.013 A 
ATOM     13  C   UNL     1       5.408  -4.768   0.777  0.00  0.00    +0.046 A 
ATOM     14  C   UNL     1       5.013  -5.787  -0.080  0.00  0.00    +0.117 A 
ATOM     15  C   UNL     1       3.926  -5.606  -0.924  0.00  0.00    +0.046 A 
ATOM     16  C   UNL     1       3.230  -4.416  -0.909  0.00  0.00    +0.013 A 
BRANCH  14  17
ATOM     17  O   UNL     1       5.694  -6.963  -0.093  0.00  0.00    -0.507 OA
ATOM     18  H   UNL     1       5.353  -7.622   0.528  0.00  0.00    +0.292 HD
ENDBRANCH  14  17
ENDBRANCH   8  11
BRANCH   9  19
ATOM     19  N   UNL     1       4.806  -0.541  -0.049  0.00  0.00    -0.321 N 
ATOM     20  H   UNL     1       5.463  -1.255  -0.060  0.00  0.00    +0.148 HD
BRANCH  19  21
ATOM     21  C   UNL     1       5.244   0.857  -0.045  0.00  0.00    +0.177 C 
BRANCH  21  22
ATOM     22  C   UNL     1       6.750   0.912  -0.060  0.00  0.00    +0.122 A 
ATOM     23  C   UNL     1       7.525   0.953  -1.159  0.00  0.00    +0.046 A 
ATOM     24  C   UNL     1       8.866   0.997  -0.713  0.00  0.00    +0.041 A 
ATOM     25  C   UNL     1       8.830   0.980   0.631  0.00  0.00    +0.195 A 
ATOM     26  O   UNL     1       7.546   0.935   1.022  0.00  0.00    -0.466 OA
ENDBRANCH  21  22
ENDBRANCH  19  21
ENDBRANCH   9  19
TORSDOF 5
