REMARK  Name = ZINC64995375
REMARK  9 active torsions:
REMARK  status: ('A' for Active; 'I' for Inactive)
REMARK    1  A    between atoms: C_1  and  C_2
REMARK    2  A    between atoms: C_2  and  C_3
REMARK    3  A    between atoms: C_3  and  C_4
REMARK    4  A    between atoms: C_4  and  N_5
REMARK    5  A    between atoms: C_6  and  C_8
REMARK    6  A    between atoms: C_11  and  C_26
REMARK    7  A    between atoms: N_12  and  C_14
REMARK    8  A    between atoms: C_14  and  C_15
REMARK    9  A    between atoms: N_20  and  C_21
REMARK                            x       y       z     vdW  Elec       q    Type
REMARK                         _______ _______ _______ _____ _____    ______ ____
ROOT
ATOM      1  C   UNL     1      -4.429  -4.420   0.021  0.00  0.00    +0.058 C 
ATOM      2  C   UNL     1      -5.169  -3.918  -1.223  0.00  0.00    +0.009 C 
ATOM      3  C   UNL     1      -4.488  -4.483  -2.473  0.00  0.00    -0.015 C 
ATOM      4  C   UNL     1      -4.466  -6.011  -2.389  0.00  0.00    -0.071 C 
ATOM      5  N   UNL     1      -3.722  -6.428  -1.194  0.00  0.00    +0.388 N 
ATOM      6  C   UNL     1      -4.409  -5.950   0.012  0.00  0.00    -0.065 C 
ATOM      7  C   UNL     1      -3.787  -6.580  -3.636  0.00  0.00    -0.013 C 
ATOM      8  H   UNL     1      -2.792  -6.040  -1.226  0.00  0.00    -0.081 HD
ENDROOT
BRANCH   1  10
ATOM      9  N   UNL     1      -2.787  -2.571   0.015  0.00  0.00    -0.315 N 
ATOM     10  C   UNL     1      -3.015  -3.899   0.010  0.00  0.00    +0.214 C 
ATOM     11  O   UNL     1      -2.083  -4.674  -0.003  0.00  0.00    -0.276 OA
ATOM     12  H   UNL     1      -3.533  -1.950   0.025  0.00  0.00    +0.149 HD
BRANCH   9  13
ATOM     13  C   UNL     1      -1.413  -2.063   0.004  0.00  0.00    +0.104 C 
BRANCH  13  14
ATOM     14  C   UNL     1      -1.433  -0.534   0.013  0.00  0.00    +0.018 C 
BRANCH  14  16
ATOM     15  C   UNL     1      -0.019   1.526   0.010  0.00  0.00    +0.004 C 
ATOM     16  C   UNL     1       0.002  -0.004   0.002  0.00  0.00    -0.002 C 
ENDBRANCH  14  16
ENDBRANCH  13  14
ENDBRANCH   9  13
ENDBRANCH   1  10
BRANCH   5  17
ATOM     17  C   UNL     1      -3.637  -7.894  -1.159  0.00  0.00    +0.019 C 
BRANCH  17  18
ATOM     18  C   UNL     1      -2.771  -8.320  -0.002  0.00  0.00    +0.204 C 
ATOM     19  O   UNL     1      -2.274  -7.484   0.722  0.00  0.00    -0.277 OA
ATOM     20  N   UNL     1      -2.549  -9.629   0.228  0.00  0.00    -0.242 N 
ATOM     21  C   UNL     1      -1.774 -10.010   1.263  0.00  0.00    +0.306 C 
ATOM     22  O   UNL     1      -1.276  -9.172   1.989  0.00  0.00    -0.252 OA
ATOM     23  N   UNL     1      -1.553 -11.319   1.493  0.00  0.00    -0.296 N 
ATOM     24  H   UNL     1      -2.947 -10.297  -0.352  0.00  0.00    +0.159 HD
ATOM     25  H   UNL     1      -1.950 -11.988   0.913  0.00  0.00    +0.151 HD
BRANCH  23  26
ATOM     26  C   UNL     1      -0.711 -11.733   2.618  0.00  0.00    +0.074 C 
ATOM     27  C   UNL     1       0.768 -11.782   2.181  0.00  0.00    +0.022 C 
ATOM     28  C   UNL     1       1.346 -13.007   2.933  0.00  0.00    +0.002 C 
ATOM     29  C   UNL     1       0.178 -14.023   2.878  0.00  0.00    +0.002 C 
ATOM     30  C   UNL     1      -1.086 -13.158   3.061  0.00  0.00    +0.022 C 
ENDBRANCH  23  26
ENDBRANCH  17  18
ENDBRANCH   5  17
TORSDOF 7
