REMARK  Name = ZINC39695527
REMARK  10 active torsions:
REMARK  status: ('A' for Active; 'I' for Inactive)
REMARK    1  A    between atoms: C_1  and  C_2
REMARK    2  A    between atoms: C_2  and  C_3
REMARK    3  A    between atoms: C_3  and  C_4
REMARK    4  A    between atoms: C_3  and  C_6
REMARK    5  A    between atoms: C_4  and  C_5
REMARK    6  A    between atoms: C_10  and  C_19
REMARK    7  A    between atoms: N_21  and  C_22
REMARK    8  A    between atoms: C_22  and  C_23
REMARK    9  A    between atoms: N_28  and  C_29
REMARK   10  A    between atoms: C_29  and  C_30
REMARK                            x       y       z     vdW  Elec       q    Type
REMARK                         _______ _______ _______ _____ _____    ______ ____
ROOT
ATOM      1  C   UNL     1       0.886  -2.001   1.200  0.00  0.00    +0.219 C 
ATOM      2  O   UNL     1       0.610  -2.600   0.183  0.00  0.00    -0.275 OA
ATOM      3  N   UNL     1       1.462  -2.652   2.230  0.00  0.00    -0.300 N 
ATOM      4  C   UNL     1       1.951  -2.081   3.507  0.00  0.00    +0.121 C 
ATOM      5  C   UNL     1       1.557  -3.123   4.578  0.00  0.00    +0.100 C 
ATOM      6  C   UNL     1       1.428  -4.447   3.807  0.00  0.00    -0.004 C 
ATOM      7  C   UNL     1       1.744  -4.103   2.344  0.00  0.00    +0.115 C 
ATOM      8  C   UNL     1       0.006  -4.989   3.920  0.00  0.00    -0.010 C 
ATOM      9  C   UNL     1      -0.082  -6.334   3.194  0.00  0.00    -0.082 C 
ATOM     10  N   UNL     1       0.871  -7.278   3.791  0.00  0.00    +0.379 N 
ATOM     11  C   UNL     1       2.244  -6.794   3.596  0.00  0.00    -0.082 C 
ATOM     12  C   UNL     1       2.430  -5.468   4.339  0.00  0.00    -0.010 C 
ATOM     13  H   UNL     1       0.684  -7.364   4.779  0.00  0.00    -0.086 HD
ATOM     14  H   UNL     1       0.769  -8.180   3.352  0.00  0.00    -0.086 HD
ENDROOT
BRANCH   5  15
ATOM     15  C   UNL     1       0.241  -2.752   5.212  0.00  0.00    +0.218 C 
ATOM     16  O   UNL     1      -0.617  -2.205   4.552  0.00  0.00    -0.275 OA
ATOM     17  N   UNL     1       0.018  -3.029   6.512  0.00  0.00    -0.317 N 
ATOM     18  H   UNL     1       0.728  -3.401   7.057  0.00  0.00    +0.149 HD
BRANCH  17  19
ATOM     19  C   UNL     1      -1.298  -2.768   7.101  0.00  0.00    +0.089 C 
BRANCH  19  20
ATOM     20  C   UNL     1      -1.249  -3.048   8.604  0.00  0.00    -0.051 C 
ATOM     21  C   UNL     1      -2.590  -2.650   9.256  0.00  0.00    -0.016 C 
ATOM     22  C   UNL     1      -2.150  -2.038  10.613  0.00  0.00    -0.020 C 
ATOM     23  C   UNL     1      -0.828  -1.331  10.223  0.00  0.00    -0.078 C 
ATOM     24  N   UNL     1      -0.194  -2.232   9.232  0.00  0.00    +0.382 N 
ATOM     25  H   UNL     1       0.278  -1.685   8.527  0.00  0.00    -0.081 HD
BRANCH  24  26
ATOM     26  C   UNL     1       0.774  -3.108   9.905  0.00  0.00    -0.082 C 
ATOM     27  C   UNL     1       1.931  -2.268  10.448  0.00  0.00    -0.017 C 
ENDBRANCH  24  26
ENDBRANCH  19  20
ENDBRANCH  17  19
ENDBRANCH   5  15
BRANCH   1  28
ATOM     28  C   UNL     1       0.586  -0.529   1.314  0.00  0.00    +0.075 C 
BRANCH  28  30
ATOM     29  C   UNL     1       1.492   1.768   0.935  0.00  0.00    +0.004 C 
ATOM     30  C   UNL     1       1.739   0.275   0.710  0.00  0.00    +0.009 C 
ENDBRANCH  28  30
BRANCH  28  31
ATOM     31  C   UNL     1      -0.707  -0.213   0.558  0.00  0.00    +0.009 C 
ATOM     32  C   UNL     1      -1.883  -0.909   1.246  0.00  0.00    +0.004 C 
ENDBRANCH  28  31
ENDBRANCH   1  28
TORSDOF 7
