REMARK  Name = ZINC65398472
REMARK  8 active torsions:
REMARK  status: ('A' for Active; 'I' for Inactive)
REMARK    1  A    between atoms: C_1  and  C_2
REMARK    2  A    between atoms: C_4  and  N_11
REMARK    3  A    between atoms: N_8  and  C_9
REMARK    4  A    between atoms: N_8  and  C_10
REMARK    5  A    between atoms: N_11  and  C_12
REMARK    6  A    between atoms: C_12  and  C_13
REMARK    7  A    between atoms: C_13  and  C_15
REMARK    8  A    between atoms: C_13  and  O_22
REMARK                            x       y       z     vdW  Elec       q    Type
REMARK                         _______ _______ _______ _____ _____    ______ ____
ROOT
ATOM      1  N   UNL     1       0.030  -2.826  -2.330  0.00  0.00    -0.326 N 
ATOM      2  H   UNL     1       0.043  -3.795  -2.296  0.00  0.00    +0.148 HD
ENDROOT
BRANCH   1   6
ATOM      3  C   UNL     1      -0.018   1.503   0.010  0.00  0.00    +0.063 C 
ATOM      4  C   UNL     1       0.002  -0.004   0.002  0.00  0.00    +0.019 A 
ATOM      5  C   UNL     1       0.006  -0.696  -1.194  0.00  0.00    +0.064 A 
ATOM      6  C   UNL     1       0.026  -2.091  -1.156  0.00  0.00    +0.124 A 
ATOM      7  N   UNL     1       0.040  -2.705   0.023  0.00  0.00    -0.201 NA
ATOM      8  C   UNL     1       0.035  -2.005   1.148  0.00  0.00    +0.197 A 
ATOM      9  N   UNL     1       0.022  -0.680   1.141  0.00  0.00    -0.331 N 
ATOM     10  N   UNL     1       0.051  -2.674   2.359  0.00  0.00    -0.307 N 
ATOM     11  C   UNL     1       0.071  -4.138   2.387  0.00  0.00    +0.132 C 
ATOM     12  C   UNL     1       0.046  -1.917   3.614  0.00  0.00    +0.132 C 
ATOM     13  H   UNL     1       0.023  -0.198   1.983  0.00  0.00    +0.168 HD
ENDBRANCH   1   6
BRANCH   1  14
ATOM     14  C   UNL     1       0.013  -2.139  -3.624  0.00  0.00    +0.139 C 
BRANCH  14  15
ATOM     15  C   UNL     1       0.022  -3.174  -4.751  0.00  0.00    +0.163 C 
BRANCH  15  16
ATOM     16  C   UNL     1       0.129  -2.470  -6.079  0.00  0.00    +0.001 A 
ATOM     17  C   UNL     1      -1.013  -2.174  -6.799  0.00  0.00    +0.007 A 
ATOM     18  C   UNL     1      -0.915  -1.528  -8.017  0.00  0.00    +0.000 A 
ATOM     19  C   UNL     1       0.326  -1.177  -8.516  0.00  0.00    +0.001 A 
ATOM     20  C   UNL     1       1.468  -1.473  -7.798  0.00  0.00    +0.020 A 
ATOM     21  C   UNL     1       1.370  -2.115  -6.576  0.00  0.00    +0.047 A 
ATOM     22 CL   UNL     1       2.805  -2.480  -5.669  0.00  0.00    -0.083 Cl
ENDBRANCH  15  16
BRANCH  15  23
ATOM     23  O   UNL     1      -1.188  -3.933  -4.710  0.00  0.00    -0.386 OA
ATOM     24  H   UNL     1      -1.989  -3.401  -4.817  0.00  0.00    +0.210 HD
ENDBRANCH  15  23
ENDBRANCH  14  15
ENDBRANCH   1  14
TORSDOF 5
