REMARK  Name = ZINC50653245
REMARK  6 active torsions:
REMARK  status: ('A' for Active; 'I' for Inactive)
REMARK    1  A    between atoms: C_1  and  N_2
REMARK    2  A    between atoms: C_5  and  N_8
REMARK    3  A    between atoms: N_8  and  S_9
REMARK    4  A    between atoms: S_9  and  C_12
REMARK    5  A    between atoms: C_15  and  N_19
REMARK    6  A    between atoms: C_17  and  N_18
REMARK                            x       y       z     vdW  Elec       q    Type
REMARK                         _______ _______ _______ _____ _____    ______ ____
ROOT
ATOM      1  S   UNL     1       2.463  -4.875   0.426  0.00  0.00    +0.060 S 
ATOM      2  O   UNL     1       2.226  -6.254   0.178  0.00  0.00    -0.153 OA
ATOM      3  O   UNL     1       3.524  -4.161  -0.194  0.00  0.00    -0.153 OA
ENDROOT
BRANCH   1   4
ATOM      4  C   UNL     1       2.693  -4.708   2.165  0.00  0.00    +0.126 A 
ATOM      5  C   UNL     1       3.781  -4.013   2.655  0.00  0.00    +0.032 A 
ATOM      6  C   UNL     1       3.962  -3.882   4.020  0.00  0.00    +0.035 A 
ATOM      7  C   UNL     1       3.055  -4.446   4.898  0.00  0.00    +0.128 A 
ATOM      8  C   UNL     1       1.965  -5.144   4.415  0.00  0.00    +0.057 A 
ATOM      9  C   UNL     1       1.777  -5.272   3.045  0.00  0.00    +0.053 A 
BRANCH   9  10
ATOM     10  N   UNL     1       0.673  -5.972   2.552  0.00  0.00    -0.356 N 
ATOM     11  H   UNL     1       0.523  -6.030   1.596  0.00  0.00    +0.142 HD
ATOM     12  H   UNL     1       0.057  -6.399   3.167  0.00  0.00    +0.142 HD
ENDBRANCH   9  10
BRANCH   7  13
ATOM     13  N   UNL     1       3.253  -4.304   6.358  0.00  0.00    +0.056 N 
ATOM     14  O   UNL     1       4.207  -3.694   6.782  0.00  0.00    -0.126 OA
ATOM     15  O   UNL     1       2.461  -4.798   7.127  0.00  0.00    -0.126 OA
ENDBRANCH   7  13
ENDBRANCH   1   4
BRANCH   1  16
ATOM     16  N   UNL     1       1.065  -4.077   0.039  0.00  0.00    -0.187 NA
ATOM     17  H   UNL     1       0.310  -4.568  -0.322  0.00  0.00    +0.148 HD
BRANCH  16  22
ATOM     18  C   UNL     1      -0.812   1.242   0.141  0.00  0.00    -0.096 C 
ATOM     19  N   UNL     1      -0.597  -0.204  -0.011  0.00  0.00    +0.378 N 
ATOM     20  C   UNL     1       0.562  -0.436  -0.881  0.00  0.00    -0.078 C 
ATOM     21  C   UNL     1       0.742  -1.938  -1.108  0.00  0.00    +0.002 C 
ATOM     22  C   UNL     1       0.968  -2.629   0.240  0.00  0.00    +0.073 C 
ATOM     23  C   UNL     1      -0.212  -2.319   1.166  0.00  0.00    +0.002 C 
ATOM     24  C   UNL     1      -0.356  -0.802   1.308  0.00  0.00    -0.078 C 
ATOM     25  H   UNL     1      -1.415  -0.623  -0.425  0.00  0.00    -0.082 HD
ENDBRANCH  16  22
ENDBRANCH   1  16
TORSDOF 5
