REMARK  Name = ZINC43812937
REMARK  6 active torsions:
REMARK  status: ('A' for Active; 'I' for Inactive)
REMARK    1  A    between atoms: C_1  and  C_2
REMARK    2  A    between atoms: C_2  and  C_3
REMARK    3  A    between atoms: C_3  and  N_4
REMARK    4  A    between atoms: N_4  and  C_5
REMARK    5  A    between atoms: C_11  and  N_13
REMARK    6  A    between atoms: C_17  and  C_20
REMARK                            x       y       z     vdW  Elec       q    Type
REMARK                         _______ _______ _______ _____ _____    ______ ____
ROOT
ATOM      1  C   UNL     1       1.472  -2.466   2.424  0.00  0.00    -0.054 C 
ATOM      2  C   UNL     1       2.940  -2.041   2.351  0.00  0.00    -0.009 C 
ATOM      3  C   UNL     1       3.680  -2.544   3.592  0.00  0.00    +0.063 C 
ATOM      4  C   UNL     1       3.588  -4.070   3.655  0.00  0.00    +0.171 C 
ATOM      5  C   UNL     1       2.122  -4.499   3.723  0.00  0.00    +0.082 C 
ATOM      6  C   UNL     1       1.385  -3.993   2.481  0.00  0.00    +0.048 C 
ATOM      7  O   UNL     1       4.279  -4.543   4.823  0.00  0.00    -0.346 OA
ATOM      8  C   UNL     1       4.886  -5.792   4.412  0.00  0.00    +0.191 C 
ATOM      9  C   UNL     1       5.277  -5.485   2.945  0.00  0.00    +0.191 C 
ATOM     10  O   UNL     1       4.203  -4.637   2.491  0.00  0.00    -0.346 OA
ENDROOT
BRANCH   6  11
ATOM     11  N   UNL     1      -0.024  -4.401   2.547  0.00  0.00    -0.296 NA
ATOM     12  C   UNL     1      -0.669  -3.873   3.759  0.00  0.00    +0.112 C 
ATOM     13  C   UNL     1      -2.147  -4.270   3.758  0.00  0.00    +0.175 C 
ATOM     14  O   UNL     1      -2.253  -5.694   3.664  0.00  0.00    -0.374 OA
ATOM     15  C   UNL     1      -1.637  -6.241   2.496  0.00  0.00    +0.129 C 
ATOM     16  C   UNL     1      -0.153  -5.864   2.484  0.00  0.00    +0.116 C 
ATOM     17  C   UNL     1      -1.777  -7.765   2.510  0.00  0.00    +0.039 C 
ENDBRANCH   6  11
BRANCH   1  18
ATOM     18  N   UNL     1       0.762  -1.980   1.234  0.00  0.00    +0.382 N 
ATOM     19  H   UNL     1      -0.185  -2.329   1.241  0.00  0.00    -0.085 HD
ATOM     20  H   UNL     1       1.234  -2.305   0.403  0.00  0.00    -0.085 HD
BRANCH  18  21
ATOM     21  C   UNL     1       0.742  -0.511   1.242  0.00  0.00    -0.082 C 
BRANCH  21  23
ATOM     22  C   UNL     1      -0.019   1.526   0.010  0.00  0.00    +0.002 C 
ATOM     23  C   UNL     1       0.002  -0.004   0.002  0.00  0.00    -0.022 C 
ENDBRANCH  21  23
ENDBRANCH  18  21
ENDBRANCH   1  18
TORSDOF 4
