REMARK  Name = ZINC39685520
REMARK  8 active torsions:
REMARK  status: ('A' for Active; 'I' for Inactive)
REMARK    1  A    between atoms: C_1  and  C_2
REMARK    2  A    between atoms: C_2  and  C_3
REMARK    3  A    between atoms: C_2  and  C_4
REMARK    4  A    between atoms: C_8  and  C_17
REMARK    5  A    between atoms: N_19  and  C_20
REMARK    6  A    between atoms: C_20  and  C_21
REMARK    7  A    between atoms: C_21  and  N_22
REMARK    8  A    between atoms: N_26  and  C_29
REMARK                            x       y       z     vdW  Elec       q    Type
REMARK                         _______ _______ _______ _____ _____    ______ ____
ROOT
ATOM      1  C   UNL     1      -1.376  -0.526  -0.007  0.00  0.00    +0.218 C 
ATOM      2  O   UNL     1      -2.302   0.253  -0.087  0.00  0.00    -0.275 OA
ATOM      3  N   UNL     1      -1.615  -1.848   0.096  0.00  0.00    -0.300 N 
ATOM      4  C   UNL     1      -0.631  -2.935   0.317  0.00  0.00    +0.121 C 
ATOM      5  C   UNL     1      -1.335  -3.907   1.290  0.00  0.00    +0.100 C 
ATOM      6  C   UNL     1      -2.837  -3.648   1.085  0.00  0.00    -0.004 C 
ATOM      7  C   UNL     1      -2.922  -2.544   0.020  0.00  0.00    +0.115 C 
ATOM      8  C   UNL     1      -3.530  -4.914   0.591  0.00  0.00    -0.010 C 
ATOM      9  C   UNL     1      -5.031  -4.648   0.450  0.00  0.00    -0.082 C 
ATOM     10  N   UNL     1      -5.582  -4.241   1.748  0.00  0.00    +0.379 N 
ATOM     11  C   UNL     1      -4.977  -2.972   2.173  0.00  0.00    -0.082 C 
ATOM     12  C   UNL     1      -3.473  -3.168   2.386  0.00  0.00    -0.010 C 
ATOM     13  H   UNL     1      -6.581  -4.125   1.667  0.00  0.00    -0.086 HD
ATOM     14  H   UNL     1      -5.383  -4.953   2.435  0.00  0.00    -0.086 HD
ENDROOT
BRANCH   5  15
ATOM     15  C   UNL     1      -0.938  -3.606   2.712  0.00  0.00    +0.218 C 
ATOM     16  O   UNL     1      -0.573  -2.490   3.016  0.00  0.00    -0.275 OA
ATOM     17  N   UNL     1      -0.988  -4.577   3.646  0.00  0.00    -0.314 N 
ATOM     18  H   UNL     1      -1.280  -5.469   3.402  0.00  0.00    +0.149 HD
BRANCH  17  19
ATOM     19  C   UNL     1      -0.602  -4.284   5.028  0.00  0.00    +0.119 C 
BRANCH  19  20
ATOM     20  C   UNL     1      -0.749  -5.548   5.877  0.00  0.00    +0.103 C 
BRANCH  20  21
ATOM     21  N   UNL     1      -0.361  -5.255   7.263  0.00  0.00    -0.303 NA
ATOM     22  C   UNL     1      -1.291  -4.338   7.877  0.00  0.00    +0.082 C 
ATOM     23  C   UNL     1      -0.608  -3.333   8.827  0.00  0.00    -0.003 C 
ATOM     24  C   UNL     1       0.478  -4.001   9.693  0.00  0.00    -0.078 C 
ATOM     25  N   UNL     1       0.064  -5.298  10.172  0.00  0.00    +0.379 N 
ATOM     26  C   UNL     1       0.584  -6.318   9.242  0.00  0.00    -0.064 C 
ATOM     27  C   UNL     1      -0.260  -6.501   8.063  0.00  0.00    +0.066 C 
ATOM     28  C   UNL     1       0.610  -5.527  11.516  0.00  0.00    -0.096 C 
ATOM     29  H   UNL     1      -0.944  -5.344  10.200  0.00  0.00    -0.082 HD
ENDBRANCH  20  21
ENDBRANCH  19  20
ENDBRANCH  17  19
ENDBRANCH   5  15
BRANCH   1  31
ATOM     30  C   UNL     1       0.509   0.149  -1.469  0.00  0.00    +0.017 C 
ATOM     31  C   UNL     1       0.042  -0.015  -0.021  0.00  0.00    +0.069 C 
ATOM     32  C   UNL     1       0.104   1.337   0.691  0.00  0.00    +0.017 C 
ENDBRANCH   1  31
TORSDOF 5
