REMARK  Name = ZINC03885389
REMARK  5 active torsions:
REMARK  status: ('A' for Active; 'I' for Inactive)
REMARK    1  A    between atoms: C_6  and  N_7
REMARK    2  A    between atoms: N_7  and  S_8
REMARK    3  A    between atoms: S_8  and  C_11
REMARK    4  A    between atoms: C_14  and  N_18
REMARK    5  A    between atoms: C_15  and  N_17
REMARK                            x       y       z     vdW  Elec       q    Type
REMARK                         _______ _______ _______ _____ _____    ______ ____
ROOT
ATOM      1  C   UNL     1      -1.309   3.311   0.245  0.00  0.00    +0.110 A 
ATOM      2  C   UNL     1      -1.389   1.944   0.059  0.00  0.00    +0.031 A 
ATOM      3  C   UNL     1      -0.244   1.169   0.099  0.00  0.00    +0.027 A 
ATOM      4  C   UNL     1       0.989   1.765   0.316  0.00  0.00    +0.051 A 
ATOM      5  C   UNL     1       1.070   3.145   0.499  0.00  0.00    +0.048 A 
ATOM      6  C   UNL     1      -0.084   3.914   0.462  0.00  0.00    +0.053 A 
ENDROOT
BRANCH   4   7
ATOM      7  N   UNL     1       2.150   0.983   0.350  0.00  0.00    -0.328 N 
ATOM      8  C   UNL     1       1.826  -0.459   0.198  0.00  0.00    +0.105 C 
ATOM      9  C   UNL     1       3.169  -1.077  -0.264  0.00  0.00    +0.020 C 
ATOM     10  C   UNL     1       3.748   0.010  -1.198  0.00  0.00    +0.020 C 
ATOM     11  C   UNL     1       3.047   1.315  -0.777  0.00  0.00    +0.105 C 
ENDBRANCH   4   7
BRANCH   1  12
ATOM     12  S   UNL     1      -2.773   4.291   0.199  0.00  0.00    +0.072 S 
ATOM     13  O   UNL     1      -3.836   3.453   0.631  0.00  0.00    -0.150 OA
ATOM     14  O   UNL     1      -2.461   5.518   0.843  0.00  0.00    -0.150 OA
BRANCH  12  15
ATOM     15  N   UNL     1      -3.071   4.652  -1.389  0.00  0.00    -0.216 N 
ATOM     16  H   UNL     1      -3.046   5.574  -1.690  0.00  0.00    +0.174 HD
BRANCH  15  22
ATOM     17  C   UNL     1      -2.401   3.227  -3.219  0.00  0.00    +0.026 A 
ATOM     18  C   UNL     1      -2.687   2.211  -4.110  0.00  0.00    +0.022 A 
ATOM     19  C   UNL     1      -3.929   1.602  -4.093  0.00  0.00    +0.041 A 
ATOM     20  C   UNL     1      -4.887   2.005  -3.179  0.00  0.00    +0.022 A 
ATOM     21  C   UNL     1      -4.605   3.016  -2.281  0.00  0.00    +0.026 A 
ATOM     22  C   UNL     1      -3.359   3.629  -2.296  0.00  0.00    +0.048 A 
ATOM     23 CL   UNL     1      -4.287   0.331  -5.220  0.00  0.00    -0.084 Cl
ENDBRANCH  15  22
ENDBRANCH  12  15
ENDBRANCH   1  12
BRANCH   5  24
ATOM     24  N   UNL     1       2.312   3.753   0.719  0.00  0.00    -0.356 N 
ATOM     25  H   UNL     1       3.123   3.222   0.689  0.00  0.00    +0.142 HD
ATOM     26  H   UNL     1       2.361   4.704   0.900  0.00  0.00    +0.142 HD
ENDBRANCH   5  24
TORSDOF 5
