REMARK  Name = ZINC66197011
REMARK  11 active torsions:
REMARK  status: ('A' for Active; 'I' for Inactive)
REMARK    1  A    between atoms: C_1  and  C_2
REMARK    2  A    between atoms: C_2  and  C_3
REMARK    3  A    between atoms: C_3  and  C_5
REMARK    4  A    between atoms: C_3  and  N_6
REMARK    5  A    between atoms: N_6  and  C_7
REMARK    6  A    between atoms: N_6  and  C_8
REMARK    7  A    between atoms: C_8  and  C_9
REMARK    8  A    between atoms: C_9  and  N_10
REMARK    9  A    between atoms: N_16  and  C_19
REMARK   10  A    between atoms: C_22  and  S_25
REMARK   11  A    between atoms: S_25  and  N_28
REMARK                            x       y       z     vdW  Elec       q    Type
REMARK                         _______ _______ _______ _____ _____    ______ ____
ROOT
ATOM      1  N   UNL     1      -1.116   2.954  -4.260  0.00  0.00    -0.301 N 
ATOM      2  C   UNL     1      -1.812   3.443  -5.306  0.00  0.00    +0.302 C 
ATOM      3  O   UNL     1      -2.479   2.696  -5.995  0.00  0.00    -0.253 OA
ATOM      4  N   UNL     1      -1.768   4.760  -5.587  0.00  0.00    -0.283 N 
ATOM      5  C   UNL     1      -0.876   5.657  -4.838  0.00  0.00    +0.128 C 
ATOM      6  C   UNL     1       0.022   6.399  -5.835  0.00  0.00    +0.124 C 
ATOM      7  N   UNL     1      -0.821   6.965  -6.897  0.00  0.00    -0.327 N 
ATOM      8  C   UNL     1      -1.714   6.069  -7.646  0.00  0.00    +0.124 C 
ATOM      9  C   UNL     1      -2.608   5.325  -6.653  0.00  0.00    +0.128 C 
ATOM     10  H   UNL     1      -0.643   3.559  -3.667  0.00  0.00    +0.150 HD
ENDROOT
BRANCH   7  11
ATOM     11  C   UNL     1      -0.777   8.330  -7.189  0.00  0.00    +0.030 A 
ATOM     12  C   UNL     1       0.160   9.145  -6.565  0.00  0.00    +0.025 A 
ATOM     13  C   UNL     1       0.202  10.494  -6.856  0.00  0.00    +0.030 A 
ATOM     14  C   UNL     1      -0.687  11.034  -7.767  0.00  0.00    +0.105 A 
ATOM     15  C   UNL     1      -1.621  10.226  -8.389  0.00  0.00    +0.030 A 
ATOM     16  C   UNL     1      -1.665   8.875  -8.107  0.00  0.00    +0.025 A 
BRANCH  14  17
ATOM     17  S   UNL     1      -0.631  12.757  -8.135  0.00  0.00    +0.056 S 
ATOM     18  O   UNL     1      -1.923  13.113  -8.609  0.00  0.00    -0.153 OA
ATOM     19  O   UNL     1      -0.029  13.391  -7.016  0.00  0.00    -0.153 OA
BRANCH  17  20
ATOM     20  N   UNL     1       0.410  12.952  -9.407  0.00  0.00    -0.204 NA
ATOM     21  H   UNL     1       0.851  12.180  -9.796  0.00  0.00    +0.144 HD
ATOM     22  H   UNL     1       0.580  13.838  -9.764  0.00  0.00    +0.144 HD
ENDBRANCH  17  20
ENDBRANCH  14  17
ENDBRANCH   7  11
BRANCH   1  23
ATOM     23  C   UNL     1      -1.072   1.510  -4.020  0.00  0.00    +0.087 C 
BRANCH  23  24
ATOM     24  C   UNL     1      -0.222   1.224  -2.781  0.00  0.00    -0.060 C 
BRANCH  24  25
ATOM     25  N   UNL     1      -0.178  -0.225  -2.540  0.00  0.00    +0.381 N 
ATOM     26  C   UNL     1       0.556  -0.880  -3.631  0.00  0.00    -0.096 C 
ATOM     27  H   UNL     1      -1.119  -0.588  -2.502  0.00  0.00    -0.082 HD
BRANCH  25  28
ATOM     28  C   UNL     1       0.501  -0.489  -1.265  0.00  0.00    -0.072 C 
ATOM     29  C   UNL     1       1.924   0.070  -1.319  0.00  0.00    -0.013 C 
BRANCH  28  31
ATOM     30  C   UNL     1      -0.868  -2.547  -0.901  0.00  0.00    +0.002 C 
ATOM     31  C   UNL     1       0.555  -1.998  -1.019  0.00  0.00    -0.019 C 
ENDBRANCH  28  31
ENDBRANCH  25  28
ENDBRANCH  24  25
ENDBRANCH  23  24
ENDBRANCH   1  23
TORSDOF 8
