REMARK  Name = ZINC39515557
REMARK  7 active torsions:
REMARK  status: ('A' for Active; 'I' for Inactive)
REMARK    1  A    between atoms: C_1  and  C_2
REMARK    2  A    between atoms: C_5  and  N_8
REMARK    3  A    between atoms: C_12  and  C_32
REMARK    4  A    between atoms: C_12  and  C_33
REMARK    5  A    between atoms: C_14  and  N_19
REMARK    6  A    between atoms: C_20  and  C_22
REMARK    7  A    between atoms: C_24  and  C_31
REMARK                            x       y       z     vdW  Elec       q    Type
REMARK                         _______ _______ _______ _____ _____    ______ ____
ROOT
ATOM      1  N   UNL     1      -0.117  -4.011   0.510  0.00  0.00    -0.246 N 
ATOM      2  C   UNL     1       0.051  -4.970   1.606  0.00  0.00    +0.124 C 
ATOM      3  C   UNL     1      -1.019  -4.787   2.687  0.00  0.00    +0.035 C 
ATOM      4  C   UNL     1      -0.989  -6.006   3.614  0.00  0.00    -0.031 C 
ATOM      5  C   UNL     1      -1.399  -7.274   2.867  0.00  0.00    +0.033 C 
ATOM      6  C   UNL     1      -0.377  -7.586   1.761  0.00  0.00    +0.103 C 
ATOM      7  C   UNL     1      -0.187  -6.322   0.952  0.00  0.00    -0.013 C 
ATOM      8  C   UNL     1      -0.280  -6.131  -0.336  0.00  0.00    +0.091 C 
ATOM      9  N   UNL     1      -0.194  -4.787  -0.659  0.00  0.00    -0.271 N 
ATOM     10  C   UNL     1      -1.954  -5.775   4.779  0.00  0.00    +0.011 C 
ATOM     11  C   UNL     1       0.428  -6.184   4.164  0.00  0.00    +0.011 C 
ATOM     12  H   UNL     1      -0.185  -4.434  -1.562  0.00  0.00    +0.169 HD
ENDROOT
BRANCH   1  17
ATOM     13  C   UNL     1      -0.418   1.638   0.905  0.00  0.00    +0.044 C 
ATOM     14  C   UNL     1      -0.338   0.137   0.800  0.00  0.00    -0.050 A 
ATOM     15  C   UNL     1      -0.620  -0.486  -0.402  0.00  0.00    +0.005 A 
ATOM     16  C   UNL     1      -0.548  -1.862  -0.501  0.00  0.00    +0.025 A 
ATOM     17  C   UNL     1      -0.191  -2.619   0.607  0.00  0.00    +0.048 A 
ATOM     18  C   UNL     1       0.093  -1.990   1.812  0.00  0.00    +0.025 A 
ATOM     19  C   UNL     1       0.023  -0.614   1.904  0.00  0.00    +0.005 A 
ENDBRANCH   1  17
BRANCH   6  20
ATOM     20  N   UNL     1       0.902  -7.979   2.358  0.00  0.00    -0.308 N 
ATOM     21  C   UNL     1       1.898  -8.438   1.575  0.00  0.00    +0.230 C 
ATOM     22  O   UNL     1       1.736  -8.525   0.376  0.00  0.00    -0.275 OA
ATOM     23  H   UNL     1       1.032  -7.909   3.317  0.00  0.00    +0.149 HD
BRANCH  21  24
ATOM     24  C   UNL     1       3.214  -8.842   2.188  0.00  0.00    +0.186 C 
ATOM     25  C   UNL     1       4.316  -8.549   1.215  0.00  0.00    -0.050 C 
ATOM     26  C   UNL     1       5.310  -9.395   1.000  0.00  0.00    +0.023 C 
ATOM     27  C   UNL     1       5.350 -10.679   1.728  0.00  0.00    +0.026 C 
ATOM     28  N   UNL     1       4.180 -11.135   2.349  0.00  0.00    -0.285 N 
ATOM     29  C   UNL     1       3.155 -10.294   2.552  0.00  0.00    +0.233 C 
ATOM     30  O   UNL     1       2.140 -10.728   3.053  0.00  0.00    -0.274 OA
ATOM     31  C   UNL     1       6.478 -11.391   1.792  0.00  0.00    +0.033 C 
ATOM     32  C   UNL     1       4.289  -7.248   0.456  0.00  0.00    +0.040 C 
ATOM     33  H   UNL     1       4.111 -12.060   2.630  0.00  0.00    +0.155 HD
ENDBRANCH  21  24
ENDBRANCH   6  20
TORSDOF 3
