REMARK  Name = ZINC44490269
REMARK  3 active torsions:
REMARK  status: ('A' for Active; 'I' for Inactive)
REMARK    1  A    between atoms: C_1  and  C_2
REMARK    2  A    between atoms: C_8  and  C_10
REMARK    3  A    between atoms: C_15  and  O_16
REMARK                            x       y       z     vdW  Elec       q    Type
REMARK                         _______ _______ _______ _____ _____    ______ ____
ROOT
ATOM      1  C   UNL     1      -0.018   1.503   0.010  0.00  0.00    +0.089 C 
ATOM      2  C   UNL     1       0.002  -0.004   0.002  0.00  0.00    +0.136 A 
ATOM      3  C   UNL     1      -1.076  -0.807   0.003  0.00  0.00    +0.091 A 
ATOM      4  C   UNL     1      -0.625  -2.147  -0.007  0.00  0.00    +0.168 A 
ATOM      5  N   UNL     1       0.683  -2.130  -0.013  0.00  0.00    -0.063 NA
ATOM      6  O   UNL     1       1.100  -0.776  -0.013  0.00  0.00    -0.358 OA
ATOM      7  N   UNL     1      -1.432  -3.284  -0.010  0.00  0.00    -0.264 N 
ATOM      8  C   UNL     1      -2.773  -3.159  -0.003  0.00  0.00    +0.253 C 
ATOM      9  O   UNL     1      -3.281  -2.054   0.006  0.00  0.00    -0.270 OA
ATOM     10  H   UNL     1      -1.027  -4.165  -0.017  0.00  0.00    +0.157 HD
ENDROOT
BRANCH   8  11
ATOM     11  C   UNL     1      -3.626  -4.362  -0.006  0.00  0.00    +0.078 A 
ATOM     12  C   UNL     1      -3.047  -5.634  -0.010  0.00  0.00    +0.018 A 
ATOM     13  C   UNL     1      -3.849  -6.754  -0.013  0.00  0.00    +0.016 A 
ATOM     14  C   UNL     1      -5.229  -6.625  -0.011  0.00  0.00    +0.021 A 
ATOM     15  C   UNL     1      -5.815  -5.374  -0.008  0.00  0.00    +0.061 A 
ATOM     16  C   UNL     1      -5.022  -4.236   0.002  0.00  0.00    +0.130 A 
ATOM     17 BR   UNL     1      -6.317  -8.172  -0.016  0.00  0.00    -0.050 Br
BRANCH  16  18
ATOM     18  O   UNL     1      -5.596  -3.007   0.012  0.00  0.00    -0.506 OA
ATOM     19  H   UNL     1      -5.766  -2.645  -0.869  0.00  0.00    +0.292 HD
ENDBRANCH  16  18
ENDBRANCH   8  11
TORSDOF 2
