REMARK  Name = ZINC61845143
REMARK  2 active torsions:
REMARK  status: ('A' for Active; 'I' for Inactive)
REMARK    1  A    between atoms: C_3  and  C_9
REMARK    2  A    between atoms: C_11  and  C_14
REMARK                            x       y       z     vdW  Elec       q    Type
REMARK                         _______ _______ _______ _____ _____    ______ ____
ROOT
ATOM      1  C   UNL     1       3.659   2.169  -0.022  0.00  0.00    +0.204 A 
ATOM      2  N   UNL     1       4.888   1.629  -0.042  0.00  0.00    -0.186 NA
ATOM      3  C   UNL     1       5.795   2.581  -0.044  0.00  0.00    +0.278 A 
ATOM      4  O   UNL     1       5.159   3.767  -0.025  0.00  0.00    -0.331 OA
ATOM      5  N   UNL     1       3.770   3.475  -0.017  0.00  0.00    -0.056 NA
ENDROOT
BRANCH   1   8
ATOM      6  C   UNL     1      -0.017   1.381   0.010  0.00  0.00    +0.039 A 
ATOM      7  C   UNL     1       1.167   2.090   0.002  0.00  0.00    +0.016 A 
ATOM      8  C   UNL     1       2.384   1.411  -0.013  0.00  0.00    +0.041 A 
ATOM      9  C   UNL     1       2.398   0.016  -0.021  0.00  0.00    +0.054 A 
ATOM     10  C   UNL     1       1.209  -0.685  -0.013  0.00  0.00    +0.059 A 
ATOM     11  C   UNL     1       0.002  -0.004   0.002  0.00  0.00    +0.125 A 
ATOM     12  F   UNL     1      -1.160  -0.693   0.010  0.00  0.00    -0.205 F 
ATOM     13 CL   UNL     1       3.910  -0.837  -0.040  0.00  0.00    -0.083 Cl
ENDBRANCH   1   8
BRANCH   3  14
ATOM     14  C   UNL     1       7.255   2.383  -0.063  0.00  0.00    +0.137 A 
ATOM     15  C   UNL     1       8.102   3.461  -0.058  0.00  0.00    +0.081 A 
ATOM     16  S   UNL     1       9.689   2.638  -0.086  0.00  0.00    -0.060 S 
ATOM     17  C   UNL     1       9.075   0.960  -0.101  0.00  0.00    +0.156 A 
ATOM     18  N   UNL     1       7.771   1.153  -0.080  0.00  0.00    -0.220 NA
ATOM     19  N   UNL     1       9.782  -0.230  -0.125  0.00  0.00    -0.338 N 
ATOM     20  H   UNL     1      10.752  -0.218  -0.136  0.00  0.00    +0.144 HD
ATOM     21  H   UNL     1       9.308  -1.077  -0.131  0.00  0.00    +0.144 HD
ENDBRANCH   3  14
TORSDOF 2
