REMARK  Name = ZINC05034788
REMARK  7 active torsions:
REMARK  status: ('A' for Active; 'I' for Inactive)
REMARK    1  A    between atoms: C_1  and  N_2
REMARK    2  A    between atoms: C_3  and  C_5
REMARK    3  A    between atoms: C_5  and  C_23
REMARK    4  A    between atoms: N_7  and  C_17
REMARK    5  A    between atoms: C_11  and  C_12
REMARK    6  A    between atoms: C_12  and  O_14
REMARK    7  A    between atoms: O_14  and  C_15
REMARK                            x       y       z     vdW  Elec       q    Type
REMARK                         _______ _______ _______ _____ _____    ______ ____
ROOT
ATOM      1  C   UNL     1       1.145  -2.862   0.519  0.00  0.00    +0.144 C 
ATOM      2  C   UNL     1       1.459  -3.202   1.833  0.00  0.00    +0.111 A 
ATOM      3  N   UNL     1       1.211  -4.382   2.490  0.00  0.00    -0.269 N 
ATOM      4  C   UNL     1       1.579  -4.550   3.749  0.00  0.00    +0.271 A 
ATOM      5  O   UNL     1       1.372  -5.589   4.343  0.00  0.00    -0.266 OA
ATOM      6  C   UNL     1       2.256  -3.394   4.403  0.00  0.00    +0.086 A 
ATOM      7  C   UNL     1       2.731  -3.278   5.670  0.00  0.00    +0.112 C 
ATOM      8  S   UNL     1       2.271  -2.204   3.071  0.00  0.00    -0.064 S 
ENDROOT
BRANCH   3   9
ATOM      9  C   UNL     1       0.564  -5.426   1.815  0.00  0.00    +0.051 A 
ATOM     10  C   UNL     1      -0.822  -5.448   1.735  0.00  0.00    +0.026 A 
ATOM     11  C   UNL     1      -1.457  -6.475   1.065  0.00  0.00    +0.002 A 
ATOM     12  C   UNL     1      -0.715  -7.486   0.483  0.00  0.00    +0.000 A 
ATOM     13  C   UNL     1       0.665  -7.470   0.566  0.00  0.00    +0.002 A 
ATOM     14  C   UNL     1       1.307  -6.442   1.230  0.00  0.00    +0.026 A 
ENDBRANCH   3   9
BRANCH   1  17
ATOM     15  C   UNL     1       1.560   0.109  -1.793  0.00  0.00    +0.128 C 
ATOM     16  N   UNL     1       1.201  -1.212  -1.273  0.00  0.00    -0.314 N 
ATOM     17  C   UNL     1       1.504  -1.541  -0.001  0.00  0.00    +0.257 C 
ATOM     18  O   UNL     1       2.077  -0.740   0.715  0.00  0.00    -0.269 OA
ATOM     19  H   UNL     1       0.745  -1.851  -1.843  0.00  0.00    +0.149 HD
ENDBRANCH   1  17
BRANCH   7  20
ATOM     20  C   UNL     1       2.765  -4.448   6.550  0.00  0.00    +0.333 C 
ATOM     21  O   UNL     1       2.490  -5.548   6.110  0.00  0.00    -0.246 OA
BRANCH  20  22
ATOM     22  O   UNL     1       3.102  -4.306   7.848  0.00  0.00    -0.465 OA
ATOM     23  C   UNL     1       3.114  -5.508   8.662  0.00  0.00    +0.280 C 
ENDBRANCH  20  22
ENDBRANCH   7  20
BRANCH   1  24
ATOM     24  C   UNL     1       0.472  -3.804  -0.323  0.00  0.00    +0.107 C 
ATOM     25  N   UNL     1      -0.062  -4.552  -0.991  0.00  0.00    -0.191 NA
ENDBRANCH   1  24
TORSDOF 5
