REMARK  Name = ZINC58356744
REMARK  5 active torsions:
REMARK  status: ('A' for Active; 'I' for Inactive)
REMARK    1  A    between atoms: C_4  and  N_18
REMARK    2  A    between atoms: C_5  and  N_7
REMARK    3  A    between atoms: N_7  and  C_8
REMARK    4  A    between atoms: N_18  and  S_19
REMARK    5  A    between atoms: S_19  and  C_22
REMARK                            x       y       z     vdW  Elec       q    Type
REMARK                         _______ _______ _______ _____ _____    ______ ____
ROOT
ATOM      1  C   UNL     1       0.075   1.375  -0.710  0.00  0.00    +0.002 A 
ATOM      2  C   UNL     1       1.288   2.028  -0.834  0.00  0.00    +0.002 A 
ATOM      3  C   UNL     1       2.470   1.345  -0.615  0.00  0.00    +0.026 A 
ATOM      4  C   UNL     1       2.442   0.003  -0.270  0.00  0.00    +0.069 A 
ATOM      5  C   UNL     1       1.219  -0.656  -0.145  0.00  0.00    +0.050 A 
ATOM      6  C   UNL     1       0.038   0.036  -0.367  0.00  0.00    +0.025 A 
ENDROOT
BRANCH   5   7
ATOM      7  N   UNL     1       1.183  -2.012   0.202  0.00  0.00    -0.337 N 
ATOM      8  H   UNL     1       2.004  -2.475   0.432  0.00  0.00    +0.147 HD
BRANCH   7   9
ATOM      9  C   UNL     1      -0.093  -2.731   0.218  0.00  0.00    +0.033 C 
ATOM     10  C   UNL     1      -0.770  -2.598  -1.147  0.00  0.00    +0.029 C 
ATOM     11  C   UNL     1      -2.103  -3.349  -1.131  0.00  0.00    -0.008 C 
ATOM     12  C   UNL     1      -1.852  -4.827  -0.827  0.00  0.00    +0.007 C 
ATOM     13  C   UNL     1      -1.175  -4.960   0.538  0.00  0.00    -0.008 C 
ATOM     14  C   UNL     1       0.158  -4.209   0.522  0.00  0.00    +0.029 C 
ATOM     15  C   UNL     1      -2.082  -4.365   1.617  0.00  0.00    +0.007 C 
ATOM     16  C   UNL     1      -2.333  -2.886   1.314  0.00  0.00    -0.008 C 
ATOM     17  C   UNL     1      -3.010  -2.754  -0.052  0.00  0.00    +0.007 C 
ATOM     18  C   UNL     1      -1.000  -2.135   1.297  0.00  0.00    +0.029 C 
ENDBRANCH   7   9
ENDBRANCH   5   7
BRANCH   4  19
ATOM     19  N   UNL     1       3.638  -0.691  -0.049  0.00  0.00    -0.214 N 
ATOM     20  H   UNL     1       3.714  -1.622  -0.310  0.00  0.00    +0.174 HD
BRANCH  19  21
ATOM     21  S   UNL     1       4.923   0.079   0.658  0.00  0.00    +0.072 S 
ATOM     22  O   UNL     1       5.941  -0.898   0.824  0.00  0.00    -0.150 OA
ATOM     23  O   UNL     1       5.130   1.279  -0.075  0.00  0.00    -0.150 OA
BRANCH  21  24
ATOM     24  C   UNL     1       4.417   0.559   2.276  0.00  0.00    +0.109 A 
ATOM     25  C   UNL     1       3.823   1.792   2.477  0.00  0.00    +0.030 A 
ATOM     26  C   UNL     1       3.425   2.171   3.743  0.00  0.00    +0.025 A 
ATOM     27  C   UNL     1       3.621   1.312   4.817  0.00  0.00    +0.037 A 
ATOM     28  C   UNL     1       4.217   0.074   4.612  0.00  0.00    -0.024 A 
ATOM     29  C   UNL     1       4.608  -0.301   3.342  0.00  0.00    +0.034 A 
ATOM     30  C   UNL     1       4.429  -0.858   5.776  0.00  0.00    +0.046 C 
ATOM     31  C   UNL     1       4.729  -0.043   7.035  0.00  0.00    +0.101 C 
ATOM     32  C   UNL     1       3.718   1.062   7.183  0.00  0.00    +0.218 C 
ATOM     33  O   UNL     1       3.349   1.392   8.290  0.00  0.00    -0.275 OA
ATOM     34  N   UNL     1       3.220   1.689   6.102  0.00  0.00    -0.285 N 
ATOM     35  H   UNL     1       2.578   2.408   6.215  0.00  0.00    +0.155 HD
ENDBRANCH  21  24
ENDBRANCH  19  21
ENDBRANCH   4  19
TORSDOF 5
