REMARK  Name = ZINC28616908
REMARK  7 active torsions:
REMARK  status: ('A' for Active; 'I' for Inactive)
REMARK    1  A    between atoms: C_1  and  C_2
REMARK    2  A    between atoms: C_5  and  N_9
REMARK    3  A    between atoms: C_6  and  C_8
REMARK    4  A    between atoms: N_9  and  C_10
REMARK    5  A    between atoms: C_10  and  N_12
REMARK    6  A    between atoms: N_12  and  N_13
REMARK    7  A    between atoms: C_14  and  C_16
REMARK                            x       y       z     vdW  Elec       q    Type
REMARK                         _______ _______ _______ _____ _____    ______ ____
ROOT
ATOM      1  C   UNL     1      -0.039  -4.838  -1.187  0.00  0.00    +0.151 C 
ATOM      2  S   UNL     1      -0.058  -3.979  -2.668  0.00  0.00    -0.017 S 
ENDROOT
BRANCH   1   3
ATOM      3  N   UNL     1       0.059  -4.169  -0.021  0.00  0.00    -0.296 N 
ATOM      4  H   UNL     1       0.134  -4.658   0.814  0.00  0.00    +0.154 HD
BRANCH   3   9
ATOM      5  C   UNL     1       0.038   1.503   0.005  0.00  0.00    +0.044 C 
ATOM      6  C   UNL     1       0.044  -0.004  -0.002  0.00  0.00    -0.050 A 
ATOM      7  C   UNL     1       0.855  -0.687  -0.890  0.00  0.00    +0.005 A 
ATOM      8  C   UNL     1       0.863  -2.067  -0.898  0.00  0.00    +0.024 A 
ATOM      9  C   UNL     1       0.054  -2.771  -0.015  0.00  0.00    +0.036 A 
ATOM     10  C   UNL     1      -0.759  -2.082   0.875  0.00  0.00    -0.029 A 
ATOM     11  C   UNL     1      -0.758  -0.700   0.882  0.00  0.00    +0.008 A 
ATOM     12  C   UNL     1      -1.638  -2.840   1.836  0.00  0.00    +0.045 C 
ENDBRANCH   3   9
ENDBRANCH   1   3
BRANCH   1  13
ATOM     13  N   UNL     1      -0.122  -6.184  -1.187  0.00  0.00    -0.245 N 
ATOM     14  H   UNL     1      -0.193  -6.665  -2.026  0.00  0.00    +0.172 HD
BRANCH  13  15
ATOM     15  N   UNL     1      -0.106  -6.886   0.025  0.00  0.00    -0.229 N 
ATOM     16  C   UNL     1      -0.190  -8.232   0.024  0.00  0.00    +0.295 C 
ATOM     17  O   UNL     1      -0.279  -8.836  -1.028  0.00  0.00    -0.265 OA
ATOM     18  H   UNL     1      -0.035  -6.405   0.864  0.00  0.00    +0.173 HD
BRANCH  16  19
ATOM     19  C   UNL     1      -0.173  -8.967   1.292  0.00  0.00    +0.193 A 
ATOM     20  C   UNL     1      -0.245 -10.324   1.433  0.00  0.00    +0.056 A 
ATOM     21  C   UNL     1      -0.196 -10.589   2.810  0.00  0.00    +0.063 A 
ATOM     22  C   UNL     1      -0.098  -9.397   3.442  0.00  0.00    +0.195 A 
ATOM     23  O   UNL     1      -0.079  -8.422   2.523  0.00  0.00    -0.439 OA
ATOM     24 CL   UNL     1      -0.005  -9.168   5.161  0.00  0.00    -0.043 Cl
ENDBRANCH  16  19
ENDBRANCH  13  15
ENDBRANCH   1  13
TORSDOF 5
