REMARK  Name = ZINC34786258
REMARK  9 active torsions:
REMARK  status: ('A' for Active; 'I' for Inactive)
REMARK    1  A    between atoms: C_1  and  C_2
REMARK    2  A    between atoms: C_2  and  C_3
REMARK    3  A    between atoms: C_3  and  C_4
REMARK    4  A    between atoms: C_4  and  N_5
REMARK    5  A    between atoms: N_13  and  C_14
REMARK    6  A    between atoms: C_15  and  C_22
REMARK    7  A    between atoms: C_16  and  C_20
REMARK    8  A    between atoms: C_17  and  C_19
REMARK    9  A    between atoms: C_20  and  C_21
REMARK                            x       y       z     vdW  Elec       q    Type
REMARK                         _______ _______ _______ _____ _____    ______ ____
ROOT
ATOM      1  N   UNL     1       1.464  -2.529   2.423  0.00  0.00    +0.382 N 
ATOM      2  C   UNL     1       0.720  -2.146   3.629  0.00  0.00    -0.059 C 
ATOM      3  C   UNL     1       1.519  -2.552   4.872  0.00  0.00    +0.091 C 
ATOM      4  N   UNL     1       1.829  -3.987   4.779  0.00  0.00    -0.289 N 
ATOM      5  C   UNL     1       2.431  -4.487   3.533  0.00  0.00    +0.091 C 
ATOM      6  C   UNL     1       1.588  -3.990   2.353  0.00  0.00    -0.059 C 
ATOM      7  C   UNL     1       1.571  -4.820   5.806  0.00  0.00    +0.307 C 
ATOM      8  O   UNL     1       1.159  -4.375   6.860  0.00  0.00    -0.252 OA
ATOM      9  N   UNL     1       1.768  -6.145   5.665  0.00  0.00    -0.263 N 
ATOM     10  H   UNL     1       2.167  -6.492   4.852  0.00  0.00    +0.157 HD
ATOM     11  H   UNL     1       2.384  -2.115   2.454  0.00  0.00    -0.082 HD
ENDROOT
BRANCH   9  12
ATOM     12  C   UNL     1       1.403  -7.013   6.683  0.00  0.00    +0.086 A 
ATOM     13  C   UNL     1       1.535  -8.393   6.716  0.00  0.00    +0.068 A 
ATOM     14  C   UNL     1       1.067  -9.059   7.911  0.00  0.00    -0.024 A 
ATOM     15  C   UNL     1       0.553  -8.261   8.864  0.00  0.00    -0.008 A 
ATOM     16  S   UNL     1       0.705  -6.633   8.161  0.00  0.00    -0.078 S 
ATOM     17  C   UNL     1      -0.010  -8.651  10.206  0.00  0.00    +0.052 C 
BRANCH  13  18
ATOM     18  C   UNL     1       2.118  -9.139   5.596  0.00  0.00    +0.244 C 
ATOM     19  O   UNL     1       3.316  -9.347   5.562  0.00  0.00    -0.270 OA
ATOM     20  N   UNL     1       1.326  -9.594   4.604  0.00  0.00    -0.325 N 
ATOM     21  H   UNL     1       0.371  -9.428   4.632  0.00  0.00    +0.145 HD
ATOM     22  H   UNL     1       1.712 -10.087   3.864  0.00  0.00    +0.145 HD
ENDBRANCH  13  18
BRANCH  14  23
ATOM     23  C   UNL     1       1.151 -10.555   8.078  0.00  0.00    +0.033 C 
ATOM     24  C   UNL     1       2.488 -10.922   8.724  0.00  0.00    +0.009 C 
ENDBRANCH  14  23
ENDBRANCH   9  12
BRANCH   1  25
ATOM     25  C   UNL     1       0.750  -2.042   1.234  0.00  0.00    -0.079 C 
BRANCH  25  26
ATOM     26  C   UNL     1       0.730  -0.512   1.242  0.00  0.00    -0.019 C 
BRANCH  26  28
ATOM     27  C   UNL     1      -0.035   1.524   0.013  0.00  0.00    +0.004 C 
ATOM     28  C   UNL     1      -0.014  -0.006   0.005  0.00  0.00    -0.005 C 
ENDBRANCH  26  28
ENDBRANCH  25  26
ENDBRANCH   1  25
TORSDOF 6
