REMARK  Name = ZINC67548711
REMARK  6 active torsions:
REMARK  status: ('A' for Active; 'I' for Inactive)
REMARK    1  A    between atoms: C_6  and  C_11
REMARK    2  A    between atoms: C_11  and  C_13
REMARK    3  A    between atoms: C_11  and  O_30
REMARK    4  A    between atoms: C_13  and  N_14
REMARK    5  A    between atoms: N_17  and  C_18
REMARK    6  A    between atoms: C_23  and  N_24
REMARK                            x       y       z     vdW  Elec       q    Type
REMARK                         _______ _______ _______ _____ _____    ______ ____
ROOT
ATOM      1  N   UNL     1       6.698  -3.747   1.365  0.00  0.00    -0.296 N 
ATOM      2  C   UNL     1       7.205  -4.249   2.508  0.00  0.00    +0.304 C 
ATOM      3  O   UNL     1       6.557  -4.196   3.535  0.00  0.00    -0.253 OA
ATOM      4  N   UNL     1       8.431  -4.809   2.513  0.00  0.00    -0.267 N 
ATOM      5  H   UNL     1       7.215  -3.789   0.545  0.00  0.00    +0.150 HD
ATOM      6  H   UNL     1       8.914  -4.926   1.680  0.00  0.00    +0.156 HD
ENDROOT
BRANCH   4   7
ATOM      7  C   UNL     1       9.009  -5.222   3.722  0.00  0.00    +0.073 A 
ATOM      8  C   UNL     1       8.619  -4.644   4.923  0.00  0.00    +0.028 A 
ATOM      9  C   UNL     1       9.219  -5.086   6.094  0.00  0.00    +0.019 A 
ATOM     10  C   UNL     1      10.176  -6.078   6.032  0.00  0.00    +0.084 A 
ATOM     11  N   UNL     1      10.529  -6.611   4.877  0.00  0.00    -0.348 N 
ATOM     12  C   UNL     1       9.981  -6.225   3.737  0.00  0.00    +0.121 A 
ATOM     13  H   UNL     1      11.206  -7.306   4.865  0.00  0.00    +0.167 HD
BRANCH  12  14
ATOM     14  N   UNL     1      10.379  -6.819   2.543  0.00  0.00    -0.311 N 
ATOM     15  C   UNL     1      11.568  -6.342   1.819  0.00  0.00    +0.134 C 
ATOM     16  C   UNL     1      12.458  -7.549   1.503  0.00  0.00    +0.178 C 
ATOM     17  O   UNL     1      11.677  -8.552   0.849  0.00  0.00    -0.377 OA
ATOM     18  C   UNL     1      10.609  -9.073   1.645  0.00  0.00    +0.178 C 
ATOM     19  C   UNL     1       9.627  -7.947   1.971  0.00  0.00    +0.134 C 
ENDBRANCH  12  14
ENDBRANCH   4   7
BRANCH   1  20
ATOM     20  C   UNL     1       5.365  -3.139   1.359  0.00  0.00    +0.141 C 
BRANCH  20  21
ATOM     21  C   UNL     1       5.032  -2.653  -0.053  0.00  0.00    +0.162 C 
BRANCH  21  27
ATOM     22  C   UNL     1       0.039   1.442   0.036  0.00  0.00    +0.001 A 
ATOM     23  C   UNL     1       1.230   2.167   0.037  0.00  0.00    +0.001 A 
ATOM     24  C   UNL     1       2.435   1.535   0.020  0.00  0.00    +0.008 A 
ATOM     25  C   UNL     1       2.483   0.130   0.001  0.00  0.00    -0.018 A 
ATOM     26  C   UNL     1       3.708  -0.558  -0.016  0.00  0.00    +0.014 A 
ATOM     27  C   UNL     1       3.716  -1.919  -0.034  0.00  0.00    -0.017 A 
ATOM     28  C   UNL     1       2.526  -2.643  -0.035  0.00  0.00    +0.007 A 
ATOM     29  C   UNL     1       1.321  -2.011  -0.018  0.00  0.00    +0.009 A 
ATOM     30  C   UNL     1       1.272  -0.606   0.000  0.00  0.00    -0.018 A 
ATOM     31  C   UNL     1       0.047   0.082   0.017  0.00  0.00    +0.008 A 
ENDBRANCH  21  27
BRANCH  21  32
ATOM     32  O   UNL     1       4.939  -3.775  -0.933  0.00  0.00    -0.386 OA
ATOM     33  H   UNL     1       4.258  -4.415  -0.683  0.00  0.00    +0.210 HD
ENDBRANCH  21  32
ENDBRANCH  20  21
ENDBRANCH   1  20
TORSDOF 6
