REMARK  Name = ZINC65493601
REMARK  4 active torsions:
REMARK  status: ('A' for Active; 'I' for Inactive)
REMARK    1  A    between atoms: C_4  and  C_7
REMARK    2  A    between atoms: C_8  and  C_24
REMARK    3  A    between atoms: N_9  and  C_12
REMARK    4  A    between atoms: C_12  and  C_13
REMARK                            x       y       z     vdW  Elec       q    Type
REMARK                         _______ _______ _______ _____ _____    ______ ____
ROOT
ATOM      1  C   UNL     1       3.398  -0.808  -0.149  0.00  0.00    +0.062 C 
ATOM      2  C   UNL     1       3.840  -2.233   0.098  0.00  0.00    +0.113 C 
ATOM      3  N   UNL     1       5.262  -2.116   0.505  0.00  0.00    -0.271 NA
ATOM      4  C   UNL     1       5.668  -0.838  -0.128  0.00  0.00    +0.229 C 
ATOM      5  N   UNL     1       4.437  -0.052  -0.275  0.00  0.00    -0.271 NA
ENDROOT
BRANCH   1   9
ATOM      6  C   UNL     1      -0.633   0.502  -0.405  0.00  0.00    +0.000 A 
ATOM      7  C   UNL     1      -0.295  -0.774  -0.821  0.00  0.00    +0.001 A 
ATOM      8  C   UNL     1       1.012  -1.206  -0.741  0.00  0.00    +0.010 A 
ATOM      9  C   UNL     1       1.996  -0.352  -0.238  0.00  0.00    -0.003 A 
ATOM     10  C   UNL     1       1.649   0.934   0.180  0.00  0.00    +0.010 A 
ATOM     11  C   UNL     1       0.338   1.353   0.094  0.00  0.00    +0.001 A 
ENDBRANCH   1   9
BRANCH   2  12
ATOM     12  C   UNL     1       3.013  -2.862   1.221  0.00  0.00    +0.040 C 
ATOM     13  C   UNL     1       3.400  -2.248   2.588  0.00  0.00    +0.036 C 
ATOM     14  C   UNL     1       3.395  -3.490   3.515  0.00  0.00    +0.160 C 
ATOM     15  O   UNL     1       3.922  -4.539   2.675  0.00  0.00    -0.379 OA
ATOM     16  C   UNL     1       3.350  -4.358   1.366  0.00  0.00    +0.165 C 
ENDBRANCH   2  12
BRANCH   3  17
ATOM     17  C   UNL     1       6.053  -3.237  -0.018  0.00  0.00    +0.133 C 
BRANCH  17  18
ATOM     18  C   UNL     1       7.521  -3.049   0.369  0.00  0.00    +0.188 C 
ATOM     19  N   UNL     1       8.019  -1.769  -0.150  0.00  0.00    -0.362 N 
ATOM     20  C   UNL     1       8.392  -1.052   0.871  0.00  0.00    +0.060 A 
ATOM     21  C   UNL     1       8.964   0.296   0.989  0.00  0.00    +0.029 A 
ATOM     22  C   UNL     1       9.258   0.790   2.208  0.00  0.00    +0.022 A 
ATOM     23  C   UNL     1       9.039   0.063   3.393  0.00  0.00    +0.043 A 
ATOM     24  C   UNL     1       8.518  -1.182   3.397  0.00  0.00    +0.047 A 
ATOM     25  C   UNL     1       8.160  -1.821   2.124  0.00  0.00    +0.062 A 
ATOM     26  N   UNL     1       7.653  -2.986   1.830  0.00  0.00    -0.362 N 
ATOM     27 CL   UNL     1       9.454   0.797   4.910  0.00  0.00    -0.083 Cl
ATOM     28  H   UNL     1       8.063  -1.506  -1.082  0.00  0.00    +0.162 HD
ATOM     29  H   UNL     1       7.408  -3.681   2.459  0.00  0.00    +0.162 HD
ENDBRANCH  17  18
ENDBRANCH   3  17
TORSDOF 4
