REMARK  Name = ZINC66571388
REMARK  5 active torsions:
REMARK  status: ('A' for Active; 'I' for Inactive)
REMARK    1  A    between atoms: C_1  and  N_2
REMARK    2  A    between atoms: C_7  and  C_9
REMARK    3  A    between atoms: N_11  and  N_12
REMARK    4  A    between atoms: C_13  and  C_15
REMARK    5  A    between atoms: C_15  and  C_16
REMARK                            x       y       z     vdW  Elec       q    Type
REMARK                         _______ _______ _______ _____ _____    ______ ____
ROOT
ATOM      1  C   UNL     1       2.602  -2.601  -0.374  0.00  0.00    +0.276 C 
ATOM      2  O   UNL     1       2.683  -3.765  -0.721  0.00  0.00    -0.267 OA
ATOM      3  N   UNL     1       3.707  -1.936   0.015  0.00  0.00    -0.229 N 
ATOM      4  H   UNL     1       3.643  -1.009   0.292  0.00  0.00    +0.173 HD
ENDROOT
BRANCH   1  11
ATOM      5  C   UNL     1      -0.018   1.461   0.010  0.00  0.00    +0.161 C 
ATOM      6  N   UNL     1       0.002  -0.004   0.002  0.00  0.00    -0.196 N 
ATOM      7  C   UNL     1      -1.158  -0.690   0.004  0.00  0.00    +0.235 C 
ATOM      8  O   UNL     1      -2.215  -0.096   0.017  0.00  0.00    -0.274 OA
ATOM      9  C   UNL     1      -1.137  -2.197  -0.011  0.00  0.00    +0.104 C 
ATOM     10  C   UNL     1       0.073  -2.675  -0.817  0.00  0.00    +0.072 C 
ATOM     11  C   UNL     1       1.301  -1.923  -0.380  0.00  0.00    +0.123 C 
ATOM     12  N   UNL     1       1.225  -0.682  -0.013  0.00  0.00    -0.177 NA
ENDBRANCH   1  11
BRANCH   3  13
ATOM     13  N   UNL     1       4.949  -2.584   0.021  0.00  0.00    -0.234 N 
ATOM     14  C   UNL     1       6.055  -1.919   0.411  0.00  0.00    +0.229 C 
ATOM     15  O   UNL     1       5.974  -0.759   0.757  0.00  0.00    -0.274 OA
ATOM     16  H   UNL     1       5.014  -3.512  -0.256  0.00  0.00    +0.173 HD
BRANCH  14  17
ATOM     17  C   UNL     1       7.391  -2.616   0.417  0.00  0.00    +0.101 C 
BRANCH  17  18
ATOM     18  C   UNL     1       8.471  -1.645   0.897  0.00  0.00    -0.002 C 
ATOM     19  C   UNL     1       8.615  -0.503  -0.111  0.00  0.00    +0.004 C 
ATOM     20  C   UNL     1       9.695   0.469   0.370  0.00  0.00    +0.000 C 
ATOM     21  C   UNL     1      11.028  -0.272   0.495  0.00  0.00    +0.000 C 
ATOM     22  C   UNL     1      10.884  -1.414   1.503  0.00  0.00    +0.000 C 
ATOM     23  C   UNL     1       9.804  -2.385   1.022  0.00  0.00    +0.004 C 
ENDBRANCH  17  18
ENDBRANCH  14  17
ENDBRANCH   3  13
TORSDOF 4
