REMARK  Name = ZINC42027569
REMARK  5 active torsions:
REMARK  status: ('A' for Active; 'I' for Inactive)
REMARK    1  A    between atoms: C_1  and  C_2
REMARK    2  A    between atoms: C_5  and  N_9
REMARK    3  A    between atoms: C_10  and  C_14
REMARK    4  A    between atoms: C_17  and  N_21
REMARK    5  A    between atoms: C_18  and  C_20
REMARK                            x       y       z     vdW  Elec       q    Type
REMARK                         _______ _______ _______ _____ _____    ______ ____
ROOT
ATOM      1  N   UNL     1      -0.122  -4.191  -0.006  0.00  0.00    -0.190 N 
ATOM      2  C   UNL     1       0.163  -5.010   1.048  0.00  0.00    +0.187 A 
ATOM      3  N   UNL     1       0.314  -6.224   0.559  0.00  0.00    -0.108 NA
ATOM      4  N   UNL     1       0.143  -6.221  -0.714  0.00  0.00    -0.022 NA
ATOM      5  N   UNL     1      -0.129  -5.033  -1.132  0.00  0.00    -0.039 NA
ENDROOT
BRANCH   1  10
ATOM      6  C   UNL     1      -1.097   1.400   0.134  0.00  0.00    +0.044 C 
ATOM      7  C   UNL     1      -0.837  -0.084   0.096  0.00  0.00    -0.048 A 
ATOM      8  C   UNL     1      -1.608  -0.939   0.863  0.00  0.00    +0.005 A 
ATOM      9  C   UNL     1      -1.373  -2.300   0.831  0.00  0.00    +0.031 A 
ATOM     10  C   UNL     1      -0.363  -2.810   0.028  0.00  0.00    +0.105 A 
ATOM     11  C   UNL     1       0.411  -1.949  -0.742  0.00  0.00    +0.149 A 
ATOM     12  C   UNL     1       0.167  -0.588  -0.709  0.00  0.00    +0.044 A 
ATOM     13  F   UNL     1       1.396  -2.441  -1.524  0.00  0.00    -0.203 F 
ENDBRANCH   1  10
BRANCH   2  14
ATOM     14  C   UNL     1       0.282  -4.611   2.466  0.00  0.00    +0.021 A 
ATOM     15  C   UNL     1       0.498  -3.272   2.801  0.00  0.00    +0.013 A 
ATOM     16  C   UNL     1       0.608  -2.903   4.123  0.00  0.00    +0.023 A 
ATOM     17  C   UNL     1       0.504  -3.862   5.125  0.00  0.00    +0.028 A 
ATOM     18  C   UNL     1       0.289  -5.196   4.795  0.00  0.00    -0.029 A 
ATOM     19  C   UNL     1       0.173  -5.570   3.474  0.00  0.00    +0.016 A 
ATOM     20  C   UNL     1       0.176  -6.232   5.884  0.00  0.00    +0.045 C 
BRANCH  17  21
ATOM     21  N   UNL     1       0.616  -3.486   6.463  0.00  0.00    -0.358 N 
ATOM     22  H   UNL     1       0.766  -2.556   6.694  0.00  0.00    +0.142 HD
ATOM     23  H   UNL     1       0.543  -4.154   7.163  0.00  0.00    +0.142 HD
ENDBRANCH  17  21
ENDBRANCH   2  14
TORSDOF 3
