REMARK  Name = ZINC55731390
REMARK  10 active torsions:
REMARK  status: ('A' for Active; 'I' for Inactive)
REMARK    1  A    between atoms: C_1  and  C_2
REMARK    2  A    between atoms: C_7  and  C_8
REMARK    3  A    between atoms: N_10  and  C_11
REMARK    4  A    between atoms: C_11  and  C_12
REMARK    5  A    between atoms: C_11  and  C_13
REMARK    6  A    between atoms: C_11  and  C_14
REMARK    7  A    between atoms: C_14  and  C_15
REMARK    8  A    between atoms: C_15  and  C_16
REMARK    9  A    between atoms: C_15  and  C_17
REMARK   10  A    between atoms: C_15  and  C_18
REMARK                            x       y       z     vdW  Elec       q    Type
REMARK                         _______ _______ _______ _____ _____    ______ ____
ROOT
ATOM      1  C   UNL     1       3.324   0.741   1.792  0.00  0.00    +0.047 C 
ATOM      2  C   UNL     1       2.881  -0.698   1.722  0.00  0.00    -0.010 A 
ATOM      3  C   UNL     1       3.076  -1.582   0.653  0.00  0.00    +0.042 A 
ATOM      4  C   UNL     1       2.509  -2.806   1.007  0.00  0.00    +0.027 A 
ATOM      5  N   UNL     1       1.994  -2.681   2.231  0.00  0.00    -0.354 N 
ATOM      6  H   UNL     1       1.540  -3.382   2.723  0.00  0.00    +0.166 HD
ATOM      7  C   UNL     1       2.216  -1.396   2.690  0.00  0.00    +0.106 A 
ATOM      8  C   UNL     1       2.520  -4.007   0.096  0.00  0.00    +0.054 C 
ATOM      9  C   UNL     1       2.748  -3.544  -1.346  0.00  0.00    +0.014 C 
ATOM     10  C   UNL     1       3.994  -2.658  -1.439  0.00  0.00    +0.080 C 
ATOM     11  C   UNL     1       3.739  -1.385  -0.645  0.00  0.00    +0.165 C 
ATOM     12  O   UNL     1       4.058  -0.288  -1.054  0.00  0.00    -0.292 OA
ENDROOT
BRANCH   7  13
ATOM     13  C   UNL     1       1.803  -0.870   3.997  0.00  0.00    +0.261 C 
ATOM     14  O   UNL     1       2.050   0.284   4.294  0.00  0.00    -0.269 OA
ATOM     15  N   UNL     1       1.150  -1.664   4.868  0.00  0.00    -0.305 N 
ATOM     16  H   UNL     1       0.953  -2.584   4.632  0.00  0.00    +0.150 HD
BRANCH  15  17
ATOM     17  C   UNL     1       0.738  -1.138   6.172  0.00  0.00    +0.030 C 
ATOM     18  C   UNL     1       1.962  -0.598   6.914  0.00  0.00    +0.031 C 
ATOM     19  C   UNL     1      -0.275  -0.010   5.970  0.00  0.00    +0.031 C 
BRANCH  17  20
ATOM     20  C   UNL     1       0.096  -2.258   6.994  0.00  0.00    +0.031 C 
BRANCH  20  21
ATOM     21  C   UNL     1      -1.230  -2.667   6.351  0.00  0.00    -0.036 C 
ATOM     22  C   UNL     1      -1.008  -2.962   4.866  0.00  0.00    +0.010 C 
ATOM     23  C   UNL     1      -1.769  -3.920   7.044  0.00  0.00    +0.010 C 
ATOM     24  C   UNL     1      -2.241  -1.528   6.499  0.00  0.00    +0.010 C 
ENDBRANCH  20  21
ENDBRANCH  17  20
ENDBRANCH  15  17
ENDBRANCH   7  13
TORSDOF 4
