REMARK  Name = ZINC58393328
REMARK  10 active torsions:
REMARK  status: ('A' for Active; 'I' for Inactive)
REMARK    1  A    between atoms: C_1  and  C_2
REMARK    2  A    between atoms: C_3  and  C_11
REMARK    3  A    between atoms: C_4  and  N_8
REMARK    4  A    between atoms: N_5  and  C_7
REMARK    5  A    between atoms: N_8  and  C_9
REMARK    6  A    between atoms: N_8  and  C_10
REMARK    7  A    between atoms: C_11  and  N_12
REMARK    8  A    between atoms: N_12  and  C_13
REMARK    9  A    between atoms: C_13  and  C_15
REMARK   10  A    between atoms: C_13  and  C_16
REMARK                            x       y       z     vdW  Elec       q    Type
REMARK                         _______ _______ _______ _____ _____    ______ ____
ROOT
ATOM      1  N   UNL     1       1.621  -0.080  -2.867  0.00  0.00    -0.305 NA
ATOM      2  H   UNL     1       2.029   0.574  -2.216  0.00  0.00    +0.123 HD
ENDROOT
BRANCH   1   3
ATOM      3  C   UNL     1       1.767   0.394  -4.250  0.00  0.00    +0.081 C 
ATOM      4  C   UNL     1       1.552   1.908  -4.295  0.00  0.00    +0.029 C 
BRANCH   3   5
ATOM      5  C   UNL     1       3.151   0.068  -4.749  0.00  0.00    -0.030 A 
ATOM      6  C   UNL     1       4.239   0.208  -3.907  0.00  0.00    +0.007 A 
ATOM      7  C   UNL     1       5.509  -0.090  -4.361  0.00  0.00    +0.024 A 
ATOM      8  C   UNL     1       5.692  -0.531  -5.664  0.00  0.00    +0.037 A 
ATOM      9  C   UNL     1       4.598  -0.671  -6.507  0.00  0.00    -0.025 A 
ATOM     10  C   UNL     1       3.330  -0.377  -6.046  0.00  0.00    +0.010 A 
ATOM     11  C   UNL     1       4.797  -1.151  -7.921  0.00  0.00    +0.046 C 
ATOM     12  C   UNL     1       6.133  -0.633  -8.454  0.00  0.00    +0.101 C 
ATOM     13  C   UNL     1       7.223  -0.901  -7.451  0.00  0.00    +0.218 C 
ATOM     14  O   UNL     1       8.338  -1.181  -7.839  0.00  0.00    -0.275 OA
ATOM     15  N   UNL     1       6.975  -0.835  -6.130  0.00  0.00    -0.285 N 
ATOM     16  H   UNL     1       7.691  -0.999  -5.497  0.00  0.00    +0.155 HD
ENDBRANCH   3   5
ENDBRANCH   1   3
BRANCH   1  17
ATOM     17  C   UNL     1       0.211  -0.334  -2.543  0.00  0.00    +0.122 C 
BRANCH  17  20
ATOM     18  C   UNL     1      -0.012   1.495   0.033  0.00  0.00    +0.065 C 
ATOM     19  C   UNL     1       0.003  -0.011   0.018  0.00  0.00    +0.037 A 
ATOM     20  C   UNL     1       0.101  -0.817  -1.120  0.00  0.00    +0.026 A 
ATOM     21  C   UNL     1       0.080  -2.117  -0.714  0.00  0.00    +0.121 A 
ATOM     22  N   UNL     1      -0.029  -2.121   0.634  0.00  0.00    -0.276 N 
ATOM     23  N   UNL     1      -0.069  -0.789   1.067  0.00  0.00    -0.300 N 
ATOM     24  C   UNL     1      -0.088  -3.308   1.490  0.00  0.00    +0.172 C 
ATOM     25  H   UNL     1      -0.141  -0.494   1.988  0.00  0.00    +0.187 HD
BRANCH  21  26
ATOM     26  N   UNL     1       0.154  -3.237  -1.537  0.00  0.00    -0.321 N 
ATOM     27  C   UNL     1       1.457  -3.829  -1.851  0.00  0.00    +0.130 C 
ATOM     28  C   UNL     1      -1.069  -3.824  -2.088  0.00  0.00    +0.130 C 
ENDBRANCH  21  26
ENDBRANCH  17  20
ENDBRANCH   1  17
TORSDOF 5
