REMARK  Name = ZINC54999242
REMARK  9 active torsions:
REMARK  status: ('A' for Active; 'I' for Inactive)
REMARK    1  A    between atoms: C_1  and  C_2
REMARK    2  A    between atoms: C_7  and  N_10
REMARK    3  A    between atoms: N_10  and  C_11
REMARK    4  A    between atoms: C_14  and  C_19
REMARK    5  A    between atoms: C_15  and  C_17
REMARK    6  A    between atoms: C_17  and  N_18
REMARK    7  A    between atoms: C_19  and  C_20
REMARK    8  A    between atoms: C_19  and  C_21
REMARK    9  A    between atoms: C_19  and  C_22
REMARK                            x       y       z     vdW  Elec       q    Type
REMARK                         _______ _______ _______ _____ _____    ______ ____
ROOT
ATOM      1  N   UNL     1      -0.890  -2.673   1.013  0.00  0.00    -0.310 N 
ATOM      2  C   UNL     1      -1.940  -2.076   0.184  0.00  0.00    +0.131 C 
ATOM      3  C   UNL     1      -1.228  -3.531   2.048  0.00  0.00    +0.161 A 
ATOM      4  N   UNL     1      -2.426  -3.925   2.425  0.00  0.00    -0.229 NA
ATOM      5  C   UNL     1      -2.582  -4.755   3.442  0.00  0.00    +0.057 A 
ATOM      6  C   UNL     1      -1.458  -5.178   4.070  0.00  0.00    -0.003 A 
ATOM      7  S   UNL     1      -0.206  -4.329   3.122  0.00  0.00    -0.059 S 
ENDROOT
BRANCH   1  13
ATOM      8  C   UNL     1       0.106  -1.194  -2.897  0.00  0.00    +0.007 C 
ATOM      9  C   UNL     1       0.007  -2.123  -1.685  0.00  0.00    -0.012 C 
ATOM     10  C   UNL     1       0.769  -3.419  -1.973  0.00  0.00    +0.003 C 
ATOM     11  C   UNL     1       0.671  -4.348  -0.762  0.00  0.00    +0.002 C 
ATOM     12  C   UNL     1       1.280  -3.659   0.461  0.00  0.00    +0.022 C 
ATOM     13  C   UNL     1       0.517  -2.364   0.749  0.00  0.00    +0.075 C 
ATOM     14  C   UNL     1       0.616  -1.434  -0.463  0.00  0.00    +0.025 C 
ENDBRANCH   1  13
BRANCH   5  15
ATOM     15  C   UNL     1      -3.949  -5.212   3.882  0.00  0.00    +0.005 C 
ATOM     16  C   UNL     1      -5.000  -4.697   2.897  0.00  0.00    +0.017 C 
ATOM     17  C   UNL     1      -3.988  -6.741   3.919  0.00  0.00    +0.017 C 
ATOM     18  C   UNL     1      -4.245  -4.661   5.278  0.00  0.00    +0.017 C 
ENDBRANCH   5  15
BRANCH   6  19
ATOM     19  C   UNL     1      -1.307  -6.111   5.244  0.00  0.00    -0.041 C 
BRANCH  19  20
ATOM     20  N   UNL     1      -1.023  -7.467   4.757  0.00  0.00    +0.381 N 
ATOM     21  H   UNL     1      -1.037  -8.113   5.532  0.00  0.00    -0.090 HD
ATOM     22  H   UNL     1      -1.723  -7.736   4.083  0.00  0.00    -0.090 HD
ATOM     23  H   UNL     1      -0.113  -7.485   4.321  0.00  0.00    -0.090 HD
ENDBRANCH  19  20
ENDBRANCH   6  19
TORSDOF 4
