REMARK  Name = ZINC29243319
REMARK  7 active torsions:
REMARK  status: ('A' for Active; 'I' for Inactive)
REMARK    1  A    between atoms: C_1  and  C_2
REMARK    2  A    between atoms: C_2  and  C_4
REMARK    3  A    between atoms: C_2  and  N_11
REMARK    4  A    between atoms: N_9  and  C_10
REMARK    5  A    between atoms: N_14  and  C_17
REMARK    6  A    between atoms: C_18  and  C_25
REMARK    7  A    between atoms: C_20  and  C_22
REMARK                            x       y       z     vdW  Elec       q    Type
REMARK                         _______ _______ _______ _____ _____    ______ ____
ROOT
ATOM      1  N   UNL     1       2.123   0.034   1.224  0.00  0.00    +0.389 N 
ATOM      2  C   UNL     1       0.757  -0.508   1.234  0.00  0.00    -0.058 C 
ATOM      3  C   UNL     1       0.002  -0.004   0.002  0.00  0.00    +0.089 C 
ATOM      4  N   UNL     1      -0.018   1.465   0.010  0.00  0.00    -0.303 N 
ATOM      5  C   UNL     1       1.348   2.008   0.000  0.00  0.00    +0.089 C 
ATOM      6  C   UNL     1       2.103   1.504   1.232  0.00  0.00    -0.058 C 
ATOM      7  H   UNL     1       2.612  -0.294   0.295  0.00  0.00    -0.081 HD
ENDROOT
BRANCH   4   8
ATOM      8  C   UNL     1      -0.752   1.956  -1.050  0.00  0.00    +0.227 A 
ATOM      9  C   UNL     1      -0.987   3.287  -1.349  0.00  0.00    +0.201 A 
ATOM     10  N   UNL     1      -1.754   3.307  -2.476  0.00  0.00    -0.200 NA
ATOM     11  C   UNL     1      -1.984   2.083  -2.843  0.00  0.00    +0.202 A 
ATOM     12  O   UNL     1      -1.386   1.234  -1.992  0.00  0.00    -0.425 OA
BRANCH  11  13
ATOM     13  C   UNL     1      -2.800   1.677  -4.043  0.00  0.00    +0.075 C 
ATOM     14  C   UNL     1      -3.234   2.782  -5.008  0.00  0.00    +0.013 C 
ATOM     15  C   UNL     1      -4.263   2.123  -4.087  0.00  0.00    +0.013 C 
ENDBRANCH  11  13
BRANCH   9  16
ATOM     16  C   UNL     1      -0.514   4.423  -0.617  0.00  0.00    +0.124 C 
ATOM     17  N   UNL     1      -0.138   5.325  -0.037  0.00  0.00    -0.189 NA
ENDBRANCH   9  16
ENDBRANCH   4   8
BRANCH   1  19
ATOM     18  C   UNL     1       2.301   0.012   3.666  0.00  0.00    -0.004 C 
ATOM     19  C   UNL     1       2.905  -0.488   2.352  0.00  0.00    +0.017 C 
BRANCH  19  20
ATOM     20  C   UNL     1       4.330  -0.009   2.241  0.00  0.00    +0.207 C 
ATOM     21  O   UNL     1       4.661   0.698   1.313  0.00  0.00    -0.277 OA
ATOM     22  N   UNL     1       5.236  -0.366   3.172  0.00  0.00    -0.242 N 
ATOM     23  C   UNL     1       6.510   0.062   3.072  0.00  0.00    +0.306 C 
ATOM     24  O   UNL     1       6.842   0.771   2.142  0.00  0.00    -0.252 OA
ATOM     25  N   UNL     1       7.416  -0.294   4.004  0.00  0.00    -0.302 N 
ATOM     26  C   UNL     1       8.801   0.171   3.895  0.00  0.00    +0.129 C 
ATOM     27  H   UNL     1       4.936  -1.007   4.014  0.00  0.00    +0.159 HD
ATOM     28  H   UNL     1       7.116  -0.935   4.846  0.00  0.00    +0.150 HD
ENDBRANCH  19  20
ENDBRANCH   1  19
TORSDOF 5
