REMARK  Name = ZINC63159451
REMARK  6 active torsions:
REMARK  status: ('A' for Active; 'I' for Inactive)
REMARK    1  A    between atoms: C_1  and  C_2
REMARK    2  A    between atoms: C_4  and  C_12
REMARK    3  A    between atoms: N_14  and  C_15
REMARK    4  A    between atoms: C_15  and  C_16
REMARK    5  A    between atoms: C_16  and  N_17
REMARK    6  A    between atoms: C_25  and  C_27
REMARK                            x       y       z     vdW  Elec       q    Type
REMARK                         _______ _______ _______ _____ _____    ______ ____
ROOT
ATOM      1  C   UNL     1      -2.468  -0.323  -0.956  0.00  0.00    +0.243 C 
ATOM      2  O   UNL     1      -2.280   0.440  -1.885  0.00  0.00    -0.270 OA
ATOM      3  N   UNL     1      -3.651  -0.958  -0.833  0.00  0.00    -0.310 N 
ATOM      4  H   UNL     1      -3.829  -1.504  -0.052  0.00  0.00    +0.149 HD
ENDROOT
BRANCH   1   7
ATOM      5  C   UNL     1      -1.804  -2.845   0.928  0.00  0.00    +0.035 C 
ATOM      6  C   UNL     1      -1.493  -1.391   1.287  0.00  0.00    +0.112 C 
ATOM      7  C   UNL     1      -1.407  -0.551   0.031  0.00  0.00    +0.045 C 
ATOM      8  C   UNL     1      -0.126  -0.047   0.007  0.00  0.00    +0.008 A 
ATOM      9  C   UNL     1       0.560   0.799  -0.901  0.00  0.00    +0.010 A 
ATOM     10  C   UNL     1       1.846   1.142  -0.672  0.00  0.00    +0.001 A 
ATOM     11  C   UNL     1       2.558   0.692   0.451  0.00  0.00    +0.002 A 
ATOM     12  C   UNL     1       1.997  -0.116   1.377  0.00  0.00    +0.026 A 
ATOM     13  C   UNL     1       0.599  -0.539   1.204  0.00  0.00    +0.043 A 
ATOM     14  N   UNL     1      -0.177  -1.299   1.928  0.00  0.00    -0.377 N 
ATOM     15  H   UNL     1       0.076  -1.734   2.757  0.00  0.00    +0.160 HD
ENDBRANCH   1   7
BRANCH   3  16
ATOM     16  C   UNL     1      -4.666  -0.823  -1.881  0.00  0.00    +0.123 C 
BRANCH  16  17
ATOM     17  C   UNL     1      -5.904  -1.638  -1.498  0.00  0.00    +0.125 C 
BRANCH  17  18
ATOM     18  N   UNL     1      -6.919  -1.503  -2.546  0.00  0.00    -0.309 N 
ATOM     19  C   UNL     1      -7.920  -0.523  -2.611  0.00  0.00    +0.052 A 
ATOM     20  C   UNL     1      -8.209   0.530  -1.752  0.00  0.00    +0.025 A 
ATOM     21  C   UNL     1      -9.263   1.380  -2.027  0.00  0.00    +0.002 A 
ATOM     22  C   UNL     1     -10.034   1.187  -3.158  0.00  0.00    +0.002 A 
ATOM     23  C   UNL     1      -9.754   0.142  -4.018  0.00  0.00    +0.025 A 
ATOM     24  C   UNL     1      -8.696  -0.718  -3.750  0.00  0.00    +0.050 A 
ATOM     25  N   UNL     1      -8.225  -1.830  -4.461  0.00  0.00    -0.325 N 
ATOM     26  C   UNL     1      -7.074  -2.365  -3.723  0.00  0.00    +0.155 C 
ATOM     27  C   UNL     1      -7.352  -3.806  -3.290  0.00  0.00    +0.049 C 
ATOM     28  H   UNL     1      -8.589  -2.180  -5.289  0.00  0.00    +0.148 HD
ENDBRANCH  17  18
ENDBRANCH  16  17
ENDBRANCH   3  16
TORSDOF 4
