REMARK  Name = ZINC41068330
REMARK  8 active torsions:
REMARK  status: ('A' for Active; 'I' for Inactive)
REMARK    1  A    between atoms: C_1  and  C_2
REMARK    2  A    between atoms: C_2  and  C_3
REMARK    3  A    between atoms: C_2  and  N_4
REMARK    4  A    between atoms: C_7  and  N_10
REMARK    5  A    between atoms: N_10  and  C_11
REMARK    6  A    between atoms: N_10  and  S_12
REMARK    7  A    between atoms: S_12  and  C_15
REMARK    8  A    between atoms: C_17  and  N_20
REMARK                            x       y       z     vdW  Elec       q    Type
REMARK                         _______ _______ _______ _____ _____    ______ ____
ROOT
ATOM      1  N   UNL     1       3.381  -2.325  -3.872  0.00  0.00    -0.176 NA
ATOM      2  C   UNL     1       2.765  -1.914  -5.136  0.00  0.00    +0.132 C 
ENDROOT
BRANCH   1   6
ATOM      3  N   UNL     1       0.690  -0.478  -1.207  0.00  0.00    +0.381 N 
ATOM      4  C   UNL     1       2.064   0.038  -1.220  0.00  0.00    -0.077 C 
ATOM      5  C   UNL     1       2.759  -0.385  -2.516  0.00  0.00    +0.002 C 
ATOM      6  C   UNL     1       2.785  -1.914  -2.599  0.00  0.00    +0.076 C 
ATOM      7  C   UNL     1       1.352  -2.445  -2.509  0.00  0.00    +0.002 C 
ATOM      8  C   UNL     1       0.709  -1.946  -1.213  0.00  0.00    -0.077 C 
ATOM      9  H   UNL     1       0.200  -0.145  -2.023  0.00  0.00    -0.081 HD
BRANCH   3  11
ATOM     10  C   UNL     1      -0.019   1.526   0.010  0.00  0.00    -0.014 C 
ATOM     11  C   UNL     1       0.002  -0.004   0.002  0.00  0.00    -0.075 C 
ATOM     12  C   UNL     1      -1.433  -0.534   0.013  0.00  0.00    -0.014 C 
ENDBRANCH   3  11
ENDBRANCH   1   6
BRANCH   1  13
ATOM     13  S   UNL     1       4.752  -3.255  -3.883  0.00  0.00    +0.067 S 
ATOM     14  O   UNL     1       5.387  -3.027  -5.133  0.00  0.00    -0.152 OA
ATOM     15  O   UNL     1       5.407  -3.027  -2.643  0.00  0.00    -0.152 OA
BRANCH  13  16
ATOM     16  C   UNL     1       4.237  -4.941  -3.879  0.00  0.00    +0.144 A 
ATOM     17  C   UNL     1       3.986  -5.758  -4.931  0.00  0.00    +0.059 A 
ATOM     18  C   UNL     1       3.588  -7.063  -4.686  0.00  0.00    +0.034 A 
ATOM     19  C   UNL     1       3.464  -7.480  -3.399  0.00  0.00    +0.069 A 
ATOM     20  S   UNL     1       3.921  -6.015  -2.489  0.00  0.00    -0.075 S 
BRANCH  18  21
ATOM     21  N   UNL     1       3.317  -7.941  -5.753  0.00  0.00    -0.358 N 
ATOM     22  H   UNL     1       3.408  -7.633  -6.669  0.00  0.00    +0.142 HD
ATOM     23  H   UNL     1       3.040  -8.852  -5.573  0.00  0.00    +0.142 HD
ENDBRANCH  18  21
ENDBRANCH  13  16
ENDBRANCH   1  13
TORSDOF 5
