REMARK  Name = ZINC31975520
REMARK  4 active torsions:
REMARK  status: ('A' for Active; 'I' for Inactive)
REMARK    1  A    between atoms: C_3  and  N_19
REMARK    2  A    between atoms: C_6  and  C_7
REMARK    3  A    between atoms: C_8  and  C_17
REMARK    4  A    between atoms: C_17  and  N_18
REMARK                            x       y       z     vdW  Elec       q    Type
REMARK                         _______ _______ _______ _____ _____    ______ ____
ROOT
ATOM      1  C   UNL     1       0.735   1.903  -3.140  0.00  0.00    +0.091 A 
ATOM      2  C   UNL     1       0.085   1.041  -2.309  0.00  0.00    +0.034 A 
ATOM      3  N   UNL     1      -0.157  -0.098  -3.023  0.00  0.00    -0.303 N 
ATOM      4  C   UNL     1      -0.774  -1.274  -2.699  0.00  0.00    +0.113 A 
ATOM      5  C   UNL     1      -0.885  -2.265  -3.609  0.00  0.00    +0.058 A 
ATOM      6  C   UNL     1      -0.367  -2.099  -4.905  0.00  0.00    +0.025 A 
ATOM      7  C   UNL     1       0.250  -0.934  -5.240  0.00  0.00    +0.048 A 
ATOM      8  C   UNL     1       0.358   0.092  -4.279  0.00  0.00    +0.138 A 
ATOM      9  N   UNL     1       0.895   1.302  -4.330  0.00  0.00    -0.228 NA
ATOM     10 CL   UNL     1      -1.673  -3.751  -3.177  0.00  0.00    -0.082 Cl
ENDROOT
BRANCH   1  16
ATOM     11  C   UNL     1       0.355   4.125  -2.073  0.00  0.00    +0.012 A 
ATOM     12  C   UNL     1       0.787   5.394  -1.745  0.00  0.00    +0.033 A 
ATOM     13  C   UNL     1       2.043   5.823  -2.135  0.00  0.00    +0.126 A 
ATOM     14  C   UNL     1       2.875   4.981  -2.852  0.00  0.00    +0.033 A 
ATOM     15  C   UNL     1       2.456   3.708  -3.180  0.00  0.00    +0.012 A 
ATOM     16  C   UNL     1       1.192   3.271  -2.789  0.00  0.00    +0.002 A 
BRANCH  13  17
ATOM     17  N   UNL     1       2.498   7.187  -1.786  0.00  0.00    +0.056 N 
ATOM     18  O   UNL     1       3.604   7.567  -2.129  0.00  0.00    -0.126 OA
ATOM     19  O   UNL     1       1.768   7.930  -1.155  0.00  0.00    -0.126 OA
ENDBRANCH  13  17
ENDBRANCH   1  16
BRANCH   2  20
ATOM     20  C   UNL     1      -0.300   1.299  -0.875  0.00  0.00    -0.029 C 
BRANCH  20  21
ATOM     21  N   UNL     1       0.731   0.749   0.015  0.00  0.00    +0.382 N 
ATOM     22  H   UNL     1       0.450   0.937   1.061  0.00  0.00    -0.090 HD
ATOM     23  H   UNL     1       1.696   1.233  -0.198  0.00  0.00    -0.090 HD
ATOM     24  H   UNL     1       0.820  -0.335  -0.152  0.00  0.00    -0.090 HD
ENDBRANCH  20  21
ENDBRANCH   2  20
TORSDOF 4
