REMARK  Name = ZINC39763572
REMARK  8 active torsions:
REMARK  status: ('A' for Active; 'I' for Inactive)
REMARK    1  A    between atoms: C_1  and  C_2
REMARK    2  A    between atoms: C_2  and  N_3
REMARK    3  A    between atoms: C_7  and  C_9
REMARK    4  A    between atoms: C_9  and  C_11
REMARK    5  A    between atoms: C_9  and  S_12
REMARK    6  A    between atoms: S_12  and  C_13
REMARK    7  A    between atoms: C_17  and  C_22
REMARK    8  A    between atoms: N_18  and  C_19
REMARK                            x       y       z     vdW  Elec       q    Type
REMARK                         _______ _______ _______ _____ _____    ______ ____
ROOT
ATOM      1  C   UNL     1       3.859  -6.169  -5.270  0.00  0.00    +0.238 C 
ATOM      2  N   UNL     1       3.124  -6.093  -6.544  0.00  0.00    -0.237 N 
ATOM      3  N   UNL     1       3.630  -4.981  -7.229  0.00  0.00    -0.169 NA
ATOM      4  C   UNL     1       4.565  -4.384  -6.539  0.00  0.00    +0.147 C 
ATOM      5  N   UNL     1       4.790  -5.030  -5.317  0.00  0.00    -0.282 N 
ATOM      6  H   UNL     1       2.428  -6.695  -6.849  0.00  0.00    +0.171 HD
ENDROOT
BRANCH   4   7
ATOM      7  C   UNL     1       5.257  -3.241  -6.968  0.00  0.00    +0.022 C 
ATOM      8  C   UNL     1       5.018  -2.494  -8.122  0.00  0.00    +0.006 A 
ATOM      9  C   UNL     1       4.074  -2.623  -9.162  0.00  0.00    +0.010 A 
ATOM     10  C   UNL     1       4.071  -1.729 -10.184  0.00  0.00    +0.001 A 
ATOM     11  C   UNL     1       4.984  -0.674 -10.235  0.00  0.00    +0.002 A 
ATOM     12  C   UNL     1       5.918  -0.489  -9.270  0.00  0.00    +0.026 A 
ATOM     13  C   UNL     1       5.983  -1.383  -8.171  0.00  0.00    +0.043 A 
ATOM     14  N   UNL     1       6.782  -1.420  -7.122  0.00  0.00    -0.380 N 
ATOM     15  C   UNL     1       6.415  -2.559  -6.274  0.00  0.00    +0.152 C 
ATOM     16  H   UNL     1       7.497  -0.791  -6.939  0.00  0.00    +0.160 HD
ENDBRANCH   4   7
BRANCH   5  17
ATOM     17  C   UNL     1       5.760  -4.649  -4.287  0.00  0.00    +0.078 C 
ATOM     18  C   UNL     1       5.893  -5.564  -3.068  0.00  0.00    +0.024 C 
ATOM     19  C   UNL     1       5.210  -4.202  -2.930  0.00  0.00    +0.024 C 
ENDBRANCH   5  17
BRANCH   1  20
ATOM     20  S   UNL     1       2.719  -6.000  -3.869  0.00  0.00    -0.106 S 
BRANCH  20  21
ATOM     21  C   UNL     1       1.893  -4.412  -4.164  0.00  0.00    +0.133 C 
ATOM     22  C   UNL     1       1.055  -4.503  -5.441  0.00  0.00    +0.029 C 
BRANCH  21  27
ATOM     23  N   UNL     1      -0.601  -1.257  -1.531  0.00  0.00    -0.299 N 
ATOM     24  C   UNL     1      -0.203  -2.527  -1.742  0.00  0.00    +0.306 C 
ATOM     25  O   UNL     1      -0.567  -3.411  -0.991  0.00  0.00    -0.252 OA
ATOM     26  N   UNL     1       0.599  -2.818  -2.786  0.00  0.00    -0.239 N 
ATOM     27  C   UNL     1       0.997  -4.088  -2.997  0.00  0.00    +0.233 C 
ATOM     28  O   UNL     1       0.634  -4.969  -2.248  0.00  0.00    -0.274 OA
ATOM     29  H   UNL     1      -0.310  -0.552  -2.130  0.00  0.00    +0.150 HD
ATOM     30  H   UNL     1       0.889  -2.112  -3.385  0.00  0.00    +0.159 HD
BRANCH  23  32
ATOM     31  C   UNL     1      -1.772   0.559  -0.385  0.00  0.00    +0.024 C 
ATOM     32  C   UNL     1      -1.472  -0.942  -0.396  0.00  0.00    +0.102 C 
ENDBRANCH  23  32
ENDBRANCH  21  27
ENDBRANCH  20  21
ENDBRANCH   1  20
TORSDOF 6
