REMARK  Name = ZINC39918516
REMARK  8 active torsions:
REMARK  status: ('A' for Active; 'I' for Inactive)
REMARK    1  A    between atoms: C_1  and  C_2
REMARK    2  A    between atoms: C_6  and  C_8
REMARK    3  A    between atoms: C_8  and  N_9
REMARK    4  A    between atoms: C_23  and  C_27
REMARK    5  A    between atoms: C_29  and  N_35
REMARK    6  A    between atoms: C_30  and  C_31
REMARK    7  A    between atoms: C_31  and  O_33
REMARK    8  A    between atoms: O_33  and  C_34
REMARK                            x       y       z     vdW  Elec       q    Type
REMARK                         _______ _______ _______ _____ _____    ______ ____
ROOT
ATOM      1  N   UNL     1       1.283  -2.675   3.199  0.00  0.00    -0.266 N 
ATOM      2  C   UNL     1       1.855  -3.869   2.795  0.00  0.00    +0.041 A 
ATOM      3  C   UNL     1       1.298  -4.913   2.056  0.00  0.00    +0.024 A 
ATOM      4  C   UNL     1       2.109  -6.006   1.791  0.00  0.00    +0.002 A 
ATOM      5  C   UNL     1       3.415  -6.071   2.234  0.00  0.00    +0.000 A 
ATOM      6  C   UNL     1       3.982  -5.037   2.972  0.00  0.00    +0.007 A 
ATOM      7  C   UNL     1       3.181  -3.947   3.238  0.00  0.00    -0.005 A 
ATOM      8  C   UNL     1       3.448  -2.679   3.985  0.00  0.00    +0.128 C 
ATOM      9  C   UNL     1       2.147  -1.911   3.899  0.00  0.00    +0.237 C 
ATOM     10  O   UNL     1       1.922  -0.817   4.371  0.00  0.00    -0.274 OA
ATOM     11  C   UNL     1       3.792  -2.970   5.447  0.00  0.00    +0.167 C 
ATOM     12  C   UNL     1       5.253  -3.351   5.505  0.00  0.00    +0.122 C 
ATOM     13  C   UNL     1       5.652  -4.525   6.027  0.00  0.00    +0.063 C 
ATOM     14  C   UNL     1       4.721  -5.449   6.514  0.00  0.00    +0.034 C 
ATOM     15  N   UNL     1       3.430  -5.203   6.468  0.00  0.00    -0.185 NA
ATOM     16  C   UNL     1       2.935  -4.081   5.971  0.00  0.00    +0.248 C 
ATOM     17  O   UNL     1       1.728  -3.947   5.942  0.00  0.00    -0.273 OA
ATOM     18  C   UNL     1       5.207  -6.749   7.101  0.00  0.00    +0.063 C 
ATOM     19  O   UNL     1       6.147  -2.472   4.999  0.00  0.00    -0.445 OA
ATOM     20  C   UNL     1       5.806  -1.840   3.856  0.00  0.00    +0.195 C 
ATOM     21  C   UNL     1       4.553  -1.893   3.341  0.00  0.00    +0.114 C 
ENDROOT
BRANCH  20  22
ATOM     22  N   UNL     1       6.761  -1.118   3.192  0.00  0.00    -0.329 N 
ATOM     23  H   UNL     1       7.638  -0.995   3.588  0.00  0.00    +0.145 HD
ATOM     24  H   UNL     1       6.561  -0.730   2.326  0.00  0.00    +0.145 HD
ENDBRANCH  20  22
BRANCH  21  25
ATOM     25  C   UNL     1       4.279  -1.187   2.159  0.00  0.00    +0.341 C 
ATOM     26  O   UNL     1       4.214  -1.778   1.097  0.00  0.00    -0.245 OA
BRANCH  25  27
ATOM     27  O   UNL     1       4.087   0.150   2.200  0.00  0.00    -0.465 OA
ATOM     28  C   UNL     1       3.812   0.804   0.960  0.00  0.00    +0.280 C 
ENDBRANCH  25  27
ENDBRANCH  21  25
BRANCH   1  29
ATOM     29  C   UNL     1      -0.096  -2.285   2.896  0.00  0.00    +0.148 C 
BRANCH  29  35
ATOM     30  C   UNL     1       0.143   2.015   0.347  0.00  0.00    +0.044 C 
ATOM     31  C   UNL     1      -0.018   0.517   0.367  0.00  0.00    -0.050 A 
ATOM     32  C   UNL     1      -0.198  -0.174  -0.817  0.00  0.00    +0.003 A 
ATOM     33  C   UNL     1      -0.345  -1.548  -0.799  0.00  0.00    +0.001 A 
ATOM     34  C   UNL     1      -0.312  -2.232   0.403  0.00  0.00    +0.005 A 
ATOM     35  C   UNL     1      -0.132  -1.540   1.586  0.00  0.00    -0.029 A 
ATOM     36  C   UNL     1       0.020  -0.166   1.567  0.00  0.00    +0.008 A 
ENDBRANCH  29  35
ENDBRANCH   1  29
TORSDOF 5
