REMARK  Name = ZINC61681308
REMARK  6 active torsions:
REMARK  status: ('A' for Active; 'I' for Inactive)
REMARK    1  A    between atoms: C_1  and  C_2
REMARK    2  A    between atoms: C_5  and  C_9
REMARK    3  A    between atoms: C_7  and  C_8
REMARK    4  A    between atoms: C_10  and  C_16
REMARK    5  A    between atoms: N_12  and  C_15
REMARK    6  A    between atoms: C_13  and  N_14
REMARK                            x       y       z     vdW  Elec       q    Type
REMARK                         _______ _______ _______ _____ _____    ______ ____
ROOT
ATOM      1  C   UNL     1       0.061  -4.255  -0.021  0.00  0.00    +0.042 A 
ATOM      2  C   UNL     1      -0.956  -5.102  -0.505  0.00  0.00    +0.047 A 
ATOM      3  N   UNL     1      -0.571  -6.339  -0.341  0.00  0.00    -0.299 N 
ATOM      4  N   UNL     1       0.698  -6.346   0.249  0.00  0.00    -0.276 N 
ATOM      5  C   UNL     1       1.084  -5.065   0.440  0.00  0.00    +0.120 A 
ATOM      6  C   UNL     1       1.476  -7.538   0.598  0.00  0.00    +0.172 C 
ATOM      7  H   UNL     1      -1.082  -7.125  -0.589  0.00  0.00    +0.187 HD
ENDROOT
BRANCH   1  12
ATOM      8  C   UNL     1      -0.018   1.503   0.010  0.00  0.00    +0.044 C 
ATOM      9  C   UNL     1       0.002  -0.004   0.002  0.00  0.00    -0.048 A 
ATOM     10  C   UNL     1       0.006  -0.687  -1.202  0.00  0.00    +0.004 A 
ATOM     11  C   UNL     1       0.025  -2.066  -1.215  0.00  0.00    +0.009 A 
ATOM     12  C   UNL     1       0.041  -2.772  -0.013  0.00  0.00    -0.013 A 
ATOM     13  C   UNL     1       0.037  -2.079   1.196  0.00  0.00    +0.012 A 
ATOM     14  C   UNL     1       0.023  -0.699   1.198  0.00  0.00    -0.047 A 
ATOM     15  C   UNL     1       0.025   0.051   2.504  0.00  0.00    +0.044 C 
ENDBRANCH   1  12
BRANCH   2  16
ATOM     16  C   UNL     1      -2.263  -4.656  -1.108  0.00  0.00    +0.042 C 
ATOM     17  C   UNL     1      -3.425  -5.218  -0.283  0.00  0.00    +0.038 C 
ATOM     18  C   UNL     1      -4.748  -4.827  -0.947  0.00  0.00    +0.160 C 
ATOM     19  O   UNL     1      -4.770  -5.318  -2.289  0.00  0.00    -0.380 OA
ATOM     20  C   UNL     1      -3.734  -4.790  -3.120  0.00  0.00    +0.160 C 
ATOM     21  C   UNL     1      -2.370  -5.180  -2.544  0.00  0.00    +0.038 C 
ENDBRANCH   2  16
BRANCH   5  22
ATOM     22  N   UNL     1       2.283  -4.640   0.996  0.00  0.00    -0.343 N 
ATOM     23  H   UNL     1       2.465  -3.692   1.091  0.00  0.00    +0.144 HD
ATOM     24  H   UNL     1       2.939  -5.292   1.290  0.00  0.00    +0.144 HD
ENDBRANCH   5  22
TORSDOF 3
