REMARK  Name = ZINC04126672
REMARK  4 active torsions:
REMARK  status: ('A' for Active; 'I' for Inactive)
REMARK    1  A    between atoms: C_3  and  C_6
REMARK    2  A    between atoms: C_9  and  C_20
REMARK    3  A    between atoms: C_15  and  N_19
REMARK    4  A    between atoms: C_16  and  C_17
REMARK                            x       y       z     vdW  Elec       q    Type
REMARK                         _______ _______ _______ _____ _____    ______ ____
ROOT
ATOM      1  C   UNL     1       3.421  -0.417   3.742  0.00  0.00    +0.108 C 
ATOM      2  C   UNL     1       4.260   0.434   2.824  0.00  0.00    +0.050 A 
ATOM      3  C   UNL     1       4.159   1.791   2.546  0.00  0.00    +0.077 A 
ATOM      4  N   UNL     1       5.102   2.102   1.689  0.00  0.00    -0.175 NA
ATOM      5  N   UNL     1       5.835   0.942   1.395  0.00  0.00    -0.246 N 
ATOM      6  H   UNL     1       6.591   0.882   0.791  0.00  0.00    +0.192 HD
ATOM      7  C   UNL     1       5.304  -0.070   2.100  0.00  0.00    +0.223 A 
ATOM      8  O   UNL     1       5.665  -1.376   2.147  0.00  0.00    -0.423 OA
ATOM      9  C   UNL     1       4.803  -2.242   2.718  0.00  0.00    +0.200 C 
ATOM     10  C   UNL     1       3.742  -1.865   3.467  0.00  0.00    +0.099 C 
ENDROOT
BRANCH   3  11
ATOM     11  C   UNL     1       3.143   2.740   3.127  0.00  0.00    +0.016 C 
ATOM     12  C   UNL     1       3.245   4.093   2.420  0.00  0.00    +0.016 C 
ATOM     13  C   UNL     1       2.213   5.056   3.011  0.00  0.00    -0.010 C 
ATOM     14  C   UNL     1       2.484   5.240   4.505  0.00  0.00    +0.007 C 
ATOM     15  C   UNL     1       2.381   3.887   5.212  0.00  0.00    -0.010 C 
ATOM     16  C   UNL     1       3.413   2.924   4.622  0.00  0.00    +0.016 C 
ATOM     17  C   UNL     1       0.977   3.314   5.015  0.00  0.00    +0.007 C 
ATOM     18  C   UNL     1       0.706   3.130   3.521  0.00  0.00    -0.010 C 
ATOM     19  C   UNL     1       0.809   4.483   2.813  0.00  0.00    +0.007 C 
ATOM     20  C   UNL     1       1.738   2.166   2.930  0.00  0.00    +0.016 C 
ENDBRANCH   3  11
BRANCH   1  23
ATOM     21  C   UNL     1       3.424   0.428   7.456  0.00  0.00    +0.008 A 
ATOM     22  C   UNL     1       2.897   0.141   6.211  0.00  0.00    +0.012 A 
ATOM     23  C   UNL     1       3.743  -0.088   5.177  0.00  0.00    +0.003 A 
ATOM     24  S   UNL     1       5.338   0.102   5.956  0.00  0.00    -0.101 S 
ATOM     25  C   UNL     1       4.770   0.473   7.607  0.00  0.00    +0.045 A 
ENDBRANCH   1  23
BRANCH   9  26
ATOM     26  N   UNL     1       5.014  -3.585   2.528  0.00  0.00    -0.328 N 
ATOM     27  H   UNL     1       5.767  -3.887   1.996  0.00  0.00    +0.145 HD
ATOM     28  H   UNL     1       4.411  -4.232   2.926  0.00  0.00    +0.145 HD
ENDBRANCH   9  26
BRANCH  10  29
ATOM     29  C   UNL     1       2.892  -2.876   4.020  0.00  0.00    +0.101 C 
ATOM     30  N   UNL     1       2.217  -3.679   4.458  0.00  0.00    -0.191 NA
ENDBRANCH  10  29
TORSDOF 4
