REMARK  Name = ZINC42868222
REMARK  4 active torsions:
REMARK  status: ('A' for Active; 'I' for Inactive)
REMARK    1  A    between atoms: C_1  and  C_2
REMARK    2  A    between atoms: C_8  and  C_10
REMARK    3  A    between atoms: C_10  and  N_11
REMARK    4  A    between atoms: C_12  and  C_14
REMARK                            x       y       z     vdW  Elec       q    Type
REMARK                         _______ _______ _______ _____ _____    ______ ____
ROOT
ATOM      1  N   UNL     1       0.663  -0.600   3.684  0.00  0.00    -0.316 N 
ATOM      2  C   UNL     1       0.197  -0.304   4.914  0.00  0.00    +0.199 C 
ATOM      3  O   UNL     1      -0.750   0.444   5.040  0.00  0.00    -0.278 OA
ATOM      4  H   UNL     1       1.420  -1.198   3.583  0.00  0.00    +0.149 HD
ENDROOT
BRANCH   2   5
ATOM      5  C   UNL     1       0.852  -0.903   6.132  0.00  0.00    +0.017 C 
ATOM      6  C   UNL     1       0.730  -2.439   6.092  0.00  0.00    -0.005 C 
ATOM      7  C   UNL     1      -0.086  -2.807   7.364  0.00  0.00    -0.026 C 
ATOM      8  C   UNL     1      -1.556  -2.857   6.942  0.00  0.00    +0.002 C 
ATOM      9  C   UNL     1      -2.472  -2.821   8.163  0.00  0.00    +0.000 C 
ATOM     10  C   UNL     1      -2.249  -1.497   8.902  0.00  0.00    -0.002 C 
ATOM     11  C   UNL     1      -0.806  -1.466   9.407  0.00  0.00    -0.015 C 
ATOM     12  C   UNL     1       0.192  -1.598   8.275  0.00  0.00    -0.068 C 
ATOM     13  N   UNL     1       0.159  -0.439   7.358  0.00  0.00    +0.389 N 
ATOM     14  H   UNL     1       0.649   0.346   7.762  0.00  0.00    -0.084 HD
ATOM     15  H   UNL     1      -0.795  -0.186   7.147  0.00  0.00    -0.084 HD
ENDBRANCH   2   5
BRANCH   1  16
ATOM     16  C   UNL     1       0.026  -0.018   2.500  0.00  0.00    +0.108 C 
BRANCH  16  23
ATOM     17  C   UNL     1      -0.019   1.526   0.010  0.00  0.00    +0.008 C 
ATOM     18  C   UNL     1       0.002  -0.004   0.002  0.00  0.00    -0.010 C 
ATOM     19  C   UNL     1       0.718  -0.497  -1.257  0.00  0.00    +0.003 C 
ATOM     20  C   UNL     1       2.154   0.032  -1.268  0.00  0.00    +0.000 C 
ATOM     21  C   UNL     1       2.894  -0.475  -0.028  0.00  0.00    +0.000 C 
ATOM     22  C   UNL     1       2.178   0.019   1.231  0.00  0.00    +0.005 C 
ATOM     23  C   UNL     1       0.742  -0.511   1.242  0.00  0.00    +0.009 C 
ENDBRANCH  16  23
ENDBRANCH   1  16
TORSDOF 3
