REMARK  Name = ZINC35367790
REMARK  4 active torsions:
REMARK  status: ('A' for Active; 'I' for Inactive)
REMARK    1  A    between atoms: C_1  and  C_2
REMARK    2  A    between atoms: C_2  and  C_4
REMARK    3  A    between atoms: C_2  and  N_10
REMARK    4  A    between atoms: N_13  and  C_16
REMARK                            x       y       z     vdW  Elec       q    Type
REMARK                         _______ _______ _______ _____ _____    ______ ____
ROOT
ATOM      1  N   UNL     1       0.724  -0.616   1.019  0.00  0.00    -0.289 NA
ATOM      2  C   UNL     1       0.930  -2.051   0.784  0.00  0.00    +0.104 C 
ATOM      3  C   UNL     1       1.891  -2.606   1.840  0.00  0.00    +0.120 C 
ATOM      4  N   UNL     1       1.369  -2.263   3.172  0.00  0.00    -0.326 N 
ATOM      5  C   UNL     1       1.010  -0.862   3.439  0.00  0.00    +0.120 C 
ATOM      6  C   UNL     1       0.084  -0.376   2.320  0.00  0.00    +0.104 C 
ENDROOT
BRANCH   4   7
ATOM      7  C   UNL     1       1.219  -3.245   4.160  0.00  0.00    +0.046 A 
ATOM      8  C   UNL     1       1.651  -4.550   3.929  0.00  0.00    +0.028 A 
ATOM      9  C   UNL     1       1.482  -5.487   4.932  0.00  0.00    +0.043 A 
ATOM     10  C   UNL     1       0.892  -5.098   6.130  0.00  0.00    +0.094 A 
ATOM     11  N   UNL     1       0.494  -3.850   6.314  0.00  0.00    -0.348 N 
ATOM     12  C   UNL     1       0.644  -2.929   5.381  0.00  0.00    +0.107 A 
ATOM     13  N   UNL     1       0.718  -6.034   7.147  0.00  0.00    -0.345 N 
ATOM     14  H   UNL     1       1.007  -6.950   7.018  0.00  0.00    +0.144 HD
ATOM     15  H   UNL     1       0.307  -5.769   7.985  0.00  0.00    +0.144 HD
ATOM     16  H   UNL     1       0.084  -3.604   7.159  0.00  0.00    +0.167 HD
ENDBRANCH   4   7
BRANCH   1  18
ATOM     17  C   UNL     1      -1.524  -0.403   0.072  0.00  0.00    +0.034 C 
ATOM     18  C   UNL     1      -0.053  -0.009  -0.070  0.00  0.00    +0.140 C 
BRANCH  18  19
ATOM     19  C   UNL     1       0.075   1.491  -0.003  0.00  0.00    +0.237 C 
ATOM     20  O   UNL     1       0.592   2.013   0.961  0.00  0.00    -0.274 OA
ATOM     21  N   UNL     1      -0.386   2.252  -1.016  0.00  0.00    -0.239 N 
ATOM     22  C   UNL     1      -0.272   3.594  -0.956  0.00  0.00    +0.303 C 
ATOM     23  O   UNL     1       0.246   4.117   0.011  0.00  0.00    -0.253 OA
ATOM     24  N   UNL     1      -0.732   4.355  -1.968  0.00  0.00    -0.313 N 
ATOM     25  H   UNL     1      -0.799   1.834  -1.787  0.00  0.00    +0.159 HD
ATOM     26  H   UNL     1      -1.145   3.937  -2.740  0.00  0.00    +0.146 HD
ATOM     27  H   UNL     1      -0.650   5.321  -1.925  0.00  0.00    +0.146 HD
ENDBRANCH  18  19
ENDBRANCH   1  18
TORSDOF 3
