REMARK  Name = ZINC09111147
REMARK  4 active torsions:
REMARK  status: ('A' for Active; 'I' for Inactive)
REMARK    1  A    between atoms: C_4  and  N_7
REMARK    2  A    between atoms: C_8  and  C_18
REMARK    3  A    between atoms: C_13  and  C_16
REMARK    4  A    between atoms: C_21  and  C_23
REMARK                            x       y       z     vdW  Elec       q    Type
REMARK                         _______ _______ _______ _____ _____    ______ ____
ROOT
ATOM      1  N   UNL     1       3.621  -0.650  -0.036  0.00  0.00    -0.267 N 
ATOM      2  C   UNL     1       3.661  -2.113   0.059  0.00  0.00    +0.234 C 
ATOM      3  N   UNL     1       4.681  -2.518   1.028  0.00  0.00    -0.286 N 
ATOM      4  C   UNL     1       5.783  -1.766   1.219  0.00  0.00    +0.258 C 
ATOM      5  O   UNL     1       6.647  -2.131   1.995  0.00  0.00    -0.269 OA
ATOM      6  C   UNL     1       5.936  -0.506   0.486  0.00  0.00    +0.142 C 
ATOM      7  C   UNL     1       4.803   0.039  -0.148  0.00  0.00    +0.103 C 
ATOM      8  S   UNL     1       4.896   1.551  -1.047  0.00  0.00    -0.033 SA
ATOM      9  H   UNL     1       4.562  -3.334   1.538  0.00  0.00    +0.151 HD
ENDROOT
BRANCH   1  13
ATOM     10  C   UNL     1      -0.017   1.378   0.011  0.00  0.00    +0.000 A 
ATOM     11  C   UNL     1       0.299   0.552  -1.052  0.00  0.00    +0.002 A 
ATOM     12  C   UNL     1       1.504  -0.121  -1.071  0.00  0.00    +0.023 A 
ATOM     13  C   UNL     1       2.400   0.031  -0.021  0.00  0.00    +0.036 A 
ATOM     14  C   UNL     1       2.079   0.861   1.046  0.00  0.00    +0.023 A 
ATOM     15  C   UNL     1       0.872   1.532   1.058  0.00  0.00    +0.002 A 
ENDBRANCH   1  13
BRANCH   2  16
ATOM     16  C   UNL     1       3.994  -2.695  -1.290  0.00  0.00    +0.144 A 
ATOM     17  C   UNL     1       4.650  -3.852  -1.507  0.00  0.00    +0.049 A 
ATOM     18  C   UNL     1       4.747  -4.016  -2.903  0.00  0.00    +0.050 A 
ATOM     19  C   UNL     1       4.138  -2.939  -3.468  0.00  0.00    +0.135 A 
ATOM     20  O   UNL     1       3.682  -2.149  -2.477  0.00  0.00    -0.456 OA
BRANCH  19  21
ATOM     21  C   UNL     1       3.998  -2.683  -4.916  0.00  0.00    +0.019 A 
ATOM     22  C   UNL     1       4.510  -3.595  -5.842  0.00  0.00    +0.013 A 
ATOM     23  C   UNL     1       4.375  -3.351  -7.193  0.00  0.00    +0.022 A 
ATOM     24  C   UNL     1       3.734  -2.205  -7.632  0.00  0.00    +0.059 A 
ATOM     25  C   UNL     1       3.223  -1.296  -6.719  0.00  0.00    +0.060 A 
ATOM     26  C   UNL     1       3.347  -1.533  -5.364  0.00  0.00    +0.033 A 
ATOM     27 CL   UNL     1       2.421   0.138  -7.279  0.00  0.00    -0.082 Cl
ATOM     28 CL   UNL     1       3.569  -1.905  -9.334  0.00  0.00    -0.082 Cl
ENDBRANCH  19  21
ENDBRANCH   2  16
BRANCH   6  29
ATOM     29  C   UNL     1       7.205   0.152   0.413  0.00  0.00    +0.107 C 
ATOM     30  N   UNL     1       8.213   0.674   0.355  0.00  0.00    -0.191 NA
ENDBRANCH   6  29
TORSDOF 4
