REMARK  Name = ZINC36787163
REMARK  12 active torsions:
REMARK  status: ('A' for Active; 'I' for Inactive)
REMARK    1  A    between atoms: C_1  and  C_2
REMARK    2  A    between atoms: C_2  and  C_4
REMARK    3  A    between atoms: C_2  and  N_7
REMARK    4  A    between atoms: C_4  and  C_5
REMARK    5  A    between atoms: C_4  and  C_6
REMARK    6  A    between atoms: N_7  and  C_8
REMARK    7  A    between atoms: N_7  and  C_9
REMARK    8  A    between atoms: C_12  and  C_19
REMARK    9  A    between atoms: C_16  and  N_18
REMARK   10  A    between atoms: C_19  and  C_20
REMARK   11  A    between atoms: C_19  and  C_21
REMARK   12  A    between atoms: C_19  and  C_22
REMARK                            x       y       z     vdW  Elec       q    Type
REMARK                         _______ _______ _______ _____ _____    ______ ____
ROOT
ATOM      1  C   UNL     1      -0.047  -2.320   1.569  0.00  0.00    -0.083 C 
ATOM      2  C   UNL     1      -1.199  -2.798   0.683  0.00  0.00    -0.013 C 
ATOM      3  C   UNL     1      -1.326  -4.319   0.787  0.00  0.00    -0.007 C 
ATOM      4  C   UNL     1      -1.603  -4.710   2.240  0.00  0.00    +0.002 C 
ATOM      5  C   UNL     1      -0.451  -4.232   3.126  0.00  0.00    -0.018 C 
ATOM      6  C   UNL     1      -0.325  -2.711   3.022  0.00  0.00    -0.089 C 
ENDROOT
BRANCH   6   7
ATOM      7  N   UNL     1      -1.577  -2.084   3.467  0.00  0.00    +0.379 N 
ATOM      8  H   UNL     1      -2.337  -2.399   2.883  0.00  0.00    -0.090 HD
ATOM      9  H   UNL     1      -1.760  -2.342   4.425  0.00  0.00    -0.090 HD
ATOM     10  H   UNL     1      -1.493  -1.081   3.399  0.00  0.00    -0.090 HD
ENDBRANCH   6   7
BRANCH   3  11
ATOM     11  C   UNL     1      -2.478  -4.796  -0.099  0.00  0.00    -0.035 C 
ATOM     12  C   UNL     1      -2.200  -4.406  -1.552  0.00  0.00    +0.011 C 
ATOM     13  C   UNL     1      -2.604  -6.318   0.005  0.00  0.00    +0.011 C 
ATOM     14  C   UNL     1      -3.782  -4.144   0.365  0.00  0.00    +0.011 C 
ENDBRANCH   3  11
BRANCH   1  15
ATOM     15  N   UNL     1       0.074  -0.859   1.470  0.00  0.00    +0.381 N 
ATOM     16  C   UNL     1       1.254  -0.414   2.222  0.00  0.00    -0.095 C 
ATOM     17  H   UNL     1      -0.752  -0.426   1.853  0.00  0.00    -0.082 HD
BRANCH  15  19
ATOM     18  C   UNL     1       1.434  -1.185  -0.541  0.00  0.00    -0.013 C 
ATOM     19  C   UNL     1       0.219  -0.475   0.059  0.00  0.00    -0.069 C 
BRANCH  19  20
ATOM     20  C   UNL     1       0.413   1.039  -0.040  0.00  0.00    -0.031 C 
ATOM     21  C   UNL     1       1.887   1.381   0.190  0.00  0.00    +0.005 C 
ATOM     22  C   UNL     1      -0.010   1.518  -1.429  0.00  0.00    +0.005 C 
ENDBRANCH  19  20
ENDBRANCH  15  19
ENDBRANCH   1  15
TORSDOF 5
