REMARK  Name = ZINC64479970
REMARK  7 active torsions:
REMARK  status: ('A' for Active; 'I' for Inactive)
REMARK    1  A    between atoms: C_1  and  C_2
REMARK    2  A    between atoms: C_2  and  C_4
REMARK    3  A    between atoms: C_2  and  N_14
REMARK    4  A    between atoms: C_4  and  C_5
REMARK    5  A    between atoms: C_15  and  C_17
REMARK    6  A    between atoms: C_17  and  N_18
REMARK    7  A    between atoms: C_19  and  O_30
REMARK                            x       y       z     vdW  Elec       q    Type
REMARK                         _______ _______ _______ _____ _____    ______ ____
ROOT
ATOM      1  N   UNL     1      -1.372  -0.511   0.012  0.00  0.00    -0.311 N 
ATOM      2  C   UNL     1      -2.051  -0.643  -1.145  0.00  0.00    +0.231 C 
ATOM      3  O   UNL     1      -1.524  -0.341  -2.194  0.00  0.00    -0.274 OA
ATOM      4  H   UNL     1      -1.794  -0.752   0.852  0.00  0.00    +0.149 HD
ENDROOT
BRANCH   1   6
ATOM      5  C   UNL     1      -0.019   1.526   0.010  0.00  0.00    +0.028 C 
ATOM      6  C   UNL     1       0.002  -0.004   0.002  0.00  0.00    +0.074 C 
BRANCH   6   7
ATOM      7  C   UNL     1       0.742  -0.511   1.242  0.00  0.00    +0.055 C 
BRANCH   7   8
ATOM      8  C   UNL     1       0.870  -2.011   1.172  0.00  0.00    -0.040 C 
ATOM      9  C   UNL     1       1.925  -2.716   0.704  0.00  0.00    -0.001 A 
ATOM     10  C   UNL     1       3.219  -2.313   0.141  0.00  0.00    +0.010 A 
ATOM     11  C   UNL     1       4.091  -3.271  -0.250  0.00  0.00    +0.001 A 
ATOM     12  C   UNL     1       3.790  -4.635  -0.131  0.00  0.00    +0.002 A 
ATOM     13  C   UNL     1       2.622  -5.082   0.377  0.00  0.00    +0.026 A 
ATOM     14  C   UNL     1       1.632  -4.163   0.820  0.00  0.00    +0.043 A 
ATOM     15  N   UNL     1       0.442  -4.344   1.339  0.00  0.00    -0.380 N 
ATOM     16  C   UNL     1      -0.153  -3.032   1.617  0.00  0.00    +0.144 C 
ATOM     17  H   UNL     1       0.025  -5.203   1.513  0.00  0.00    +0.160 HD
ENDBRANCH   7   8
ENDBRANCH   6   7
ENDBRANCH   1   6
BRANCH   2  18
ATOM     18  C   UNL     1      -3.465  -1.164  -1.134  0.00  0.00    +0.207 C 
BRANCH  18  19
ATOM     19  N   UNL     1      -3.978  -1.213  -2.505  0.00  0.00    -0.248 N 
ATOM     20  C   UNL     1      -4.662  -0.044  -3.058  0.00  0.00    +0.300 C 
ATOM     21  N   UNL     1      -5.681  -0.463  -4.028  0.00  0.00    -0.303 N 
ATOM     22  C   UNL     1      -5.352  -1.446  -4.955  0.00  0.00    +0.042 A 
ATOM     23  C   UNL     1      -5.932  -1.492  -6.210  0.00  0.00    +0.024 A 
ATOM     24  C   UNL     1      -5.566  -2.489  -7.095  0.00  0.00    +0.002 A 
ATOM     25  C   UNL     1      -4.625  -3.440  -6.736  0.00  0.00    +0.001 A 
ATOM     26  C   UNL     1      -4.038  -3.409  -5.487  0.00  0.00    +0.015 A 
ATOM     27  C   UNL     1      -4.399  -2.411  -4.585  0.00  0.00    +0.058 A 
ATOM     28  C   UNL     1      -3.805  -2.333  -3.237  0.00  0.00    +0.252 C 
ATOM     29  O   UNL     1      -3.171  -3.269  -2.789  0.00  0.00    -0.270 OA
ATOM     30  H   UNL     1      -6.565  -0.062  -4.023  0.00  0.00    +0.150 HD
BRANCH  20  31
ATOM     31  O   UNL     1      -3.709   0.797  -3.711  0.00  0.00    -0.359 OA
ATOM     32  H   UNL     1      -4.092   1.594  -4.102  0.00  0.00    +0.213 HD
ENDBRANCH  20  31
ENDBRANCH  18  19
ENDBRANCH   2  18
TORSDOF 6
