REMARK  Name = ZINC13501213
REMARK  9 active torsions:
REMARK  status: ('A' for Active; 'I' for Inactive)
REMARK    1  A    between atoms: C_1  and  C_2
REMARK    2  A    between atoms: C_2  and  C_3
REMARK    3  A    between atoms: C_3  and  C_5
REMARK    4  A    between atoms: C_3  and  N_70
REMARK    5  A    between atoms: N_9  and  C_10
REMARK    6  A    between atoms: C_10  and  C_11
REMARK    7  A    between atoms: C_17  and  C_18
REMARK    8  A    between atoms: C_17  and  N_70
REMARK    9  A    between atoms: C_33  and  N_70
REMARK                            x       y       z     vdW  Elec       q    Type
REMARK                         _______ _______ _______ _____ _____    ______ ____
ROOT
ATOM      1  N   UNL     1      -1.600   3.710   2.659  0.00  0.00    +0.391 N 
ATOM      2  H   UNL     1      -1.645   4.684   2.335  0.00  0.00    -0.080 HD
ENDROOT
BRANCH   1   3
ATOM      3  C   UNL     1      -0.856   2.908   1.665  0.00  0.00    -0.067 C 
ATOM      4  C   UNL     1       0.479   3.598   1.374  0.00  0.00    -0.015 C 
ATOM      5  C   UNL     1       1.253   2.791   0.330  0.00  0.00    -0.002 C 
ATOM      6  C   UNL     1       1.513   1.381   0.864  0.00  0.00    -0.000 C 
ATOM      7  C   UNL     1       0.178   0.692   1.155  0.00  0.00    -0.002 C 
ATOM      8  C   UNL     1      -0.596   1.498   2.199  0.00  0.00    -0.015 C 
ENDBRANCH   1   3
BRANCH   1   9
ATOM      9  C   UNL     1      -0.905   3.669   3.963  0.00  0.00    +0.003 C 
BRANCH   9  10
ATOM     10  C   UNL     1      -1.147   2.349   4.648  0.00  0.00    +0.138 A 
ATOM     11  N   UNL     1      -2.294   1.724   4.761  0.00  0.00    -0.115 NA
ATOM     12  N   UNL     1      -2.089   0.630   5.409  0.00  0.00    -0.023 NA
ATOM     13  N   UNL     1      -0.842   0.544   5.721  0.00  0.00    -0.044 NA
ATOM     14  N   UNL     1      -0.229   1.586   5.269  0.00  0.00    -0.228 N 
BRANCH  14  15
ATOM     15  C   UNL     1       1.200   1.881   5.405  0.00  0.00    +0.178 C 
BRANCH  15  16
ATOM     16  C   UNL     1       1.435   2.676   6.691  0.00  0.00    +0.140 C 
ATOM     17  C   UNL     1       2.920   3.091   6.786  0.00  0.00    +0.035 C 
ATOM     18  C   UNL     1       3.219   2.903   8.298  0.00  0.00    +0.031 C 
ATOM     19  C   UNL     1       2.324   1.680   8.625  0.00  0.00    +0.160 C 
ATOM     20  O   UNL     1       1.142   1.857   7.829  0.00  0.00    -0.375 OA
ENDBRANCH  15  16
ENDBRANCH  14  15
ENDBRANCH   9  10
BRANCH   9  22
ATOM     21  C   UNL     1      -1.076   6.150   4.208  0.00  0.00    +0.002 C 
ATOM     22  C   UNL     1      -1.439   4.804   4.839  0.00  0.00    -0.011 C 
ENDBRANCH   9  22
ENDBRANCH   1   9
BRANCH   1  23
ATOM     23  C   UNL     1      -2.975   3.187   2.802  0.00  0.00    -0.036 C 
BRANCH  23  24
ATOM     24  C   UNL     1      -3.796   3.663   1.632  0.00  0.00    +0.001 A 
ATOM     25  C   UNL     1      -3.988   2.846   0.564  0.00  0.00    +0.017 A 
ATOM     26  C   UNL     1      -4.791   3.336  -0.555  0.00  0.00    +0.002 A 
ATOM     27  C   UNL     1      -5.024   2.537  -1.682  0.00  0.00    +0.059 A 
ATOM     28  C   UNL     1      -5.784   3.026  -2.721  0.00  0.00    +0.167 A 
ATOM     29  C   UNL     1      -6.325   4.316  -2.654  0.00  0.00    +0.168 A 
ATOM     30  C   UNL     1      -6.100   5.112  -1.545  0.00  0.00    +0.075 A 
ATOM     31  C   UNL     1      -5.335   4.634  -0.489  0.00  0.00    +0.053 A 
ATOM     32  N   UNL     1      -5.102   5.414   0.626  0.00  0.00    -0.322 N 
ATOM     33  H   UNL     1      -5.477   6.307   0.671  0.00  0.00    +0.169 HD
ATOM     34  C   UNL     1      -4.368   4.951   1.652  0.00  0.00    +0.251 A 
ATOM     35  O   UNL     1      -4.187   5.666   2.623  0.00  0.00    -0.268 OA
ATOM     36  O   UNL     1      -7.028   4.551  -3.799  0.00  0.00    -0.453 OA
ATOM     37  C   UNL     1      -7.259   3.255  -4.382  0.00  0.00    +0.466 C 
ATOM     38  O   UNL     1      -6.155   2.462  -3.909  0.00  0.00    -0.453 OA
ENDBRANCH  23  24
ENDBRANCH   1  23
TORSDOF 8
