REMARK  Name = ZINC48846790
REMARK  6 active torsions:
REMARK  status: ('A' for Active; 'I' for Inactive)
REMARK    1  A    between atoms: C_1  and  C_2
REMARK    2  A    between atoms: C_2  and  C_3
REMARK    3  A    between atoms: C_2  and  C_11
REMARK    4  A    between atoms: C_2  and  N_14
REMARK    5  A    between atoms: N_14  and  C_15
REMARK    6  A    between atoms: C_21  and  N_23
REMARK                            x       y       z     vdW  Elec       q    Type
REMARK                         _______ _______ _______ _____ _____    ______ ____
ROOT
ATOM      1  C   UNL     1       0.793   0.484  -0.904  0.00  0.00    +0.007 C 
ATOM      2  C   UNL     1       0.012  -0.744  -0.434  0.00  0.00    +0.064 C 
ENDROOT
BRANCH   2   3
ATOM      3  C   UNL     1       0.583  -1.233   0.872  0.00  0.00    +0.022 A 
ATOM      4  C   UNL     1       0.573  -2.585   1.170  0.00  0.00    +0.128 A 
ATOM      5  C   UNL     1       1.097  -3.033   2.370  0.00  0.00    +0.039 A 
ATOM      6  C   UNL     1       1.631  -2.131   3.271  0.00  0.00    +0.006 A 
ATOM      7  C   UNL     1       1.642  -0.781   2.975  0.00  0.00    +0.039 A 
ATOM      8  C   UNL     1       1.123  -0.331   1.772  0.00  0.00    +0.128 A 
ATOM      9  F   UNL     1       1.139   0.988   1.480  0.00  0.00    -0.205 F 
ATOM     10  F   UNL     1       0.050  -3.467   0.289  0.00  0.00    -0.205 F 
ENDBRANCH   2   3
BRANCH   2  11
ATOM     11  C   UNL     1       0.120  -1.834  -1.469  0.00  0.00    +0.350 C 
ATOM     12  O   UNL     1       1.216  -2.200  -1.857  0.00  0.00    -0.248 OA
ATOM     13  O   UNL     1      -0.889  -2.351  -1.918  0.00  0.00    -0.248 OA
ENDBRANCH   2  11
BRANCH   2  14
ATOM     14  N   UNL     1      -1.400  -0.385  -0.247  0.00  0.00    +0.393 N 
ATOM     15  H   UNL     1      -1.920  -1.201   0.037  0.00  0.00    -0.084 HD
ATOM     16  H   UNL     1      -1.475   0.327   0.464  0.00  0.00    -0.084 HD
BRANCH  14  17
ATOM     17  C   UNL     1      -1.946   0.128  -1.511  0.00  0.00    -0.085 C 
ATOM     18  C   UNL     1      -1.861   1.655  -1.522  0.00  0.00    -0.017 C 
ATOM     19  C   UNL     1      -2.670   2.219  -0.351  0.00  0.00    -0.002 C 
ATOM     20  C   UNL     1      -4.131   1.789  -0.486  0.00  0.00    -0.002 C 
ATOM     21  C   UNL     1      -4.216   0.261  -0.476  0.00  0.00    -0.018 C 
ATOM     22  C   UNL     1      -3.408  -0.303  -1.647  0.00  0.00    -0.090 C 
BRANCH  22  23
ATOM     23  N   UNL     1      -3.490  -1.769  -1.637  0.00  0.00    +0.379 N 
ATOM     24  H   UNL     1      -3.115  -2.121  -0.769  0.00  0.00    -0.090 HD
ATOM     25  H   UNL     1      -4.454  -2.053  -1.726  0.00  0.00    -0.090 HD
ATOM     26  H   UNL     1      -2.957  -2.141  -2.409  0.00  0.00    -0.090 HD
ENDBRANCH  22  23
ENDBRANCH  14  17
ENDBRANCH   2  14
TORSDOF 5
