REMARK  Name = ZINC46171860
REMARK  6 active torsions:
REMARK  status: ('A' for Active; 'I' for Inactive)
REMARK    1  A    between atoms: C_1  and  C_2
REMARK    2  A    between atoms: C_2  and  N_3
REMARK    3  A    between atoms: C_7  and  C_9
REMARK    4  A    between atoms: C_9  and  C_11
REMARK    5  A    between atoms: C_9  and  N_12
REMARK    6  A    between atoms: C_15  and  C_18
REMARK                            x       y       z     vdW  Elec       q    Type
REMARK                         _______ _______ _______ _____ _____    ______ ____
ROOT
ATOM      1  N   UNL     1      -4.534  -5.617  -0.130  0.00  0.00    +0.387 N 
ATOM      2  C   UNL     1      -3.843  -6.198   1.027  0.00  0.00    -0.077 C 
ATOM      3  C   UNL     1      -3.747  -7.716   0.859  0.00  0.00    -0.006 C 
ATOM      4  C   UNL     1      -5.158  -8.303   0.758  0.00  0.00    +0.072 C 
ATOM      5  C   UNL     1      -5.896  -7.635  -0.406  0.00  0.00    -0.006 C 
ATOM      6  C   UNL     1      -5.912  -6.120  -0.192  0.00  0.00    -0.077 C 
ATOM      7  H   UNL     1      -4.045  -5.873  -0.975  0.00  0.00    -0.081 HD
ENDROOT
BRANCH   4   8
ATOM      8  C   UNL     1      -5.071  -9.787   0.515  0.00  0.00    +0.219 C 
ATOM      9  O   UNL     1      -4.069 -10.263   0.024  0.00  0.00    -0.275 OA
ATOM     10  N   UNL     1      -6.106 -10.586   0.843  0.00  0.00    -0.297 N 
ATOM     11  C   UNL     1      -7.289 -10.048   1.532  0.00  0.00    +0.136 C 
ATOM     12  C   UNL     1      -8.540 -10.498   0.769  0.00  0.00    +0.179 C 
ATOM     13  O   UNL     1      -8.498 -11.916   0.592  0.00  0.00    -0.377 OA
ATOM     14  C   UNL     1      -7.394 -12.376  -0.192  0.00  0.00    +0.179 C 
ATOM     15  C   UNL     1      -6.088 -12.021   0.517  0.00  0.00    +0.136 C 
ENDBRANCH   4   8
BRANCH   1  16
ATOM     16  C   UNL     1      -4.554  -4.154  -0.003  0.00  0.00    +0.017 C 
ATOM     17  C   UNL     1      -5.326  -3.550  -1.178  0.00  0.00    -0.004 C 
BRANCH  16  22
ATOM     18  N   UNL     1      -1.292  -0.855   1.255  0.00  0.00    -0.299 N 
ATOM     19  C   UNL     1      -1.585  -2.007   0.622  0.00  0.00    +0.306 C 
ATOM     20  O   UNL     1      -0.710  -2.624   0.046  0.00  0.00    -0.252 OA
ATOM     21  N   UNL     1      -2.849  -2.476   0.626  0.00  0.00    -0.242 N 
ATOM     22  C   UNL     1      -3.142  -3.629  -0.008  0.00  0.00    +0.207 C 
ATOM     23  O   UNL     1      -2.269  -4.245  -0.581  0.00  0.00    -0.277 OA
ATOM     24  H   UNL     1      -1.990  -0.362   1.714  0.00  0.00    +0.150 HD
ATOM     25  H   UNL     1      -3.547  -1.984   1.085  0.00  0.00    +0.159 HD
BRANCH  18  27
ATOM     26  C   UNL     1       0.141   0.968   2.034  0.00  0.00    +0.024 C 
ATOM     27  C   UNL     1       0.082  -0.345   1.250  0.00  0.00    +0.102 C 
ENDBRANCH  18  27
ENDBRANCH  16  22
ENDBRANCH   1  16
TORSDOF 4
