REMARK  Name = ZINC41151970
REMARK  6 active torsions:
REMARK  status: ('A' for Active; 'I' for Inactive)
REMARK    1  A    between atoms: C_1  and  C_2
REMARK    2  A    between atoms: C_2  and  C_3
REMARK    3  A    between atoms: C_3  and  C_4
REMARK    4  A    between atoms: C_3  and  C_5
REMARK    5  A    between atoms: C_3  and  N_18
REMARK    6  A    between atoms: C_7  and  C_10
REMARK                            x       y       z     vdW  Elec       q    Type
REMARK                         _______ _______ _______ _____ _____    ______ ____
ROOT
ATOM      1  C   UNL     1       0.870  -2.011   1.172  0.00  0.00    +0.161 A 
ATOM      2  N   UNL     1       2.019  -2.690   1.165  0.00  0.00    -0.193 NA
ATOM      3  C   UNL     1       1.777  -3.980   1.097  0.00  0.00    +0.260 A 
ATOM      4  O   UNL     1       0.445  -4.152   1.059  0.00  0.00    -0.333 OA
ATOM      5  N   UNL     1      -0.123  -2.852   1.115  0.00  0.00    -0.062 NA
ENDROOT
BRANCH   3   6
ATOM      6  C   UNL     1       2.793  -5.054   1.067  0.00  0.00    +0.059 A 
ATOM      7  C   UNL     1       4.151  -4.736   1.119  0.00  0.00    +0.030 A 
ATOM      8  C   UNL     1       5.094  -5.743   1.091  0.00  0.00    +0.019 A 
ATOM      9  C   UNL     1       4.696  -7.067   1.012  0.00  0.00    +0.017 A 
ATOM     10  C   UNL     1       3.352  -7.389   0.961  0.00  0.00    +0.022 A 
ATOM     11  C   UNL     1       2.397  -6.391   0.994  0.00  0.00    +0.053 A 
ATOM     12 CL   UNL     1       0.711  -6.798   0.937  0.00  0.00    -0.083 Cl
ATOM     13 BR   UNL     1       6.934  -5.314   1.159  0.00  0.00    -0.050 Br
ENDBRANCH   3   6
BRANCH   1  14
ATOM     14  C   UNL     1       0.742  -0.511   1.242  0.00  0.00    -0.009 C 
ATOM     15  C   UNL     1      -0.042  -0.124   2.497  0.00  0.00    -0.003 C 
BRANCH  14  16
ATOM     16  N   UNL     1       2.080   0.093   1.294  0.00  0.00    +0.386 N 
ATOM     17  H   UNL     1       1.995   1.097   1.341  0.00  0.00    -0.089 HD
ATOM     18  H   UNL     1       2.568  -0.241   2.111  0.00  0.00    -0.089 HD
ATOM     19  H   UNL     1       2.597  -0.163   0.466  0.00  0.00    -0.089 HD
ENDBRANCH  14  16
BRANCH  14  21
ATOM     20  C   UNL     1      -0.019   1.526   0.010  0.00  0.00    +0.003 C 
ATOM     21  C   UNL     1       0.002  -0.004   0.002  0.00  0.00    -0.009 C 
ENDBRANCH  14  21
ENDBRANCH   1  14
TORSDOF 4
