REMARK  Name = ZINC39601238
REMARK  8 active torsions:
REMARK  status: ('A' for Active; 'I' for Inactive)
REMARK    1  A    between atoms: C_1  and  C_2
REMARK    2  A    between atoms: C_2  and  C_3
REMARK    3  A    between atoms: C_2  and  C_4
REMARK    4  A    between atoms: C_4  and  C_5
REMARK    5  A    between atoms: C_5  and  N_6
REMARK    6  A    between atoms: C_7  and  C_9
REMARK    7  A    between atoms: C_20  and  C_22
REMARK    8  A    between atoms: N_26  and  C_27
REMARK                            x       y       z     vdW  Elec       q    Type
REMARK                         _______ _______ _______ _____ _____    ______ ____
ROOT
ATOM      1  C   UNL     1      -5.434  -4.176  -0.187  0.00  0.00    +0.100 C 
ATOM      2  C   UNL     1      -6.017  -3.710  -1.540  0.00  0.00    +0.121 C 
ATOM      3  N   UNL     1      -5.525  -4.704  -2.522  0.00  0.00    -0.295 N 
ATOM      4  C   UNL     1      -5.613  -6.001  -1.810  0.00  0.00    +0.115 C 
ATOM      5  C   UNL     1      -5.173  -5.681  -0.367  0.00  0.00    -0.004 C 
ATOM      6  C   UNL     1      -3.688  -5.985  -0.190  0.00  0.00    -0.010 C 
ATOM      7  C   UNL     1      -3.462  -7.494  -0.317  0.00  0.00    -0.082 C 
ATOM      8  N   UNL     1      -4.252  -8.196   0.703  0.00  0.00    +0.379 N 
ATOM      9  C   UNL     1      -5.684  -7.973   0.469  0.00  0.00    -0.082 C 
ATOM     10  C   UNL     1      -6.003  -6.484   0.629  0.00  0.00    -0.010 C 
ATOM     11  C   UNL     1      -5.095  -4.480  -3.780  0.00  0.00    +0.263 C 
ATOM     12  O   UNL     1      -4.903  -5.417  -4.533  0.00  0.00    -0.268 OA
ATOM     13  H   UNL     1      -4.055  -9.185   0.657  0.00  0.00    -0.086 HD
ATOM     14  H   UNL     1      -4.003  -7.849   1.617  0.00  0.00    -0.086 HD
ENDROOT
BRANCH  11  15
ATOM     15  C   UNL     1      -4.860  -3.108  -4.241  0.00  0.00    +0.104 A 
ATOM     16  C   UNL     1      -4.691  -1.998  -3.441  0.00  0.00    +0.032 A 
ATOM     17  C   UNL     1      -4.494  -0.905  -4.292  0.00  0.00    +0.020 A 
ATOM     18  C   UNL     1      -4.545  -1.357  -5.568  0.00  0.00    +0.086 A 
ATOM     19  N   UNL     1      -4.761  -2.695  -5.550  0.00  0.00    -0.346 N 
ATOM     20  C   UNL     1      -4.874  -3.558  -6.729  0.00  0.00    +0.149 C 
ENDBRANCH  11  15
BRANCH   1  22
ATOM     21  N   UNL     1      -3.788  -3.203   1.381  0.00  0.00    -0.315 N 
ATOM     22  C   UNL     1      -4.145  -3.452   0.106  0.00  0.00    +0.218 C 
ATOM     23  O   UNL     1      -3.430  -3.093  -0.805  0.00  0.00    -0.275 OA
ATOM     24  H   UNL     1      -4.359  -3.490   2.111  0.00  0.00    +0.149 HD
BRANCH  21  25
ATOM     25  C   UNL     1      -2.535  -2.498   1.667  0.00  0.00    +0.104 C 
BRANCH  25  26
ATOM     26  C   UNL     1      -2.369  -2.346   3.180  0.00  0.00    +0.022 C 
BRANCH  26  28
ATOM     27  C   UNL     1      -0.954  -1.347   4.981  0.00  0.00    +0.007 C 
ATOM     28  C   UNL     1      -1.061  -1.610   3.478  0.00  0.00    -0.016 C 
ATOM     29  C   UNL     1       0.122  -2.469   3.025  0.00  0.00    +0.007 C 
ENDBRANCH  26  28
ENDBRANCH  25  26
ENDBRANCH  21  25
ENDBRANCH   1  22
TORSDOF 5
