REMARK  Name = ZINC09130543
REMARK  10 active torsions:
REMARK  status: ('A' for Active; 'I' for Inactive)
REMARK    1  A    between atoms: C_1  and  C_2
REMARK    2  A    between atoms: N_8  and  C_9
REMARK    3  A    between atoms: C_9  and  C_10
REMARK    4  A    between atoms: C_10  and  N_55
REMARK    5  A    between atoms: C_11  and  N_55
REMARK    6  A    between atoms: C_12  and  N_55
REMARK    7  A    between atoms: C_23  and  C_27
REMARK    8  A    between atoms: C_24  and  N_26
REMARK    9  A    between atoms: C_27  and  O_29
REMARK   10  A    between atoms: O_29  and  C_30
REMARK                            x       y       z     vdW  Elec       q    Type
REMARK                         _______ _______ _______ _____ _____    ______ ____
ROOT
ATOM      1  C   UNL     1       0.735   3.353  -0.968  0.00  0.00    +0.064 C 
ATOM      2  C   UNL     1      -0.435   2.644  -1.602  0.00  0.00    +0.022 A 
ATOM      3  C   UNL     1      -0.889   3.054  -2.806  0.00  0.00    +0.068 A 
ATOM      4  C   UNL     1      -1.982   2.395  -3.404  0.00  0.00    +0.142 A 
ATOM      5  C   UNL     1      -2.570   1.338  -2.739  0.00  0.00    +0.083 A 
ATOM      6  C   UNL     1      -2.062   0.946  -1.494  0.00  0.00    +0.260 A 
ATOM      7  O   UNL     1      -2.569   0.010  -0.897  0.00  0.00    -0.267 OA
ATOM      8  N   UNL     1      -1.018   1.602  -0.954  0.00  0.00    -0.314 N 
ATOM      9  C   UNL     1      -3.736   0.611  -3.344  0.00  0.00    +0.143 C 
ATOM     10  C   UNL     1      -5.007   0.946  -2.628  0.00  0.00    -0.002 A 
ATOM     11  C   UNL     1      -5.673   2.142  -2.463  0.00  0.00    +0.007 A 
ATOM     12  C   UNL     1      -6.853   2.110  -1.728  0.00  0.00    +0.000 A 
ATOM     13  C   UNL     1      -7.334   0.932  -1.192  0.00  0.00    +0.002 A 
ATOM     14  C   UNL     1      -6.670  -0.274  -1.355  0.00  0.00    +0.023 A 
ATOM     15  C   UNL     1      -5.484  -0.255  -2.090  0.00  0.00    +0.038 A 
ATOM     16  N   UNL     1      -4.629  -1.296  -2.404  0.00  0.00    -0.284 N 
ATOM     17  C   UNL     1      -3.576  -0.882  -3.139  0.00  0.00    +0.237 C 
ATOM     18  O   UNL     1      -2.672  -1.574  -3.558  0.00  0.00    -0.274 OA
ATOM     19  C   UNL     1      -3.849   0.918  -4.810  0.00  0.00    +0.117 C 
ATOM     20  C   UNL     1      -3.201   1.982  -5.352  0.00  0.00    +0.196 C 
ATOM     21  O   UNL     1      -2.437   2.800  -4.609  0.00  0.00    -0.441 OA
ATOM     22  H   UNL     1      -4.770  -2.215  -2.129  0.00  0.00    +0.155 HD
ENDROOT
BRANCH  20  23
ATOM     23  N   UNL     1      -3.329   2.227  -6.693  0.00  0.00    -0.329 N 
ATOM     24  H   UNL     1      -3.356   1.488  -7.321  0.00  0.00    +0.145 HD
ATOM     25  H   UNL     1      -3.394   3.140  -7.015  0.00  0.00    +0.145 HD
ENDBRANCH  20  23
BRANCH  19  26
ATOM     26  C   UNL     1      -4.634   0.095  -5.631  0.00  0.00    +0.341 C 
ATOM     27  O   UNL     1      -4.819   0.396  -6.796  0.00  0.00    -0.245 OA
BRANCH  26  28
ATOM     28  O   UNL     1      -5.184  -1.032  -5.129  0.00  0.00    -0.465 OA
ATOM     29  C   UNL     1      -5.971  -1.823  -6.021  0.00  0.00    +0.280 C 
ENDBRANCH  26  28
ENDBRANCH  19  26
BRANCH   8  30
ATOM     30  C   UNL     1      -0.499   1.182   0.350  0.00  0.00    +0.106 C 
BRANCH  30  31
ATOM     31  C   UNL     1      -1.223   1.949   1.458  0.00  0.00    -0.058 C 
BRANCH  31  34
ATOM     32  C   UNL     1       0.702   1.926   2.926  0.00  0.00    -0.097 C 
ATOM     33  C   UNL     1      -1.529   2.060   3.857  0.00  0.00    -0.097 C 
ATOM     34  N   UNL     1      -0.704   1.499   2.767  0.00  0.00    +0.377 N 
ATOM     35  H   UNL     1      -0.748   0.474   2.809  0.00  0.00    -0.083 HD
ENDBRANCH  31  34
ENDBRANCH  30  31
ENDBRANCH   8  30
TORSDOF 6
