REMARK  Name = ZINC37818623
REMARK  11 active torsions:
REMARK  status: ('A' for Active; 'I' for Inactive)
REMARK    1  A    between atoms: C_1  and  C_2
REMARK    2  A    between atoms: C_2  and  C_3
REMARK    3  A    between atoms: C_2  and  C_4
REMARK    4  A    between atoms: C_4  and  C_5
REMARK    5  A    between atoms: C_5  and  C_7
REMARK    6  A    between atoms: C_5  and  N_22
REMARK    7  A    between atoms: N_9  and  C_10
REMARK    8  A    between atoms: N_9  and  C_11
REMARK    9  A    between atoms: C_11  and  C_12
REMARK   10  A    between atoms: N_14  and  C_21
REMARK   11  A    between atoms: N_17  and  C_20
REMARK                            x       y       z     vdW  Elec       q    Type
REMARK                         _______ _______ _______ _____ _____    ______ ____
ROOT
ATOM      1  C   UNL     1      -3.373  -1.005  -1.680  0.00  0.00    +0.201 C 
ATOM      2  O   UNL     1      -4.395  -0.352  -1.653  0.00  0.00    -0.277 OA
ATOM      3  N   UNL     1      -3.421  -2.319  -1.978  0.00  0.00    -0.301 N 
ATOM      4  C   UNL     1      -2.187  -3.108  -2.011  0.00  0.00    +0.132 C 
ENDROOT
BRANCH   1   5
ATOM      5  C   UNL     1      -2.050  -0.348  -1.381  0.00  0.00    +0.013 C 
BRANCH   5   6
ATOM      6  N   UNL     1      -2.174   1.105  -1.559  0.00  0.00    +0.386 N 
ATOM      7  H   UNL     1      -1.267   1.534  -1.455  0.00  0.00    -0.089 HD
ATOM      8  H   UNL     1      -2.534   1.301  -2.481  0.00  0.00    -0.089 HD
ATOM      9  H   UNL     1      -2.804   1.477  -0.865  0.00  0.00    -0.089 HD
ENDBRANCH   5   6
BRANCH   5  10
ATOM     10  C   UNL     1      -1.646  -0.652   0.063  0.00  0.00    -0.004 C 
BRANCH  10  12
ATOM     11  C   UNL     1       0.103  -0.273   1.807  0.00  0.00    +0.007 C 
ATOM     12  C   UNL     1      -0.244  -0.099   0.327  0.00  0.00    -0.018 C 
ATOM     13  C   UNL     1       0.773  -0.858  -0.528  0.00  0.00    +0.007 C 
ENDBRANCH  10  12
ENDBRANCH   5  10
ENDBRANCH   1   5
BRANCH   3  14
ATOM     14  C   UNL     1      -4.707  -2.957  -2.270  0.00  0.00    +0.149 C 
BRANCH  14  15
ATOM     15  C   UNL     1      -4.988  -2.869  -3.748  0.00  0.00    +0.051 A 
ATOM     16  C   UNL     1      -4.669  -3.893  -4.567  0.00  0.00    +0.100 A 
ATOM     17  N   UNL     1      -4.931  -3.797  -5.907  0.00  0.00    -0.303 N 
ATOM     18  C   UNL     1      -5.504  -2.691  -6.415  0.00  0.00    +0.331 A 
ATOM     19  O   UNL     1      -5.728  -2.626  -7.608  0.00  0.00    -0.246 OA
ATOM     20  N   UNL     1      -5.833  -1.655  -5.621  0.00  0.00    -0.264 N 
ATOM     21  C   UNL     1      -5.596  -1.714  -4.294  0.00  0.00    +0.261 A 
ATOM     22  O   UNL     1      -5.899  -0.779  -3.574  0.00  0.00    -0.267 OA
ATOM     23  C   UNL     1      -6.456  -0.462  -6.199  0.00  0.00    +0.157 C 
ATOM     24  C   UNL     1      -4.584  -4.908  -6.796  0.00  0.00    +0.153 C 
ENDBRANCH  14  15
ENDBRANCH   3  14
TORSDOF 6
