REMARK  Name = ZINC66814466
REMARK  3 active torsions:
REMARK  status: ('A' for Active; 'I' for Inactive)
REMARK    1  A    between atoms: C_1  and  C_2
REMARK    2  A    between atoms: C_4  and  N_9
REMARK    3  A    between atoms: C_13  and  C_16
REMARK                            x       y       z     vdW  Elec       q    Type
REMARK                         _______ _______ _______ _____ _____    ______ ____
ROOT
ATOM      1  N   UNL     1       0.030  -2.826  -2.330  0.00  0.00    -0.310 N 
ATOM      2  C   UNL     1      -0.066  -4.294  -2.306  0.00  0.00    +0.134 C 
ATOM      3  C   UNL     1       1.061  -4.867  -3.172  0.00  0.00    +0.179 C 
ATOM      4  O   UNL     1       1.024  -4.250  -4.462  0.00  0.00    -0.369 OA
ATOM      5  C   UNL     1       1.247  -2.838  -4.441  0.00  0.00    +0.168 C 
ATOM      6  C   UNL     1       0.124  -2.161  -3.640  0.00  0.00    +0.143 C 
ENDROOT
BRANCH   1  10
ATOM      7  C   UNL     1      -0.018   1.503   0.010  0.00  0.00    +0.066 C 
ATOM      8  C   UNL     1       0.002  -0.004   0.002  0.00  0.00    +0.045 A 
ATOM      9  C   UNL     1       0.006  -0.696  -1.194  0.00  0.00    +0.066 A 
ATOM     10  C   UNL     1       0.026  -2.091  -1.156  0.00  0.00    +0.127 A 
ATOM     11  N   UNL     1       0.040  -2.705   0.023  0.00  0.00    -0.200 NA
ATOM     12  C   UNL     1       0.035  -2.005   1.148  0.00  0.00    +0.214 A 
ATOM     13  N   UNL     1       0.022  -0.680   1.141  0.00  0.00    -0.220 NA
ATOM     14  N   UNL     1       0.051  -2.674   2.359  0.00  0.00    -0.327 N 
ATOM     15  H   UNL     1       0.064  -3.643   2.377  0.00  0.00    +0.145 HD
ATOM     16  H   UNL     1       0.048  -2.173   3.190  0.00  0.00    +0.145 HD
ENDBRANCH   1  10
BRANCH   5  17
ATOM     17  C   UNL     1       1.247  -2.308  -5.852  0.00  0.00    +0.018 A 
ATOM     18  C   UNL     1       0.564  -2.985  -6.845  0.00  0.00    +0.009 A 
ATOM     19  C   UNL     1       0.564  -2.499  -8.139  0.00  0.00    +0.001 A 
ATOM     20  C   UNL     1       1.247  -1.336  -8.442  0.00  0.00    +0.003 A 
ATOM     21  C   UNL     1       1.931  -0.658  -7.451  0.00  0.00    +0.039 A 
ATOM     22  C   UNL     1       1.927  -1.140  -6.153  0.00  0.00    +0.129 A 
ATOM     23  F   UNL     1       2.591  -0.475  -5.183  0.00  0.00    -0.205 F 
ENDBRANCH   5  17
TORSDOF 2
