REMARK  Name = ZINC12378886
REMARK  10 active torsions:
REMARK  status: ('A' for Active; 'I' for Inactive)
REMARK    1  A    between atoms: C_1  and  C_2
REMARK    2  A    between atoms: C_2  and  C_23
REMARK    3  A    between atoms: N_3  and  N_4
REMARK    4  A    between atoms: C_5  and  S_7
REMARK    5  A    between atoms: S_7  and  C_8
REMARK    6  A    between atoms: N_13  and  C_16
REMARK    7  A    between atoms: C_24  and  C_25
REMARK    8  A    between atoms: C_28  and  N_31
REMARK    9  A    between atoms: N_31  and  C_32
REMARK   10  A    between atoms: N_31  and  C_33
REMARK                            x       y       z     vdW  Elec       q    Type
REMARK                         _______ _______ _______ _____ _____    ______ ____
ROOT
ATOM      1  N   UNL     1      -0.671  -2.097   0.911  0.00  0.00    -0.259 N 
ATOM      2  C   UNL     1      -0.538  -2.708   2.074  0.00  0.00    +0.146 C 
ATOM      3  N   UNL     1      -0.435  -1.972   3.228  0.00  0.00    -0.338 N 
ATOM      4  H   UNL     1      -0.460  -1.003   3.190  0.00  0.00    +0.144 HD
ATOM      5  H   UNL     1      -0.337  -2.421   4.082  0.00  0.00    +0.144 HD
ATOM      6  H   UNL     1      -0.744  -2.617   0.096  0.00  0.00    +0.191 HD
ENDROOT
BRANCH   1   9
ATOM      7  C   UNL     1      -1.089   1.295  -0.319  0.00  0.00    +0.067 C 
ATOM      8  C   UNL     1      -0.936  -0.204  -0.279  0.00  0.00    +0.058 C 
ATOM      9  N   UNL     1      -0.704  -0.808   0.860  0.00  0.00    -0.177 NA
BRANCH   8  10
ATOM     10  C   UNL     1      -1.042  -0.956  -1.469  0.00  0.00    +0.025 C 
ATOM     11  C   UNL     1      -1.171  -0.326  -2.659  0.00  0.00    +0.010 C 
BRANCH  11  12
ATOM     12  C   UNL     1      -1.397  -1.107  -3.884  0.00  0.00    -0.025 A 
ATOM     13  C   UNL     1      -1.485  -2.502  -3.821  0.00  0.00    +0.010 A 
ATOM     14  C   UNL     1      -1.697  -3.230  -4.970  0.00  0.00    +0.023 A 
ATOM     15  C   UNL     1      -1.824  -2.579  -6.194  0.00  0.00    +0.029 A 
ATOM     16  C   UNL     1      -1.738  -1.193  -6.261  0.00  0.00    +0.023 A 
ATOM     17  C   UNL     1      -1.531  -0.457  -5.116  0.00  0.00    +0.010 A 
BRANCH  15  18
ATOM     18  N   UNL     1      -2.039  -3.321  -7.356  0.00  0.00    -0.336 N 
ATOM     19  C   UNL     1      -2.253  -4.767  -7.273  0.00  0.00    +0.129 C 
ATOM     20  C   UNL     1      -2.050  -2.652  -8.659  0.00  0.00    +0.129 C 
ENDBRANCH  15  18
ENDBRANCH  11  12
ENDBRANCH   8  10
ENDBRANCH   1   9
BRANCH   2  21
ATOM     21  S   UNL     1      -0.493  -4.468   2.144  0.00  0.00    -0.078 S 
BRANCH  21  22
ATOM     22  C   UNL     1      -0.303  -4.832   3.911  0.00  0.00    +0.149 C 
ATOM     23  C   UNL     1      -0.317  -6.355   4.156  0.00  0.00    +0.120 C 
ATOM     24  C   UNL     1       1.044  -6.630   4.756  0.00  0.00    +0.228 C 
ATOM     25  O   UNL     1       1.452  -7.718   5.101  0.00  0.00    -0.275 OA
ATOM     26  N   UNL     1       1.727  -5.482   4.844  0.00  0.00    -0.209 N 
ATOM     27  C   UNL     1       1.064  -4.403   4.399  0.00  0.00    +0.240 C 
ATOM     28  O   UNL     1       1.490  -3.268   4.387  0.00  0.00    -0.274 OA
BRANCH  26  29
ATOM     29  C   UNL     1       3.029  -5.411   5.363  0.00  0.00    +0.044 A 
ATOM     30  C   UNL     1       3.307  -4.567   6.429  0.00  0.00    +0.027 A 
ATOM     31  C   UNL     1       4.589  -4.498   6.938  0.00  0.00    +0.040 A 
ATOM     32  C   UNL     1       5.596  -5.270   6.385  0.00  0.00    +0.124 A 
ATOM     33  C   UNL     1       5.321  -6.113   5.321  0.00  0.00    +0.040 A 
ATOM     34  C   UNL     1       4.039  -6.188   4.813  0.00  0.00    +0.027 A 
ATOM     35  F   UNL     1       6.850  -5.201   6.884  0.00  0.00    -0.205 F 
ENDBRANCH  26  29
ENDBRANCH  21  22
ENDBRANCH   2  21
TORSDOF 7
