REMARK  Name = ZINC63218305
REMARK  10 active torsions:
REMARK  status: ('A' for Active; 'I' for Inactive)
REMARK    1  A    between atoms: C_1  and  C_2
REMARK    2  A    between atoms: C_2  and  C_4
REMARK    3  A    between atoms: C_2  and  N_12
REMARK    4  A    between atoms: C_7  and  O_11
REMARK    5  A    between atoms: C_9  and  O_10
REMARK    6  A    between atoms: N_12  and  CA_13
REMARK    7  A    between atoms: CA_13  and  CB_15
REMARK    8  A    between atoms: CA_13  and  C_22
REMARK    9  A    between atoms: CB_15  and  CG_16
REMARK   10  A    between atoms: C_22  and  O_23
REMARK                            x       y       z     vdW  Elec       q    Type
REMARK                         _______ _______ _______ _____ _____    ______ ____
ROOT
ATOM      1  N   PHE A   1      -1.376  -0.512   0.012  0.00  0.00    +0.387 N 
ATOM      2  H1  PHE A   1      -1.363  -1.518   0.090  0.00  0.00    -0.085 HD
ATOM      3  H2  PHE A   1      -1.873  -0.121   0.799  0.00  0.00    -0.085 HD
ENDROOT
BRANCH   1   5
ATOM      4  C   UNK A   0      -0.019   1.526   0.010  0.00  0.00    -0.009 C 
ATOM      5  C   UNK A   0       0.002  -0.004   0.002  0.00  0.00    -0.040 C 
BRANCH   5   6
ATOM      6  C   UNK A   0       0.731  -0.503   1.223  0.00  0.00    -0.020 A 
ATOM      7  C   UNK A   0       0.017  -0.951   2.318  0.00  0.00    +0.009 A 
ATOM      8  C   UNK A   0       0.682  -1.409   3.439  0.00  0.00    +0.046 A 
ATOM      9  C   UNK A   0       2.070  -1.421   3.467  0.00  0.00    +0.120 A 
ATOM     10  C   UNK A   0       2.788  -0.973   2.370  0.00  0.00    +0.091 A 
ATOM     11  C   UNK A   0       2.118  -0.519   1.244  0.00  0.00    +0.122 A 
BRANCH  11  12
ATOM     12  O   UNK A   0       2.820  -0.085   0.164  0.00  0.00    -0.506 OA
ATOM     13  H   UNK A   0       3.027   0.860   0.183  0.00  0.00    +0.292 HD
ENDBRANCH  11  12
BRANCH   9  14
ATOM     14  O   UNK A   0       2.724  -1.871   4.570  0.00  0.00    -0.507 OA
ATOM     15  H   UNK A   0       2.913  -2.820   4.556  0.00  0.00    +0.292 HD
ENDBRANCH   9  14
ENDBRANCH   5   6
ENDBRANCH   1   5
BRANCH   1  16
ATOM     16  CA  PHE A   1      -2.050  -0.126  -1.234  0.00  0.00    -0.041 C 
BRANCH  16  17
ATOM     17  CB  PHE A   1      -3.520  -0.547  -1.171  0.00  0.00    +0.021 C 
BRANCH  17  18
ATOM     18  CG  PHE A   1      -4.218   0.229  -0.084  0.00  0.00    -0.049 A 
ATOM     19  CD2 PHE A   1      -4.254  -0.268   1.206  0.00  0.00    +0.003 A 
ATOM     20  CE2 PHE A   1      -4.894   0.443   2.203  0.00  0.00    +0.000 A 
ATOM     21  CZ  PHE A   1      -5.498   1.652   1.911  0.00  0.00    +0.000 A 
ATOM     22  CE1 PHE A   1      -5.461   2.150   0.622  0.00  0.00    +0.000 A 
ATOM     23  CD1 PHE A   1      -4.817   1.440  -0.374  0.00  0.00    +0.003 A 
ENDBRANCH  17  18
ENDBRANCH  16  17
BRANCH  16  24
ATOM     24  C   PHE A   1      -1.371  -0.820  -2.417  0.00  0.00    +0.140 C 
BRANCH  24  25
ATOM     25  O   PHE A   1      -1.556  -2.233  -2.310  0.00  0.00    -0.397 OA
ATOM     26  H   PHE A   1      -1.151  -2.738  -3.028  0.00  0.00    +0.209 HD
ENDBRANCH  24  25
ENDBRANCH  16  24
ENDBRANCH   1  16
TORSDOF 9
