REMARK  Name = ZINC11664021
REMARK  7 active torsions:
REMARK  status: ('A' for Active; 'I' for Inactive)
REMARK    1  A    between atoms: C_1  and  C_2
REMARK    2  A    between atoms: C_7  and  C_11
REMARK    3  A    between atoms: C_11  and  N_12
REMARK    4  A    between atoms: C_13  and  C_15
REMARK    5  A    between atoms: C_15  and  C_16
REMARK    6  A    between atoms: C_23  and  C_24
REMARK    7  A    between atoms: C_23  and  N_60
REMARK                            x       y       z     vdW  Elec       q    Type
REMARK                         _______ _______ _______ _____ _____    ______ ____
ROOT
ATOM      1  C   UNL     1       1.095   2.408   2.307  0.00  0.00    +0.089 C 
ENDROOT
BRANCH   1   2
ATOM      2  C   UNL     1      -0.014   1.358   2.391  0.00  0.00    +0.028 C 
ATOM      3  C   UNL     1      -0.668   1.430   3.743  0.00  0.00    +0.200 C 
ATOM      4  O   UNL     1       0.036   1.560   4.722  0.00  0.00    -0.278 OA
ATOM      5  N   UNL     1      -1.992   1.356   3.910  0.00  0.00    -0.318 N 
ATOM      6  C   UNL     1      -2.928   1.235   2.796  0.00  0.00    +0.085 C 
ATOM      7  C   UNL     1      -2.191   0.762   1.542  0.00  0.00    -0.059 C 
ATOM      8  H   UNL     1      -2.347   1.384   4.813  0.00  0.00    +0.149 HD
ATOM      9  N   UNL     1      -1.016   1.635   1.345  0.00  0.00    +0.389 N 
ATOM     10  H   UNL     1      -1.312   2.616   1.414  0.00  0.00    -0.081 HD
BRANCH   9  11
ATOM     11  C   UNL     1      -0.428   1.401   0.006  0.00  0.00    -0.074 C 
BRANCH  11  12
ATOM     12  C   UNL     1      -1.046   2.393  -0.982  0.00  0.00    -0.028 C 
ATOM     13  C   UNL     1      -2.539   2.097  -1.136  0.00  0.00    +0.002 C 
ATOM     14  C   UNL     1      -3.156   3.089  -2.124  0.00  0.00    +0.000 C 
ATOM     15  C   UNL     1      -2.466   2.952  -3.483  0.00  0.00    +0.000 C 
ATOM     16  C   UNL     1      -0.973   3.249  -3.328  0.00  0.00    +0.000 C 
ATOM     17  C   UNL     1      -0.355   2.257  -2.340  0.00  0.00    +0.002 C 
ENDBRANCH  11  12
ENDBRANCH   9  11
ENDBRANCH   1   2
BRANCH   1  19
ATOM     18  N   UNL     1       1.300   4.864   2.518  0.00  0.00    -0.310 N 
ATOM     19  C   UNL     1       0.497   3.784   2.450  0.00  0.00    +0.212 C 
ATOM     20  O   UNL     1      -0.707   3.919   2.503  0.00  0.00    -0.276 OA
ATOM     21  H   UNL     1       2.263   4.756   2.475  0.00  0.00    +0.149 HD
BRANCH  18  22
ATOM     22  C   UNL     1       0.718   6.202   2.656  0.00  0.00    +0.161 C 
BRANCH  22  29
ATOM     23  C   UNL     1       5.909  11.345   1.547  0.00  0.00    +0.045 C 
ATOM     24  C   UNL     1       5.019  10.342   2.236  0.00  0.00    -0.034 A 
ATOM     25  C   UNL     1       5.147  10.127   3.618  0.00  0.00    +0.008 A 
ATOM     26  C   UNL     1       4.342   9.222   4.237  0.00  0.00    +0.047 A 
ATOM     27  C   UNL     1       3.390   8.512   3.477  0.00  0.00    +0.138 A 
ATOM     28  N   UNL     1       2.494   7.592   3.804  0.00  0.00    -0.231 NA
ATOM     29  C   UNL     1       1.822   7.226   2.709  0.00  0.00    +0.077 A 
ATOM     30  C   UNL     1       2.300   7.924   1.656  0.00  0.00    +0.117 A 
ATOM     31  N   UNL     1       3.288   8.744   2.130  0.00  0.00    -0.306 N 
ATOM     32  C   UNL     1       4.103   9.655   1.522  0.00  0.00    +0.096 A 
ENDBRANCH  22  29
ENDBRANCH  18  22
ENDBRANCH   1  19
TORSDOF 6
