REMARK  Name = ZINC00308826
REMARK  7 active torsions:
REMARK  status: ('A' for Active; 'I' for Inactive)
REMARK    1  A    between atoms: C_7  and  C_11
REMARK    2  A    between atoms: C_11  and  C_12
REMARK    3  A    between atoms: C_12  and  N_13
REMARK    4  A    between atoms: C_14  and  C_16
REMARK    5  A    between atoms: C_16  and  C_25
REMARK    6  A    between atoms: C_17  and  C_18
REMARK    7  A    between atoms: C_21  and  O_24
REMARK                            x       y       z     vdW  Elec       q    Type
REMARK                         _______ _______ _______ _____ _____    ______ ____
ROOT
ATOM      1  N   UNL     1      -0.659   1.695  -1.183  0.00  0.00    -0.310 N 
ATOM      2  C   UNL     1      -0.252   1.307  -2.408  0.00  0.00    +0.254 C 
ATOM      3  O   UNL     1       0.678   0.532  -2.523  0.00  0.00    -0.269 OA
ATOM      4  H   UNL     1      -1.401   2.313  -1.091  0.00  0.00    +0.149 HD
ENDROOT
BRANCH   2   5
ATOM      5  C   UNL     1      -0.933   1.822  -3.606  0.00  0.00    +0.114 C 
ATOM      6  C   UNL     1      -0.516   1.426  -4.859  0.00  0.00    +0.032 C 
BRANCH   6   7
ATOM      7  C   UNL     1      -1.284   1.818  -6.043  0.00  0.00    -0.023 A 
ATOM      8  C   UNL     1      -2.668   2.020  -5.949  0.00  0.00    +0.011 A 
ATOM      9  C   UNL     1      -3.378   2.390  -7.057  0.00  0.00    +0.046 A 
ATOM     10  C   UNL     1      -2.731   2.555  -8.277  0.00  0.00    +0.117 A 
ATOM     11  C   UNL     1      -1.359   2.350  -8.378  0.00  0.00    +0.046 A 
ATOM     12  C   UNL     1      -0.638   1.986  -7.276  0.00  0.00    +0.011 A 
BRANCH  10  13
ATOM     13  O   UNL     1      -3.442   2.916  -9.375  0.00  0.00    -0.507 OA
ATOM     14  H   UNL     1      -3.789   2.170  -9.883  0.00  0.00    +0.292 HD
ENDBRANCH  10  13
ENDBRANCH   6   7
BRANCH   5  15
ATOM     15  C   UNL     1      -2.028   2.735  -3.471  0.00  0.00    +0.104 C 
ATOM     16  N   UNL     1      -2.896   3.459  -3.364  0.00  0.00    -0.191 NA
ENDBRANCH   5  15
ENDBRANCH   2   5
BRANCH   1  17
ATOM     17  C   UNL     1       0.019   1.182   0.010  0.00  0.00    +0.109 C 
BRANCH  17  18
ATOM     18  C   UNL     1      -0.633   1.774   1.261  0.00  0.00    +0.056 C 
BRANCH  18  25
ATOM     19  C   UNL     1       3.206   3.113   3.593  0.00  0.00    +0.001 A 
ATOM     20  C   UNL     1       3.477   2.312   4.694  0.00  0.00    +0.002 A 
ATOM     21  C   UNL     1       2.659   1.249   5.008  0.00  0.00    +0.026 A 
ATOM     22  C   UNL     1       1.549   0.974   4.216  0.00  0.00    +0.047 A 
ATOM     23  C   UNL     1       1.278   1.789   3.102  0.00  0.00    +0.003 A 
ATOM     24  C   UNL     1       2.121   2.861   2.802  0.00  0.00    +0.010 A 
ATOM     25  C   UNL     1       0.064   1.246   2.489  0.00  0.00    -0.021 A 
ATOM     26  C   UNL     1      -0.314   0.193   3.231  0.00  0.00    +0.087 A 
ATOM     27  N   UNL     1       0.565   0.012   4.264  0.00  0.00    -0.360 N 
ATOM     28  H   UNL     1       0.502  -0.687   4.934  0.00  0.00    +0.165 HD
ENDBRANCH  18  25
ENDBRANCH  17  18
ENDBRANCH   1  17
TORSDOF 7
