REMARK  Name = ZINC32127327
REMARK  7 active torsions:
REMARK  status: ('A' for Active; 'I' for Inactive)
REMARK    1  A    between atoms: C_1  and  C_2
REMARK    2  A    between atoms: C_5  and  C_23
REMARK    3  A    between atoms: C_7  and  N_8
REMARK    4  A    between atoms: N_8  and  C_9
REMARK    5  A    between atoms: C_9  and  N_11
REMARK    6  A    between atoms: C_12  and  C_14
REMARK    7  A    between atoms: C_26  and  C_31
REMARK                            x       y       z     vdW  Elec       q    Type
REMARK                         _______ _______ _______ _____ _____    ______ ____
ROOT
ATOM      1  N   UNL     1       7.282   5.214  -0.040  0.00  0.00    -0.296 N 
ATOM      2  H   UNL     1       6.670   5.841   0.625  0.00  0.00    +0.154 HD
ENDROOT
BRANCH   1   9
ATOM      3  C   UNL     1       8.518   7.765   0.163  0.00  0.00    +0.045 C 
ATOM      4  C   UNL     1       9.323   6.491   0.140  0.00  0.00    -0.029 A 
ATOM      5  C   UNL     1      10.703   6.546   0.219  0.00  0.00    +0.006 A 
ATOM      6  C   UNL     1      11.446   5.383   0.197  0.00  0.00    +0.011 A 
ATOM      7  C   UNL     1      10.806   4.148   0.096  0.00  0.00    +0.011 A 
ATOM      8  C   UNL     1       9.416   4.091   0.023  0.00  0.00    +0.034 A 
ATOM      9  C   UNL     1       8.677   5.265   0.039  0.00  0.00    +0.036 A 
BRANCH   7  10
ATOM     10  C   UNL     1      11.602   2.900   0.073  0.00  0.00    +0.132 A 
ATOM     11  N   UNL     1      12.900   2.751   0.137  0.00  0.00    -0.156 NA
ATOM     12  N   UNL     1      13.482   1.491   0.102  0.00  0.00    -0.190 N 
ATOM     13  C   UNL     1      14.732   0.906   0.139  0.00  0.00    +0.153 A 
ATOM     14  N   UNL     1      14.575  -0.386   0.061  0.00  0.00    -0.132 NA
ATOM     15  N   UNL     1      13.322  -0.674  -0.023  0.00  0.00    -0.120 NA
ATOM     16  C   UNL     1      12.626   0.422  -0.003  0.00  0.00    +0.218 A 
ATOM     17  S   UNL     1      11.035   1.210  -0.041  0.00  0.00    -0.026 S 
ATOM     18  C   UNL     1      16.047   1.633   0.250  0.00  0.00    +0.090 C 
ENDBRANCH   7  10
ENDBRANCH   1   9
BRANCH   1  19
ATOM     19  C   UNL     1       6.686   4.397  -0.932  0.00  0.00    +0.141 C 
ATOM     20  S   UNL     1       7.634   3.527  -2.061  0.00  0.00    -0.018 S 
BRANCH  19  21
ATOM     21  N   UNL     1       5.345   4.265  -0.934  0.00  0.00    -0.261 N 
ATOM     22  C   UNL     1       4.750   3.448  -1.826  0.00  0.00    +0.285 C 
ATOM     23  O   UNL     1       5.424   2.830  -2.628  0.00  0.00    -0.266 OA
ATOM     24  H   UNL     1       4.736   4.824  -0.209  0.00  0.00    +0.157 HD
BRANCH  22  25
ATOM     25  C   UNL     1       3.288   3.304  -1.829  0.00  0.00    +0.191 A 
ATOM     26  C   UNL     1       2.582   2.513  -2.678  0.00  0.00    +0.063 A 
ATOM     27  C   UNL     1       1.176   2.685  -2.316  0.00  0.00    +0.021 A 
ATOM     28  C   UNL     1      -0.025   2.158  -2.798  0.00  0.00    +0.011 A 
ATOM     29  C   UNL     1      -1.208   2.537  -2.229  0.00  0.00    +0.001 A 
ATOM     30  C   UNL     1      -1.222   3.431  -1.167  0.00  0.00    +0.004 A 
ATOM     31  C   UNL     1      -0.049   3.962  -0.677  0.00  0.00    +0.047 A 
ATOM     32  C   UNL     1       1.166   3.597  -1.244  0.00  0.00    +0.136 A 
ATOM     33  O   UNL     1       2.444   3.938  -0.988  0.00  0.00    -0.450 OA
ENDBRANCH  22  25
ENDBRANCH  19  21
ENDBRANCH   1  19
TORSDOF 5
