REMARK  Name = ZINC49786370
REMARK  8 active torsions:
REMARK  status: ('A' for Active; 'I' for Inactive)
REMARK    1  A    between atoms: C_1  and  C_2
REMARK    2  A    between atoms: C_2  and  N_9
REMARK    3  A    between atoms: N_9  and  N_10
REMARK    4  A    between atoms: N_13  and  C_14
REMARK    5  A    between atoms: C_14  and  C_15
REMARK    6  A    between atoms: C_15  and  C_16
REMARK    7  A    between atoms: C_15  and  C_17
REMARK    8  A    between atoms: C_15  and  N_18
REMARK                            x       y       z     vdW  Elec       q    Type
REMARK                         _______ _______ _______ _____ _____    ______ ____
ROOT
ATOM      1  N   UNL     1      -2.102   0.204  -0.589  0.00  0.00    -0.234 N 
ATOM      2  C   UNL     1      -3.359  -0.205  -0.851  0.00  0.00    +0.313 C 
ATOM      3  O   UNL     1      -3.928   0.183  -1.853  0.00  0.00    -0.252 OA
ATOM      4  N   UNL     1      -3.985  -1.046  -0.004  0.00  0.00    -0.300 N 
ATOM      5  H   UNL     1      -1.652   0.809  -1.199  0.00  0.00    +0.171 HD
ATOM      6  H   UNL     1      -3.530  -1.355   0.796  0.00  0.00    +0.150 HD
ENDROOT
BRANCH   1   7
ATOM      7  N   UNL     1      -1.462  -0.232   0.537  0.00  0.00    -0.232 NA
ATOM      8  H   UNL     1      -2.000  -0.018   1.363  0.00  0.00    +0.145 HD
BRANCH   7  10
ATOM      9  C   UNL     1      -0.220   1.861   0.654  0.00  0.00    +0.031 C 
ATOM     10  C   UNL     1      -0.110   0.335   0.626  0.00  0.00    +0.054 C 
ATOM     11  C   UNL     1       0.673  -0.077  -0.619  0.00  0.00    +0.047 C 
ATOM     12  C   UNL     1       2.193  -0.153  -0.300  0.00  0.00    +0.168 C 
ATOM     13  S   UNL     1       2.116  -0.903   1.386  0.00  0.00    -0.029 S 
ATOM     14  O   UNL     1       3.185  -0.396   2.173  0.00  0.00    -0.174 OA
ATOM     15  O   UNL     1       1.938  -2.308   1.264  0.00  0.00    -0.174 OA
ATOM     16  C   UNL     1       0.537  -0.138   1.943  0.00  0.00    +0.189 C 
ENDBRANCH   7  10
ENDBRANCH   1   7
BRANCH   4  17
ATOM     17  C   UNL     1      -5.351  -1.492  -0.289  0.00  0.00    +0.093 C 
BRANCH  17  18
ATOM     18  C   UNL     1      -5.776  -2.531   0.750  0.00  0.00    -0.055 C 
ATOM     19  C   UNL     1      -5.853  -1.872   2.129  0.00  0.00    -0.008 C 
ATOM     20  C   UNL     1      -7.148  -3.095   0.376  0.00  0.00    -0.008 C 
BRANCH  18  21
ATOM     21  N   UNL     1      -4.791  -3.621   0.784  0.00  0.00    +0.384 N 
ATOM     22  C   UNL     1      -4.686  -4.224  -0.550  0.00  0.00    -0.078 C 
ATOM     23  C   UNL     1      -3.603  -5.306  -0.541  0.00  0.00    -0.019 C 
ATOM     24  C   UNL     1      -3.976  -6.384   0.480  0.00  0.00    -0.004 C 
ATOM     25  C   UNL     1      -4.156  -5.732   1.854  0.00  0.00    -0.019 C 
ATOM     26  C   UNL     1      -5.218  -4.634   1.756  0.00  0.00    -0.078 C 
ATOM     27  H   UNL     1      -3.892  -3.252   1.056  0.00  0.00    -0.081 HD
ENDBRANCH  18  21
ENDBRANCH  17  18
ENDBRANCH   4  17
TORSDOF 5
