REMARK  Name = ZINC19320121
REMARK  8 active torsions:
REMARK  status: ('A' for Active; 'I' for Inactive)
REMARK    1  A    between atoms: C_1  and  C_2
REMARK    2  A    between atoms: C_2  and  C_3
REMARK    3  A    between atoms: C_3  and  C_4
REMARK    4  A    between atoms: C_4  and  C_5
REMARK    5  A    between atoms: C_9  and  C_24
REMARK    6  A    between atoms: C_15  and  C_16
REMARK    7  A    between atoms: C_19  and  O_23
REMARK    8  A    between atoms: C_21  and  O_22
REMARK                            x       y       z     vdW  Elec       q    Type
REMARK                         _______ _______ _______ _____ _____    ______ ____
ROOT
ATOM      1  C   UNL     1      -1.443   3.657   2.576  0.00  0.00    +0.028 C 
ATOM      2  C   UNL     1      -0.701   3.073   3.789  0.00  0.00    -0.060 C 
ATOM      3  N   UNL     1      -0.733   1.606   3.719  0.00  0.00    +0.394 N 
ATOM      4  C   UNL     1      -0.020   1.094   2.542  0.00  0.00    -0.061 C 
ATOM      5  C   UNL     1      -0.729   1.579   1.267  0.00  0.00    +0.025 C 
ATOM      6  C   UNL     1      -0.752   3.103   1.334  0.00  0.00    +0.144 C 
ATOM      7  O   UNL     1      -0.251   3.807   0.490  0.00  0.00    -0.296 OA
ATOM      8  C   UNL     1      -2.186   1.092   1.310  0.00  0.00    +0.095 C 
ATOM      9  N   UNL     1      -2.818   1.626   2.550  0.00  0.00    -0.310 NA
ATOM     10  C   UNL     1      -2.873   3.094   2.571  0.00  0.00    +0.095 C 
ATOM     11  C   UNL     1      -2.121   1.118   3.741  0.00  0.00    +0.037 C 
ATOM     12  C   UNL     1      -0.013   1.086   0.008  0.00  0.00    +0.018 C 
ATOM     13  H   UNL     1      -0.208   1.225   4.607  0.00  0.00    -0.079 HD
ENDROOT
BRANCH  11  14
ATOM     14  C   UNL     1      -2.127  -0.389   3.725  0.00  0.00    -0.006 A 
ATOM     15  C   UNL     1      -1.035  -1.088   4.203  0.00  0.00    +0.010 A 
ATOM     16  C   UNL     1      -1.037  -2.470   4.191  0.00  0.00    +0.046 A 
ATOM     17  C   UNL     1      -2.137  -3.159   3.698  0.00  0.00    +0.120 A 
ATOM     18  C   UNL     1      -3.233  -2.459   3.218  0.00  0.00    +0.091 A 
ATOM     19  C   UNL     1      -3.231  -1.073   3.237  0.00  0.00    +0.123 A 
BRANCH  19  20
ATOM     20  O   UNL     1      -4.306  -0.384   2.772  0.00  0.00    -0.506 OA
ATOM     21  H   UNL     1      -5.181  -0.927   2.385  0.00  0.00    +0.292 HD
ENDBRANCH  19  20
BRANCH  17  22
ATOM     22  O   UNL     1      -2.139  -4.518   3.687  0.00  0.00    -0.507 OA
ATOM     23  H   UNL     1      -3.011  -5.063   3.296  0.00  0.00    +0.292 HD
ENDBRANCH  17  22
ENDBRANCH  11  14
BRANCH   1  24
ATOM     24  C   UNL     1      -1.445   5.187   2.579  0.00  0.00    +0.014 C 
BRANCH  24  25
ATOM     25  C   UNL     1      -0.003   5.699   2.584  0.00  0.00    +0.001 C 
BRANCH  25  27
ATOM     26  C   UNL     1       1.437   7.740   2.592  0.00  0.00    +0.004 C 
ATOM     27  C   UNL     1      -0.005   7.229   2.587  0.00  0.00    -0.003 C 
ENDBRANCH  25  27
ENDBRANCH  24  25
ENDBRANCH   1  24
TORSDOF 6
