REMARK  Name = ZINC43406881
REMARK  3 active torsions:
REMARK  status: ('A' for Active; 'I' for Inactive)
REMARK    1  A    between atoms: C_5  and  O_7
REMARK    2  A    between atoms: O_7  and  C_8
REMARK    3  A    between atoms: C_9  and  C_17
REMARK                            x       y       z     vdW  Elec       q    Type
REMARK                         _______ _______ _______ _____ _____    ______ ____
ROOT
ATOM      1  C   UNL     1       0.050  -2.694   0.215  0.00  0.00    +0.231 A 
ATOM      2  C   UNL     1       0.038  -4.097   0.196  0.00  0.00    +0.074 A 
ATOM      3  C   UNL     1      -1.195  -4.756   0.181  0.00  0.00    +0.022 A 
ATOM      4  C   UNL     1      -2.352  -3.995   0.187  0.00  0.00    -0.025 A 
ATOM      5  C   UNL     1      -2.263  -2.614   0.206  0.00  0.00    +0.048 A 
ATOM      6  N   UNL     1      -1.083  -2.016   0.224  0.00  0.00    -0.217 NA
ATOM      7  C   UNL     1      -3.656  -2.016   0.209  0.00  0.00    +0.056 C 
ATOM      8  C   UNL     1      -4.587  -3.157  -0.253  0.00  0.00    +0.011 C 
ATOM      9  C   UNL     1      -3.805  -4.417   0.174  0.00  0.00    +0.037 C 
ENDROOT
BRANCH   2  10
ATOM     10  C   UNL     1       1.301  -4.861   0.191  0.00  0.00    +0.099 C 
ATOM     11  N   UNL     1       1.533  -5.772   1.135  0.00  0.00    -0.387 N 
ATOM     12  N   UNL     1       2.210  -4.641  -0.759  0.00  0.00    -0.344 N 
ATOM     13  H   UNL     1       0.908  -5.879   1.869  0.00  0.00    +0.157 HD
ATOM     14  H   UNL     1       2.041  -3.978  -1.447  0.00  0.00    +0.144 HD
ATOM     15  H   UNL     1       3.040  -5.143  -0.763  0.00  0.00    +0.144 HD
ATOM     16  H   UNL     1       2.327  -6.328   1.089  0.00  0.00    +0.157 HD
ENDBRANCH   2  10
BRANCH   1  17
ATOM     17  O   UNL     1       1.231  -2.032   0.230  0.00  0.00    -0.436 OA
BRANCH  17  22
ATOM     18  C   UNL     1       1.202   1.498  -0.654  0.00  0.00    +0.004 A 
ATOM     19  C   UNL     1       1.145   2.077   0.600  0.00  0.00    +0.002 A 
ATOM     20  C   UNL     1       1.117   1.282   1.731  0.00  0.00    +0.024 A 
ATOM     21  C   UNL     1       1.145  -0.095   1.610  0.00  0.00    +0.083 A 
ATOM     22  C   UNL     1       1.202  -0.678   0.352  0.00  0.00    +0.149 A 
ATOM     23  C   UNL     1       1.231   0.122  -0.781  0.00  0.00    +0.048 A 
ATOM     24 CL   UNL     1       1.110  -1.093   3.030  0.00  0.00    -0.080 Cl
ENDBRANCH  17  22
ENDBRANCH   1  17
TORSDOF 3
