REMARK  Name = ZINC67587565
REMARK  9 active torsions:
REMARK  status: ('A' for Active; 'I' for Inactive)
REMARK    1  A    between atoms: C_1  and  C_2
REMARK    2  A    between atoms: C_2  and  C_25
REMARK    3  A    between atoms: C_3  and  C_4
REMARK    4  A    between atoms: N_6  and  C_7
REMARK    5  A    between atoms: N_6  and  C_8
REMARK    6  A    between atoms: C_8  and  C_9
REMARK    7  A    between atoms: N_11  and  C_14
REMARK    8  A    between atoms: C_17  and  C_21
REMARK    9  A    between atoms: N_23  and  C_24
REMARK                            x       y       z     vdW  Elec       q    Type
REMARK                         _______ _______ _______ _____ _____    ______ ____
ROOT
ATOM      1  C   UNL     1      -1.044   0.120   5.423  0.00  0.00    +0.100 A 
ATOM      2  C   UNL     1      -1.556  -0.744   6.331  0.00  0.00    +0.135 A 
ATOM      3  N   UNL     1      -2.832  -0.350   6.548  0.00  0.00    -0.250 N 
ATOM      4  N   UNL     1      -3.066   0.683   5.816  0.00  0.00    -0.065 NA
ATOM      5  N   UNL     1      -2.018   0.992   5.137  0.00  0.00    -0.133 NA
ENDROOT
BRANCH   3   6
ATOM      6  C   UNL     1      -3.784  -0.990   7.460  0.00  0.00    +0.091 C 
ATOM      7  C   UNL     1      -3.574  -0.477   8.899  0.00  0.00    +0.018 C 
ATOM      8  C   UNL     1      -3.200  -1.729   9.721  0.00  0.00    +0.018 C 
ATOM      9  N   UNL     1      -3.771  -2.865   8.952  0.00  0.00    +0.388 N 
ATOM     10  C   UNL     1      -3.521  -2.509   7.530  0.00  0.00    -0.054 C 
ATOM     11  H   UNL     1      -3.299  -3.725   9.190  0.00  0.00    -0.085 HD
ATOM     12  H   UNL     1      -4.762  -2.946   9.125  0.00  0.00    -0.085 HD
BRANCH   8  13
ATOM     13  C   UNL     1      -3.815  -1.659  11.095  0.00  0.00    +0.199 C 
ATOM     14  O   UNL     1      -4.831  -2.276  11.337  0.00  0.00    -0.278 OA
ATOM     15  N   UNL     1      -3.235  -0.912  12.055  0.00  0.00    -0.320 N 
ATOM     16  C   UNL     1      -3.833  -0.844  13.391  0.00  0.00    +0.128 C 
ATOM     17  H   UNL     1      -2.422  -0.419  11.862  0.00  0.00    +0.148 HD
ENDBRANCH   8  13
ENDBRANCH   3   6
BRANCH   1  18
ATOM     18  C   UNL     1       0.350   0.106   4.851  0.00  0.00    +0.166 C 
BRANCH  18  21
ATOM     19  C   UNL     1       0.125   0.051   2.425  0.00  0.00    +0.239 C 
ATOM     20  O   UNL     1      -0.074   1.250   2.445  0.00  0.00    -0.271 OA
ATOM     21  N   UNL     1       0.348  -0.615   3.575  0.00  0.00    -0.295 N 
ATOM     22  C   UNL     1       0.587  -2.060   3.551  0.00  0.00    +0.132 C 
BRANCH  19  25
ATOM     23  C   UNL     1      -0.774   1.357   0.088  0.00  0.00    +0.039 C 
ATOM     24  C   UNL     1      -0.223  -0.044   0.025  0.00  0.00    -0.071 C 
ATOM     25  C   UNL     1       0.122  -0.674   1.145  0.00  0.00    +0.066 C 
ATOM     26  C   UNL     1      -0.064  -0.733  -1.306  0.00  0.00    +0.039 C 
ENDBRANCH  19  25
ENDBRANCH  18  21
ENDBRANCH   1  18
TORSDOF 5
