REMARK  Name = ZINC67514551
REMARK  5 active torsions:
REMARK  status: ('A' for Active; 'I' for Inactive)
REMARK    1  A    between atoms: C_1  and  C_2
REMARK    2  A    between atoms: C_7  and  C_8
REMARK    3  A    between atoms: N_10  and  C_11
REMARK    4  A    between atoms: N_15  and  C_16
REMARK    5  A    between atoms: C_26  and  N_28
REMARK                            x       y       z     vdW  Elec       q    Type
REMARK                         _______ _______ _______ _____ _____    ______ ____
ROOT
ATOM      1  C   UNL     1       0.616   0.035   4.826  0.00  0.00    +0.124 A 
ATOM      2  C   UNL     1       0.539   1.384   4.994  0.00  0.00    +0.065 A 
ATOM      3  C   UNL     1       0.728   1.658   6.351  0.00  0.00    +0.136 A 
ATOM      4  N   UNL     1       0.912   0.526   6.980  0.00  0.00    -0.178 NA
ATOM      5  N   UNL     1       0.841  -0.516   6.046  0.00  0.00    -0.247 N 
ENDROOT
BRANCH   5   6
ATOM      6  C   UNL     1       0.987  -1.945   6.335  0.00  0.00    +0.112 C 
ATOM      7  C   UNL     1      -0.100  -2.380   7.320  0.00  0.00    +0.046 C 
ATOM      8  C   UNL     1       0.035  -3.881   7.593  0.00  0.00    +0.110 C 
ATOM      9  N   UNL     1       1.405  -4.159   8.044  0.00  0.00    -0.301 N 
ATOM     10  C   UNL     1       2.529  -3.703   7.215  0.00  0.00    +0.110 C 
ATOM     11  C   UNL     1       2.366  -2.203   6.947  0.00  0.00    +0.046 C 
ATOM     12  C   UNL     1       1.633  -4.838   9.229  0.00  0.00    +0.197 A 
ATOM     13  N   UNL     1       2.874  -4.959   9.675  0.00  0.00    -0.334 N 
ATOM     14  C   UNL     1       3.132  -5.601  10.805  0.00  0.00    +0.089 A 
ATOM     15  C   UNL     1       2.088  -6.149  11.524  0.00  0.00    +0.061 A 
ATOM     16  C   UNL     1       0.790  -6.005  11.029  0.00  0.00    +0.121 A 
ATOM     17  N   UNL     1       0.604  -5.344   9.891  0.00  0.00    -0.201 NA
ATOM     18  H   UNL     1       3.605  -4.573   9.167  0.00  0.00    +0.168 HD
BRANCH  16  19
ATOM     19  N   UNL     1      -0.287  -6.539  11.717  0.00  0.00    -0.343 N 
ATOM     20  H   UNL     1      -0.143  -7.017  12.549  0.00  0.00    +0.144 HD
ATOM     21  H   UNL     1      -1.186  -6.435  11.367  0.00  0.00    +0.144 HD
ENDBRANCH  16  19
ENDBRANCH   5   6
BRANCH   1  24
ATOM     22  C   UNL     1       0.261   0.023   2.478  0.00  0.00    +0.250 C 
ATOM     23  O   UNL     1       0.176   1.235   2.496  0.00  0.00    -0.270 OA
ATOM     24  N   UNL     1       0.483  -0.655   3.622  0.00  0.00    -0.267 N 
ATOM     25  H   UNL     1       0.550  -1.622   3.607  0.00  0.00    +0.157 HD
BRANCH  22  32
ATOM     26  C   UNL     1      -0.133   1.498   0.020  0.00  0.00    +0.044 C 
ATOM     27  C   UNL     1      -0.070  -0.008   0.009  0.00  0.00    -0.038 A 
ATOM     28  C   UNL     1      -0.196  -0.697  -1.180  0.00  0.00    +0.004 A 
ATOM     29  C   UNL     1      -0.140  -2.079  -1.191  0.00  0.00    +0.000 A 
ATOM     30  C   UNL     1       0.042  -2.780  -0.012  0.00  0.00    +0.001 A 
ATOM     31  C   UNL     1       0.170  -2.104   1.183  0.00  0.00    +0.013 A 
ATOM     32  C   UNL     1       0.120  -0.709   1.201  0.00  0.00    +0.040 A 
ENDBRANCH  22  32
ENDBRANCH   1  24
TORSDOF 4
