REMARK  Name = ZINC37447618
REMARK  6 active torsions:
REMARK  status: ('A' for Active; 'I' for Inactive)
REMARK    1  A    between atoms: C_1  and  C_2
REMARK    2  A    between atoms: C_2  and  N_3
REMARK    3  A    between atoms: N_3  and  C_4
REMARK    4  A    between atoms: C_4  and  C_5
REMARK    5  A    between atoms: C_4  and  C_6
REMARK    6  A    between atoms: C_4  and  C_16
REMARK                            x       y       z     vdW  Elec       q    Type
REMARK                         _______ _______ _______ _____ _____    ______ ____
ROOT
ATOM      1  C   UNL     1       0.710  -1.947  -1.215  0.00  0.00    +0.066 C 
ATOM      2  C   UNL     1       1.450  -2.454   0.025  0.00  0.00    +0.008 C 
ENDROOT
BRANCH   1   3
ATOM      3  C   UNL     1       1.415  -2.433  -2.455  0.00  0.00    +0.104 A 
ATOM      4  C   UNL     1       1.603  -3.720  -2.775  0.00  0.00    +0.052 A 
ATOM      5  C   UNL     1       2.327  -3.722  -4.052  0.00  0.00    +0.021 A 
ATOM      6  C   UNL     1       2.810  -4.721  -4.897  0.00  0.00    +0.027 A 
ATOM      7  C   UNL     1       3.466  -4.372  -6.058  0.00  0.00    +0.019 A 
ATOM      8  C   UNL     1       3.645  -3.034  -6.385  0.00  0.00    +0.019 A 
ATOM      9  C   UNL     1       3.171  -2.038  -5.558  0.00  0.00    +0.048 A 
ATOM     10  C   UNL     1       2.507  -2.369  -4.384  0.00  0.00    +0.135 A 
ATOM     11  O   UNL     1       1.941  -1.637  -3.402  0.00  0.00    -0.461 OA
ATOM     12 BR   UNL     1       4.125  -5.720  -7.208  0.00  0.00    -0.050 Br
ENDBRANCH   1   3
BRANCH   1  13
ATOM     13  C   UNL     1      -0.704  -2.468  -1.204  0.00  0.00    +0.207 C 
ATOM     14  O   UNL     1      -0.970  -3.489  -0.604  0.00  0.00    -0.277 OA
ATOM     15  N   UNL     1      -1.674  -1.801  -1.861  0.00  0.00    -0.330 N 
ATOM     16  H   UNL     1      -1.461  -0.985  -2.340  0.00  0.00    +0.145 HD
ATOM     17  H   UNL     1      -2.584  -2.137  -1.854  0.00  0.00    +0.145 HD
ENDBRANCH   1  13
BRANCH   1  18
ATOM     18  N   UNL     1       0.690  -0.478  -1.207  0.00  0.00    +0.393 N 
ATOM     19  H   UNL     1       0.202  -0.144  -2.024  0.00  0.00    -0.084 HD
ATOM     20  H   UNL     1       1.636  -0.129  -1.214  0.00  0.00    -0.084 HD
BRANCH  18  22
ATOM     21  C   UNL     1      -0.019   1.526   0.010  0.00  0.00    -0.017 C 
ATOM     22  C   UNL     1       0.002  -0.004   0.002  0.00  0.00    -0.084 C 
ENDBRANCH  18  22
ENDBRANCH   1  18
TORSDOF 4
