REMARK  Name = ZINC44032653
REMARK  10 active torsions:
REMARK  status: ('A' for Active; 'I' for Inactive)
REMARK    1  A    between atoms: C_1  and  C_2
REMARK    2  A    between atoms: C_2  and  C_3
REMARK    3  A    between atoms: C_3  and  C_4
REMARK    4  A    between atoms: C_8  and  N_21
REMARK    5  A    between atoms: C_10  and  N_13
REMARK    6  A    between atoms: C_14  and  C_20
REMARK    7  A    between atoms: C_15  and  C_19
REMARK    8  A    between atoms: C_16  and  C_18
REMARK    9  A    between atoms: N_21  and  C_22
REMARK   10  A    between atoms: C_22  and  C_23
REMARK                            x       y       z     vdW  Elec       q    Type
REMARK                         _______ _______ _______ _____ _____    ______ ____
ROOT
ATOM      1  C   UNL     1       0.763  -2.041   1.233  0.00  0.00    -0.009 C 
ATOM      2  C   UNL     1      -0.666  -2.571   1.370  0.00  0.00    +0.002 C 
ATOM      3  C   UNL     1      -0.645  -4.101   1.361  0.00  0.00    -0.013 C 
ATOM      4  C   UNL     1       0.200  -4.606   2.532  0.00  0.00    -0.047 C 
ATOM      5  C   UNL     1       1.629  -4.076   2.396  0.00  0.00    +0.094 C 
ATOM      6  C   UNL     1       1.608  -2.546   2.404  0.00  0.00    +0.028 C 
ENDROOT
BRANCH   5   7
ATOM      7  N   UNL     1       2.439  -4.559   3.517  0.00  0.00    -0.267 N 
ATOM      8  C   UNL     1       3.550  -5.318   3.424  0.00  0.00    +0.040 A 
ATOM      9  C   UNL     1       3.998  -5.549   4.680  0.00  0.00    -0.007 A 
ATOM     10  C   UNL     1       3.131  -4.909   5.571  0.00  0.00    +0.063 A 
ATOM     11  N   UNL     1       2.199  -4.310   4.874  0.00  0.00    -0.176 NA
ATOM     12  C   UNL     1       3.252  -4.904   7.073  0.00  0.00    +0.068 C 
ATOM     13  C   UNL     1       5.217  -6.354   5.053  0.00  0.00    +0.047 C 
ATOM     14  C   UNL     1       4.180  -5.820   2.150  0.00  0.00    +0.065 C 
ENDBRANCH   5   7
BRANCH   4  15
ATOM     15  N   UNL     1       0.220  -6.075   2.524  0.00  0.00    +0.382 N 
ATOM     16  H   UNL     1       0.542  -6.402   1.625  0.00  0.00    -0.085 HD
ATOM     17  H   UNL     1       0.843  -6.407   3.245  0.00  0.00    -0.085 HD
BRANCH  15  18
ATOM     18  C   UNL     1      -1.135  -6.584   2.775  0.00  0.00    -0.086 C 
ATOM     19  C   UNL     1      -1.114  -8.114   2.766  0.00  0.00    -0.017 C 
ENDBRANCH  15  18
ENDBRANCH   4  15
BRANCH   1  20
ATOM     20  C   UNL     1       0.742  -0.511   1.242  0.00  0.00    +0.003 C 
BRANCH  20  22
ATOM     21  C   UNL     1      -0.019   1.526   0.010  0.00  0.00    +0.004 C 
ATOM     22  C   UNL     1       0.002  -0.004   0.002  0.00  0.00    -0.003 C 
ENDBRANCH  20  22
ENDBRANCH   1  20
TORSDOF 5
