REMARK  Name = ZINC08970997
REMARK  7 active torsions:
REMARK  status: ('A' for Active; 'I' for Inactive)
REMARK    1  A    between atoms: C_4  and  C_7
REMARK    2  A    between atoms: C_10  and  C_30
REMARK    3  A    between atoms: C_15  and  C_17
REMARK    4  A    between atoms: N_19  and  C_20
REMARK    5  A    between atoms: C_20  and  C_21
REMARK    6  A    between atoms: C_21  and  C_22
REMARK    7  A    between atoms: C_22  and  N_23
REMARK                            x       y       z     vdW  Elec       q    Type
REMARK                         _______ _______ _______ _____ _____    ______ ____
ROOT
ATOM      1  C   UNL     1       3.711  -0.707  -0.038  0.00  0.00    +0.104 C 
ATOM      2  C   UNL     1       4.048  -1.192   1.377  0.00  0.00    +0.063 C 
ATOM      3  C   UNL     1       2.911  -2.069   1.913  0.00  0.00    +0.215 C 
ATOM      4  N   UNL     1       2.581  -3.085   0.909  0.00  0.00    -0.237 N 
ATOM      5  C   UNL     1       2.917  -2.983  -0.411  0.00  0.00    +0.137 A 
ATOM      6  C   UNL     1       2.467  -4.084  -1.045  0.00  0.00    +0.112 A 
ATOM      7  C   UNL     1       1.827  -4.899  -0.084  0.00  0.00    +0.167 A 
ATOM      8  N   UNL     1       1.900  -4.288   1.087  0.00  0.00    -0.163 NA
ATOM      9 CL   UNL     1       2.643  -4.438  -2.736  0.00  0.00    -0.078 Cl
ATOM     10  N   UNL     1       3.612  -1.879  -0.929  0.00  0.00    -0.321 N 
ATOM     11  H   UNL     1       4.004  -1.885  -1.816  0.00  0.00    +0.148 HD
ENDROOT
BRANCH   1  15
ATOM     12  C   UNL     1      -0.017   1.378   0.010  0.00  0.00    +0.000 A 
ATOM     13  C   UNL     1       1.171   2.086   0.002  0.00  0.00    +0.000 A 
ATOM     14  C   UNL     1       2.377   1.411  -0.013  0.00  0.00    +0.005 A 
ATOM     15  C   UNL     1       2.396   0.029  -0.020  0.00  0.00    -0.027 A 
ATOM     16  C   UNL     1       1.208  -0.679  -0.012  0.00  0.00    +0.005 A 
ATOM     17  C   UNL     1       0.002  -0.004   0.002  0.00  0.00    +0.000 A 
ENDBRANCH   1  15
BRANCH   7  18
ATOM     18  C   UNL     1       1.185  -6.204  -0.342  0.00  0.00    +0.266 C 
ATOM     19  O   UNL     1       1.180  -6.666  -1.466  0.00  0.00    -0.268 OA
ATOM     20  N   UNL     1       0.607  -6.882   0.669  0.00  0.00    -0.310 N 
ATOM     21  H   UNL     1       0.611  -6.513   1.566  0.00  0.00    +0.149 HD
BRANCH  20  22
ATOM     22  C   UNL     1      -0.030  -8.176   0.412  0.00  0.00    +0.106 C 
BRANCH  22  23
ATOM     23  C   UNL     1      -0.605  -8.729   1.718  0.00  0.00    +0.040 C 
BRANCH  23  24
ATOM     24  C   UNL     1      -1.269 -10.081   1.450  0.00  0.00    +0.124 C 
BRANCH  24  25
ATOM     25  N   UNL     1      -1.820 -10.611   2.700  0.00  0.00    -0.338 N 
ATOM     26  C   UNL     1      -1.168 -11.409   3.601  0.00  0.00    +0.104 A 
ATOM     27  C   UNL     1      -2.037 -11.661   4.599  0.00  0.00    +0.101 A 
ATOM     28  N   UNL     1      -3.188 -11.032   4.315  0.00  0.00    -0.352 N 
ATOM     29  C   UNL     1      -3.063 -10.398   3.182  0.00  0.00    +0.173 A 
ATOM     30  H   UNL     1      -3.985 -11.045   4.867  0.00  0.00    +0.166 HD
ENDBRANCH  24  25
ENDBRANCH  23  24
ENDBRANCH  22  23
ENDBRANCH  20  22
ENDBRANCH   7  18
BRANCH   3  31
ATOM     31  C   UNL     1       3.357  -2.750   3.208  0.00  0.00    +0.412 C 
ATOM     32  F   UNL     1       3.682  -1.777   4.159  0.00  0.00    -0.168 F 
ATOM     33  F   UNL     1       2.317  -3.550   3.696  0.00  0.00    -0.168 F 
ATOM     34  F   UNL     1       4.478  -3.547   2.954  0.00  0.00    -0.168 F 
ENDBRANCH   3  31
TORSDOF 7
