REMARK  Name = ZINC48370310
REMARK  7 active torsions:
REMARK  status: ('A' for Active; 'I' for Inactive)
REMARK    1  A    between atoms: C_1  and  C_2
REMARK    2  A    between atoms: C_3  and  C_13
REMARK    3  A    between atoms: C_4  and  C_12
REMARK    4  A    between atoms: C_13  and  C_14
REMARK    5  A    between atoms: N_16  and  C_17
REMARK    6  A    between atoms: C_17  and  C_18
REMARK    7  A    between atoms: C_18  and  N_24
REMARK                            x       y       z     vdW  Elec       q    Type
REMARK                         _______ _______ _______ _____ _____    ______ ____
ROOT
ATOM      1  C   UNL     1      -3.584  -0.716   4.185  0.00  0.00    +0.217 C 
ATOM      2  O   UNL     1      -2.501  -0.486   3.689  0.00  0.00    -0.275 OA
ATOM      3  N   UNL     1      -4.613   0.129   3.977  0.00  0.00    -0.316 N 
ATOM      4  H   UNL     1      -5.479  -0.055   4.374  0.00  0.00    +0.149 HD
ENDROOT
BRANCH   1   5
ATOM      5  C   UNL     1      -3.778  -1.946   5.034  0.00  0.00    +0.134 C 
BRANCH   5   8
ATOM      6  C   UNL     1      -3.079  -3.847   2.941  0.00  0.00    +0.066 C 
ATOM      7  C   UNL     1      -2.145  -3.629   4.104  0.00  0.00    +0.047 A 
ATOM      8  C   UNL     1      -2.484  -2.715   5.108  0.00  0.00    +0.004 A 
ATOM      9  C   UNL     1      -1.632  -2.528   6.150  0.00  0.00    +0.049 A 
ATOM     10  N   UNL     1      -0.473  -3.236   6.189  0.00  0.00    -0.199 N 
ATOM     11  C   UNL     1      -0.172  -4.121   5.192  0.00  0.00    +0.255 A 
ATOM     12  N   UNL     1      -1.019  -4.302   4.173  0.00  0.00    -0.216 NA
ATOM     13  N   UNL     1       1.006  -4.662   5.486  0.00  0.00    -0.176 NA
ATOM     14  C   UNL     1       1.461  -4.154   6.628  0.00  0.00    +0.234 A 
ATOM     15  N   UNL     1       0.594  -3.279   7.096  0.00  0.00    -0.128 NA
ATOM     16  N   UNL     1       2.667  -4.494   7.235  0.00  0.00    -0.326 N 
ATOM     17  C   UNL     1      -1.969  -1.551   7.247  0.00  0.00    +0.066 C 
ATOM     18  H   UNL     1       3.250  -5.150   6.822  0.00  0.00    +0.145 HD
ATOM     19  H   UNL     1       2.925  -4.074   8.071  0.00  0.00    +0.145 HD
ENDBRANCH   5   8
ENDBRANCH   1   5
BRANCH   3  20
ATOM     20  C   UNL     1      -4.424   1.325   3.152  0.00  0.00    +0.092 C 
BRANCH  20  21
ATOM     21  C   UNL     1      -5.766   2.036   2.970  0.00  0.00    -0.050 C 
ATOM     22  C   UNL     1      -5.595   3.208   2.001  0.00  0.00    -0.010 C 
ATOM     23  C   UNL     1      -4.569   4.192   2.568  0.00  0.00    -0.001 C 
ATOM     24  C   UNL     1      -5.057   4.715   3.920  0.00  0.00    -0.000 C 
ATOM     25  C   UNL     1      -5.229   3.543   4.888  0.00  0.00    -0.001 C 
ATOM     26  C   UNL     1      -6.254   2.559   4.322  0.00  0.00    -0.010 C 
BRANCH  21  27
ATOM     27  N   UNL     1      -6.751   1.091   2.426  0.00  0.00    +0.384 N 
ATOM     28  C   UNL     1      -6.261   0.557   1.149  0.00  0.00    -0.078 C 
ATOM     29  C   UNL     1      -7.245  -0.488   0.618  0.00  0.00    -0.019 C 
ATOM     30  C   UNL     1      -8.613   0.168   0.408  0.00  0.00    -0.004 C 
ATOM     31  C   UNL     1      -9.080   0.785   1.729  0.00  0.00    -0.019 C 
ATOM     32  C   UNL     1      -8.029   1.783   2.219  0.00  0.00    -0.078 C 
ATOM     33  H   UNL     1      -6.883   0.332   3.077  0.00  0.00    -0.081 HD
ENDBRANCH  21  27
ENDBRANCH  20  21
ENDBRANCH   3  20
TORSDOF 5
