REMARK  Name = ZINC39556118
REMARK  6 active torsions:
REMARK  status: ('A' for Active; 'I' for Inactive)
REMARK    1  A    between atoms: C_1  and  C_2
REMARK    2  A    between atoms: C_4  and  N_8
REMARK    3  A    between atoms: C_9  and  C_11
REMARK    4  A    between atoms: C_11  and  S_12
REMARK    5  A    between atoms: S_12  and  C_13
REMARK    6  A    between atoms: C_25  and  C_27
REMARK                            x       y       z     vdW  Elec       q    Type
REMARK                         _______ _______ _______ _____ _____    ______ ____
ROOT
ATOM      1  C   UNL     1      -2.893  -7.316  -3.492  0.00  0.00    +0.248 C 
ATOM      2  N   UNL     1      -4.041  -6.555  -4.003  0.00  0.00    -0.356 N 
ATOM      3  C   UNL     1      -3.968  -5.982  -5.196  0.00  0.00    +0.048 A 
ATOM      4  C   UNL     1      -5.059  -5.246  -5.707  0.00  0.00    +0.026 A 
ATOM      5  C   UNL     1      -4.963  -4.666  -6.934  0.00  0.00    +0.002 A 
ATOM      6  C   UNL     1      -3.810  -4.780  -7.706  0.00  0.00    +0.001 A 
ATOM      7  C   UNL     1      -2.724  -5.476  -7.271  0.00  0.00    +0.013 A 
ATOM      8  C   UNL     1      -2.755  -6.100  -6.012  0.00  0.00    +0.038 A 
ATOM      9  C   UNL     1      -1.641  -6.824  -5.544  0.00  0.00    +0.128 C 
ATOM     10  N   UNL     1      -1.689  -7.426  -4.315  0.00  0.00    -0.204 N 
ATOM     11  N   UNL     1      -0.452  -8.057  -4.136  0.00  0.00    -0.249 N 
ATOM     12  C   UNL     1       0.271  -7.809  -5.250  0.00  0.00    +0.087 C 
ATOM     13  N   UNL     1      -0.439  -7.082  -6.073  0.00  0.00    -0.333 N 
ATOM     14  C   UNL     1       1.675  -8.294  -5.504  0.00  0.00    +0.082 C 
ATOM     15  H   UNL     1      -0.170  -8.571  -3.363  0.00  0.00    +0.171 HD
ATOM     16  H   UNL     1      -4.847  -6.472  -3.470  0.00  0.00    +0.162 HD
ATOM     17  H   UNL     1      -0.137  -6.774  -6.942  0.00  0.00    +0.168 HD
ENDROOT
BRANCH   1  18
ATOM     18  S   UNL     1      -2.407  -6.573  -1.910  0.00  0.00    -0.106 S 
BRANCH  18  19
ATOM     19  C   UNL     1      -1.851  -4.906  -2.361  0.00  0.00    +0.168 C 
BRANCH  19  21
ATOM     20  N   UNL     1      -0.957  -2.905  -1.213  0.00  0.00    -0.288 N 
ATOM     21  C   UNL     1      -1.413  -4.170  -1.120  0.00  0.00    +0.225 C 
ATOM     22  O   UNL     1      -1.470  -4.717  -0.039  0.00  0.00    -0.275 OA
ATOM     23  H   UNL     1      -0.911  -2.468  -2.078  0.00  0.00    +0.151 HD
BRANCH  20  27
ATOM     24  C   UNL     1      -0.018   1.503   0.010  0.00  0.00    +0.067 C 
ATOM     25  C   UNL     1       0.002  -0.004   0.002  0.00  0.00    +0.060 C 
ATOM     26  C   UNL     1      -1.086  -0.777   0.003  0.00  0.00    +0.045 C 
ATOM     27  C   UNL     1      -0.531  -2.190  -0.007  0.00  0.00    +0.239 C 
ATOM     28  N   UNL     1       0.926  -1.973  -0.013  0.00  0.00    -0.160 NA
ATOM     29  N   UNL     1       1.125  -0.756  -0.013  0.00  0.00    -0.157 NA
ENDBRANCH  20  27
ENDBRANCH  19  21
ENDBRANCH  18  19
ENDBRANCH   1  18
TORSDOF 4
