REMARK  Name = ZINC42581464
REMARK  12 active torsions:
REMARK  status: ('A' for Active; 'I' for Inactive)
REMARK    1  A    between atoms: C_1  and  C_2
REMARK    2  A    between atoms: C_2  and  C_3
REMARK    3  A    between atoms: C_3  and  C_4
REMARK    4  A    between atoms: C_8  and  N_21
REMARK    5  A    between atoms: C_10  and  N_13
REMARK    6  A    between atoms: N_13  and  C_14
REMARK    7  A    between atoms: N_13  and  C_18
REMARK    8  A    between atoms: C_14  and  C_15
REMARK    9  A    between atoms: C_15  and  C_16
REMARK   10  A    between atoms: C_15  and  C_17
REMARK   11  A    between atoms: C_18  and  C_19
REMARK   12  A    between atoms: C_18  and  C_20
REMARK                            x       y       z     vdW  Elec       q    Type
REMARK                         _______ _______ _______ _____ _____    ______ ____
ROOT
ATOM      1  C   UNL     1      -1.688  -1.510   0.204  0.00  0.00    -0.013 C 
ATOM      2  C   UNL     1      -1.796  -1.309  -1.309  0.00  0.00    +0.002 C 
ATOM      3  C   UNL     1      -1.873  -2.672  -2.000  0.00  0.00    -0.018 C 
ATOM      4  C   UNL     1      -3.104  -3.429  -1.497  0.00  0.00    -0.089 C 
ATOM      5  C   UNL     1      -2.997  -3.630   0.016  0.00  0.00    -0.083 C 
ATOM      6  C   UNL     1      -2.919  -2.267   0.707  0.00  0.00    -0.013 C 
ENDROOT
BRANCH   4   7
ATOM      7  N   UNL     1      -4.314  -2.655  -1.804  0.00  0.00    +0.379 N 
ATOM      8  H   UNL     1      -4.385  -2.523  -2.802  0.00  0.00    -0.090 HD
ATOM      9  H   UNL     1      -5.126  -3.155  -1.473  0.00  0.00    -0.090 HD
ATOM     10  H   UNL     1      -4.263  -1.756  -1.349  0.00  0.00    -0.090 HD
ENDBRANCH   4   7
BRANCH   5  11
ATOM     11  N   UNL     1      -4.178  -4.357   0.498  0.00  0.00    +0.382 N 
ATOM     12  H   UNL     1      -5.014  -3.873   0.205  0.00  0.00    -0.081 HD
BRANCH  11  13
ATOM     13  C   UNL     1      -4.179  -5.716  -0.060  0.00  0.00    -0.075 C 
ATOM     14  C   UNL     1      -3.393  -6.647   0.865  0.00  0.00    -0.014 C 
ATOM     15  C   UNL     1      -5.619  -6.216  -0.184  0.00  0.00    -0.014 C 
ENDBRANCH  11  13
BRANCH  11  16
ATOM     16  C   UNL     1      -4.143  -4.430   1.965  0.00  0.00    -0.075 C 
BRANCH  16  17
ATOM     17  C   UNL     1      -5.442  -5.057   2.475  0.00  0.00    -0.034 C 
ATOM     18  C   UNL     1      -5.410  -5.124   4.003  0.00  0.00    +0.005 C 
ATOM     19  C   UNL     1      -6.631  -4.203   2.027  0.00  0.00    +0.005 C 
ENDBRANCH  16  17
ENDBRANCH  11  16
ENDBRANCH   5  11
BRANCH   1  20
ATOM     20  C   UNL     1      -1.611  -0.147   0.895  0.00  0.00    +0.003 C 
BRANCH  20  22
ATOM     21  C   UNL     1      -0.239   1.922   1.179  0.00  0.00    +0.004 C 
ATOM     22  C   UNL     1      -0.316   0.559   0.488  0.00  0.00    -0.003 C 
ENDBRANCH  20  22
ENDBRANCH   1  20
TORSDOF 7
