REMARK  Name = ZINC18056890
REMARK  5 active torsions:
REMARK  status: ('A' for Active; 'I' for Inactive)
REMARK    1  A    between atoms: C_1  and  C_2
REMARK    2  A    between atoms: C_5  and  C_20
REMARK    3  A    between atoms: C_6  and  C_8
REMARK    4  A    between atoms: N_9  and  N_10
REMARK    5  A    between atoms: C_17  and  C_19
REMARK                            x       y       z     vdW  Elec       q    Type
REMARK                         _______ _______ _______ _____ _____    ______ ____
ROOT
ATOM      1  N   UNL     1       0.900  -4.537   3.826  0.00  0.00    -0.207 N 
ATOM      2  C   UNL     1       1.004  -5.901   3.908  0.00  0.00    +0.216 A 
ATOM      3  N   UNL     1       1.248  -6.481   5.115  0.00  0.00    -0.294 N 
ATOM      4  H   UNL     1       1.347  -5.932   5.909  0.00  0.00    +0.172 HD
ATOM      5  C   UNL     1       1.351  -7.825   5.204  0.00  0.00    +0.253 A 
ATOM      6  O   UNL     1       1.569  -8.362   6.277  0.00  0.00    -0.268 OA
ATOM      7  C   UNL     1       1.202  -8.593   4.035  0.00  0.00    +0.093 A 
ATOM      8  C   UNL     1       0.959  -7.955   2.853  0.00  0.00    +0.047 A 
ATOM      9  N   UNL     1       0.861  -6.628   2.818  0.00  0.00    -0.220 NA
ATOM     10  C   UNL     1       0.796  -8.755   1.587  0.00  0.00    +0.066 C 
ATOM     11  H   UNL     1       1.004  -3.993   4.622  0.00  0.00    +0.177 HD
ENDROOT
BRANCH   1  13
ATOM     12  C   UNL     1       0.546  -2.635   2.512  0.00  0.00    +0.138 C 
ATOM     13  N   UNL     1       0.644  -3.927   2.591  0.00  0.00    -0.188 NA
BRANCH  12  19
ATOM     14  C   UNL     1       0.028   1.495  -0.236  0.00  0.00    +0.044 C 
ATOM     15  C   UNL     1       0.025  -0.007  -0.116  0.00  0.00    -0.050 A 
ATOM     16  C   UNL     1      -0.231  -0.788  -1.229  0.00  0.00    +0.003 A 
ATOM     17  C   UNL     1      -0.235  -2.168  -1.129  0.00  0.00    +0.004 A 
ATOM     18  C   UNL     1       0.016  -2.775   0.085  0.00  0.00    -0.042 A 
ATOM     19  C   UNL     1       0.276  -1.994   1.212  0.00  0.00    -0.002 A 
ATOM     20  C   UNL     1       0.284  -0.601   1.102  0.00  0.00    +0.013 A 
ATOM     21  C   UNL     1       0.010  -4.279   0.192  0.00  0.00    +0.044 C 
ENDBRANCH  12  19
ENDBRANCH   1  13
TORSDOF 2
