REMARK  Name = ZINC01879261
REMARK  17 active torsions:
REMARK  status: ('A' for Active; 'I' for Inactive)
REMARK    1  A    between atoms: C_1  and  O_2
REMARK    2  A    between atoms: O_2  and  C_3
REMARK    3  A    between atoms: C_6  and  C_11
REMARK    4  A    between atoms: C_8  and  O_9
REMARK    5  A    between atoms: O_9  and  C_10
REMARK    6  A    between atoms: C_17  and  C_37
REMARK    7  A    between atoms: C_18  and  C_27
REMARK    8  A    between atoms: C_20  and  C_23
REMARK    9  A    between atoms: C_21  and  N_22
REMARK   10  A    between atoms: C_23  and  O_25
REMARK   11  A    between atoms: O_25  and  C_26
REMARK   12  A    between atoms: C_30  and  O_35
REMARK   13  A    between atoms: C_31  and  O_33
REMARK   14  A    between atoms: O_33  and  C_34
REMARK   15  A    between atoms: O_35  and  C_36
REMARK   16  A    between atoms: C_37  and  O_39
REMARK   17  A    between atoms: O_39  and  C_40
REMARK                            x       y       z     vdW  Elec       q    Type
REMARK                         _______ _______ _______ _____ _____    ______ ____
ROOT
ATOM      1  C   UNL     1      -0.532   2.375   0.593  0.00  0.00    +0.028 C 
ATOM      2  C   UNL     1       0.392   1.394   0.764  0.00  0.00    +0.079 A 
ATOM      3  C   UNL     1       0.226  -0.062   0.710  0.00  0.00    +0.271 A 
ATOM      4  O   UNL     1      -0.864  -0.556   0.488  0.00  0.00    -0.266 OA
ATOM      5  N   UNL     1       1.308  -0.840   0.911  0.00  0.00    -0.257 N 
ATOM      6  C   UNL     1       2.512  -0.211   1.157  0.00  0.00    +0.100 A 
ATOM      7  C   UNL     1       3.693  -0.868   1.380  0.00  0.00    +0.079 C 
ATOM      8  C   UNL     1       3.685  -2.384   1.356  0.00  0.00    +0.099 C 
ATOM      9  C   UNL     1       2.342  -3.030   1.081  0.00  0.00    +0.087 C 
ATOM     10  C   UNL     1       1.264  -2.236   0.881  0.00  0.00    +0.115 C 
ATOM     11  S   UNL     1       2.139   1.530   1.110  0.00  0.00    -0.065 S 
ENDROOT
BRANCH   1  15
ATOM     12  C   UNL     1       0.499   6.423   1.338  0.00  0.00    +0.162 A 
ATOM     13  C   UNL     1      -0.621   6.122   0.575  0.00  0.00    +0.050 A 
ATOM     14  C   UNL     1      -0.960   4.809   0.330  0.00  0.00    +0.012 A 
ATOM     15  C   UNL     1      -0.173   3.775   0.851  0.00  0.00    -0.020 A 
ATOM     16  C   UNL     1       0.954   4.080   1.625  0.00  0.00    +0.057 A 
ATOM     17  C   UNL     1       1.288   5.399   1.861  0.00  0.00    +0.162 A 
BRANCH  12  19
ATOM     18  C   UNL     1      -0.023   8.719   1.011  0.00  0.00    +0.277 C 
ATOM     19  O   UNL     1       0.828   7.720   1.577  0.00  0.00    -0.491 OA
ENDBRANCH  12  19
BRANCH  17  20
ATOM     20  O   UNL     1       2.384   5.699   2.609  0.00  0.00    -0.491 OA
ATOM     21  C   UNL     1       3.146   4.600   3.113  0.00  0.00    +0.277 C 
ENDBRANCH  17  20
ENDBRANCH   1  15
BRANCH   8  22
ATOM     22  C   UNL     1       4.654  -2.844   0.297  0.00  0.00    -0.031 A 
ATOM     23  C   UNL     1       4.399  -2.575  -1.035  0.00  0.00    +0.008 A 
ATOM     24  C   UNL     1       5.285  -2.994  -2.010  0.00  0.00    +0.050 A 
ATOM     25  C   UNL     1       6.433  -3.685  -1.653  0.00  0.00    +0.162 A 
ATOM     26  C   UNL     1       6.689  -3.955  -0.312  0.00  0.00    +0.162 A 
ATOM     27  C   UNL     1       5.799  -3.528   0.661  0.00  0.00    +0.054 A 
BRANCH  26  28
ATOM     28  O   UNL     1       7.814  -4.633   0.044  0.00  0.00    -0.491 OA
ATOM     29  C   UNL     1       8.012  -4.874   1.438  0.00  0.00    +0.277 C 
ENDBRANCH  26  28
BRANCH  25  30
ATOM     30  O   UNL     1       7.306  -4.097  -2.610  0.00  0.00    -0.491 OA
ATOM     31  C   UNL     1       6.978  -3.784  -3.965  0.00  0.00    +0.277 C 
ENDBRANCH  25  30
ENDBRANCH   8  22
BRANCH  10  32
ATOM     32  N   UNL     1       0.057  -2.838   0.634  0.00  0.00    -0.344 N 
ATOM     33  H   UNL     1      -0.534  -2.477  -0.044  0.00  0.00    +0.144 HD
ATOM     34  H   UNL     1      -0.204  -3.624   1.138  0.00  0.00    +0.144 HD
ENDBRANCH  10  32
BRANCH   9  35
ATOM     35  C   UNL     1       2.218  -4.427   1.036  0.00  0.00    +0.339 C 
ATOM     36  O   UNL     1       1.153  -4.934   0.734  0.00  0.00    -0.245 OA
BRANCH  35  37
ATOM     37  O   UNL     1       3.280  -5.209   1.328  0.00  0.00    -0.465 OA
ATOM     38  C   UNL     1       3.082  -6.622   1.262  0.00  0.00    +0.280 C 
ENDBRANCH  35  37
ENDBRANCH   9  35
BRANCH   7  39
ATOM     39  C   UNL     1       4.877  -0.159   1.624  0.00  0.00    +0.338 C 
ATOM     40  O   UNL     1       4.864   1.060   1.640  0.00  0.00    -0.245 OA
BRANCH  39  41
ATOM     41  O   UNL     1       6.031  -0.825   1.841  0.00  0.00    -0.465 OA
ATOM     42  C   UNL     1       7.199  -0.038   2.082  0.00  0.00    +0.280 C 
ENDBRANCH  39  41
ENDBRANCH   7  39
TORSDOF 11
