REMARK  Name = ZINC35009714
REMARK  8 active torsions:
REMARK  status: ('A' for Active; 'I' for Inactive)
REMARK    1  A    between atoms: C_1  and  C_2
REMARK    2  A    between atoms: C_2  and  C_3
REMARK    3  A    between atoms: C_2  and  C_4
REMARK    4  A    between atoms: N_6  and  C_7
REMARK    5  A    between atoms: C_7  and  C_8
REMARK    6  A    between atoms: C_8  and  N_9
REMARK    7  A    between atoms: N_9  and  C_10
REMARK    8  A    between atoms: C_16  and  C_18
REMARK                            x       y       z     vdW  Elec       q    Type
REMARK                         _______ _______ _______ _____ _____    ______ ____
ROOT
ATOM      1  N   UNL     1       0.859  -0.337   6.122  0.00  0.00    +0.382 N 
ATOM      2  H   UNL     1       0.782  -1.326   5.935  0.00  0.00    -0.085 HD
ATOM      3  H   UNL     1       1.832  -0.074   6.148  0.00  0.00    -0.085 HD
ENDROOT
BRANCH   1   4
ATOM      4  C   UNL     1       0.234  -0.034   7.417  0.00  0.00    -0.068 C 
ATOM      5  C   UNL     1      -1.201  -0.563   7.427  0.00  0.00    -0.015 C 
ATOM      6  C   UNL     1      -1.851  -0.247   8.776  0.00  0.00    -0.002 C 
ATOM      7  C   UNL     1      -1.052  -0.916   9.896  0.00  0.00    +0.000 C 
ATOM      8  C   UNL     1       0.383  -0.386   9.886  0.00  0.00    +0.002 C 
ATOM      9  C   UNL     1       1.033  -0.702   8.537  0.00  0.00    -0.022 C 
BRANCH   9  10
ATOM     10  C   UNL     1       2.469  -0.173   8.526  0.00  0.00    -0.009 C 
ATOM     11  C   UNL     1       2.458   1.335   8.785  0.00  0.00    +0.004 C 
ATOM     12  C   UNL     1       3.893   1.865   8.774  0.00  0.00    +0.000 C 
ATOM     13  C   UNL     1       4.703   1.166   9.868  0.00  0.00    +0.000 C 
ATOM     14  C   UNL     1       4.714  -0.342   9.609  0.00  0.00    +0.000 C 
ATOM     15  C   UNL     1       3.278  -0.872   9.620  0.00  0.00    +0.004 C 
ENDBRANCH   9  10
ENDBRANCH   1   4
BRANCH   1  16
ATOM     16  C   UNL     1       0.177   0.416   5.061  0.00  0.00    -0.063 C 
BRANCH  16  17
ATOM     17  C   UNL     1       0.827   0.100   3.712  0.00  0.00    +0.085 C 
BRANCH  17  20
ATOM     18  C   UNL     1       0.551   0.730   1.375  0.00  0.00    +0.216 C 
ATOM     19  O   UNL     1       1.479  -0.002   1.099  0.00  0.00    -0.276 OA
ATOM     20  N   UNL     1       0.147   0.852   2.654  0.00  0.00    -0.317 N 
ATOM     21  H   UNL     1      -0.595   1.437   2.875  0.00  0.00    +0.149 HD
BRANCH  18  23
ATOM     22  C   UNL     1      -0.031   3.002   0.570  0.00  0.00    +0.017 C 
ATOM     23  C   UNL     1      -0.148   1.502   0.286  0.00  0.00    +0.069 C 
ATOM     24  C   UNL     1       0.502   1.186  -1.062  0.00  0.00    +0.017 C 
ENDBRANCH  18  23
ENDBRANCH  17  20
ENDBRANCH  16  17
ENDBRANCH   1  16
TORSDOF 6
