REMARK  Name = ZINC39665485
REMARK  7 active torsions:
REMARK  status: ('A' for Active; 'I' for Inactive)
REMARK    1  A    between atoms: C_1  and  C_2
REMARK    2  A    between atoms: C_2  and  C_4
REMARK    3  A    between atoms: C_2  and  O_30
REMARK    4  A    between atoms: C_4  and  N_5
REMARK    5  A    between atoms: C_6  and  C_8
REMARK    6  A    between atoms: C_19  and  C_21
REMARK    7  A    between atoms: O_30  and  C_31
REMARK                            x       y       z     vdW  Elec       q    Type
REMARK                         _______ _______ _______ _____ _____    ______ ____
ROOT
ATOM      1  C   UNL     1       1.660  -4.296  -2.669  0.00  0.00    +0.100 C 
ATOM      2  C   UNL     1       0.293  -4.933  -3.004  0.00  0.00    +0.121 C 
ATOM      3  N   UNL     1       0.288  -5.053  -4.481  0.00  0.00    -0.296 N 
ATOM      4  C   UNL     1       1.672  -5.461  -4.823  0.00  0.00    +0.115 C 
ATOM      5  C   UNL     1       2.563  -4.648  -3.863  0.00  0.00    -0.004 C 
ATOM      6  C   UNL     1       3.051  -3.375  -4.549  0.00  0.00    -0.010 C 
ATOM      7  C   UNL     1       3.992  -3.749  -5.697  0.00  0.00    -0.082 C 
ATOM      8  N   UNL     1       5.130  -4.513  -5.171  0.00  0.00    +0.379 N 
ATOM      9  C   UNL     1       4.661  -5.779  -4.595  0.00  0.00    -0.082 C 
ATOM     10  C   UNL     1       3.748  -5.491  -3.400  0.00  0.00    -0.010 C 
ATOM     11  C   UNL     1      -0.742  -4.840  -5.324  0.00  0.00    +0.252 C 
ATOM     12  O   UNL     1      -0.587  -4.982  -6.522  0.00  0.00    -0.270 OA
ATOM     13  H   UNL     1       5.779  -4.705  -5.919  0.00  0.00    -0.086 HD
ATOM     14  H   UNL     1       5.595  -3.972  -4.457  0.00  0.00    -0.086 HD
ENDROOT
BRANCH  11  15
ATOM     15  C   UNL     1      -2.058  -4.435  -4.793  0.00  0.00    +0.108 A 
ATOM     16  C   UNL     1      -2.368  -3.079  -4.642  0.00  0.00    +0.138 A 
ATOM     17  C   UNL     1      -3.603  -2.708  -4.144  0.00  0.00    +0.041 A 
ATOM     18  C   UNL     1      -4.531  -3.672  -3.796  0.00  0.00    +0.026 A 
ATOM     19  C   UNL     1      -4.233  -5.016  -3.943  0.00  0.00    +0.077 A 
ATOM     20  C   UNL     1      -3.004  -5.404  -4.445  0.00  0.00    +0.156 A 
ATOM     21  F   UNL     1      -2.716  -6.716  -4.593  0.00  0.00    -0.203 F 
ATOM     22 CL   UNL     1      -5.407  -6.216  -3.502  0.00  0.00    -0.081 Cl
ATOM     23  F   UNL     1      -1.463  -2.135  -4.980  0.00  0.00    -0.205 F 
ENDBRANCH  11  15
BRANCH   1  25
ATOM     24  N   UNL     1       2.360  -2.117  -1.730  0.00  0.00    -0.312 N 
ATOM     25  C   UNL     1       1.524  -2.801  -2.536  0.00  0.00    +0.218 C 
ATOM     26  O   UNL     1       0.661  -2.214  -3.154  0.00  0.00    -0.275 OA
ATOM     27  H   UNL     1       3.050  -2.587  -1.236  0.00  0.00    +0.149 HD
BRANCH  24  28
ATOM     28  C   UNL     1       2.228  -0.664  -1.601  0.00  0.00    +0.148 C 
BRANCH  28  30
ATOM     29  C   UNL     1       3.074   1.358  -0.403  0.00  0.00    +0.053 C 
ATOM     30  C   UNL     1       3.291  -0.139  -0.634  0.00  0.00    +0.187 C 
BRANCH  30  31
ATOM     31  O   UNL     1       4.589  -0.352  -1.192  0.00  0.00    -0.488 OA
BRANCH  31  32
ATOM     32  C   UNL     1       5.629  -0.429  -0.321  0.00  0.00    +0.121 A 
ATOM     33  C   UNL     1       5.422  -0.196   1.031  0.00  0.00    +0.045 A 
ATOM     34  C   UNL     1       6.482  -0.275   1.914  0.00  0.00    +0.004 A 
ATOM     35  C   UNL     1       7.747  -0.586   1.452  0.00  0.00    +0.000 A 
ATOM     36  C   UNL     1       7.956  -0.818   0.105  0.00  0.00    +0.004 A 
ATOM     37  C   UNL     1       6.899  -0.746  -0.781  0.00  0.00    +0.045 A 
ENDBRANCH  31  32
ENDBRANCH  30  31
ENDBRANCH  28  30
ENDBRANCH  24  28
ENDBRANCH   1  25
TORSDOF 6
