REMARK  Name = ZINC51886828
REMARK  6 active torsions:
REMARK  status: ('A' for Active; 'I' for Inactive)
REMARK    1  A    between atoms: C_1  and  N_2
REMARK    2  A    between atoms: N_2  and  C_3
REMARK    3  A    between atoms: C_11  and  C_13
REMARK    4  A    between atoms: C_13  and  N_14
REMARK    5  A    between atoms: C_17  and  C_20
REMARK    6  A    between atoms: C_20  and  O_21
REMARK                            x       y       z     vdW  Elec       q    Type
REMARK                         _______ _______ _______ _____ _____    ______ ____
ROOT
ATOM      1  C   UNL     1      -0.018   1.461   0.010  0.00  0.00    +0.132 C 
ATOM      2  N   UNL     1       0.002  -0.004   0.002  0.00  0.00    -0.301 N 
ATOM      3  C   UNL     1       0.000  -0.672  -1.169  0.00  0.00    +0.199 C 
ATOM      4  O   UNL     1       0.017  -1.884  -1.175  0.00  0.00    -0.278 OA
ENDROOT
BRANCH   2   5
ATOM      5  C   UNL     1       0.024  -0.743   1.267  0.00  0.00    +0.098 C 
ATOM      6  C   UNL     1      -1.209  -0.372   2.107  0.00  0.00    +0.046 C 
ATOM      7  C   UNL     1      -1.036  -0.889   3.555  0.00  0.00    +0.168 C 
ATOM      8  S   UNL     1       0.791  -0.893   3.767  0.00  0.00    -0.029 S 
ATOM      9  O   UNL     1       1.151   0.119   4.697  0.00  0.00    -0.174 OA
ATOM     10  O   UNL     1       1.229  -2.228   3.982  0.00  0.00    -0.174 OA
ATOM     11  C   UNL     1       1.295  -0.360   2.077  0.00  0.00    +0.188 C 
ENDBRANCH   2   5
BRANCH   3  12
ATOM     12  C   UNL     1      -0.023   0.089  -2.470  0.00  0.00    +0.019 C 
BRANCH  12  13
ATOM     13  N   UNL     1      -0.020  -0.860  -3.591  0.00  0.00    +0.386 N 
ATOM     14  C   UNL     1      -1.309  -1.596  -3.642  0.00  0.00    -0.078 C 
ATOM     15  C   UNL     1      -1.380  -2.087  -5.110  0.00  0.00    -0.015 C 
ATOM     16  C   UNL     1      -0.773  -0.903  -5.899  0.00  0.00    -0.004 C 
ATOM     17  C   UNL     1       0.079  -0.131  -4.875  0.00  0.00    -0.073 C 
ATOM     18  H   UNL     1       0.748  -1.507  -3.499  0.00  0.00    -0.081 HD
BRANCH  16  19
ATOM     19  C   UNL     1       0.104  -1.421  -7.041  0.00  0.00    +0.157 C 
BRANCH  19  20
ATOM     20  O   UNL     1      -0.713  -2.089  -8.005  0.00  0.00    -0.395 OA
ATOM     21  H   UNL     1      -0.221  -2.443  -8.758  0.00  0.00    +0.209 HD
ENDBRANCH  19  20
ENDBRANCH  16  19
ENDBRANCH  12  13
ENDBRANCH   3  12
TORSDOF 5
