REMARK  Name = ZINC54560652
REMARK  13 active torsions:
REMARK  status: ('A' for Active; 'I' for Inactive)
REMARK    1  A    between atoms: C_1  and  C_2
REMARK    2  A    between atoms: C_2  and  N_3
REMARK    3  A    between atoms: N_3  and  C_4
REMARK    4  A    between atoms: C_8  and  C_21
REMARK    5  A    between atoms: C_11  and  C_13
REMARK    6  A    between atoms: C_13  and  N_14
REMARK    7  A    between atoms: N_14  and  C_15
REMARK    8  A    between atoms: N_14  and  C_16
REMARK    9  A    between atoms: C_16  and  C_17
REMARK   10  A    between atoms: C_17  and  C_19
REMARK   11  A    between atoms: C_17  and  O_20
REMARK   12  A    between atoms: C_21  and  C_22
REMARK   13  A    between atoms: C_21  and  C_23
REMARK                            x       y       z     vdW  Elec       q    Type
REMARK                         _______ _______ _______ _____ _____    ______ ____
ROOT
ATOM      1  C   UNL     1       0.733  -1.960   1.184  0.00  0.00    -0.070 C 
ATOM      2  C   UNL     1      -0.696  -2.490   1.321  0.00  0.00    -0.015 C 
ATOM      3  C   UNL     1      -1.300  -1.995   2.636  0.00  0.00    +0.002 C 
ATOM      4  C   UNL     1      -0.455  -2.500   3.807  0.00  0.00    -0.008 C 
ATOM      5  C   UNL     1       0.974  -1.970   3.671  0.00  0.00    +0.004 C 
ATOM      6  C   UNL     1       1.578  -2.465   2.355  0.00  0.00    -0.042 C 
ENDROOT
BRANCH   1   7
ATOM      7  N   UNL     1       0.713  -0.491   1.192  0.00  0.00    +0.381 N 
ATOM      8  H   UNL     1       1.659  -0.141   1.185  0.00  0.00    -0.086 HD
ATOM      9  H   UNL     1       0.240  -0.165   2.022  0.00  0.00    -0.086 HD
BRANCH   7  11
ATOM     10  C   UNL     1      -0.019   1.526   0.010  0.00  0.00    -0.017 C 
ATOM     11  C   UNL     1       0.002  -0.004   0.002  0.00  0.00    -0.086 C 
ENDBRANCH   7  11
ENDBRANCH   1   7
BRANCH   4  12
ATOM     12  C   UNL     1      -1.059  -2.006   5.123  0.00  0.00    -0.014 C 
ATOM     13  C   UNL     1      -2.487  -2.536   5.260  0.00  0.00    +0.007 C 
ATOM     14  C   UNL     1      -0.213  -2.510   6.294  0.00  0.00    +0.007 C 
ENDBRANCH   4  12
BRANCH   6  15
ATOM     15  C   UNL     1       3.007  -1.934   2.218  0.00  0.00    -0.077 C 
BRANCH  15  16
ATOM     16  N   UNL     1       3.847  -2.515   3.274  0.00  0.00    +0.380 N 
ATOM     17  C   UNL     1       3.951  -3.966   3.075  0.00  0.00    -0.096 C 
ATOM     18  H   UNL     1       3.433  -2.327   4.175  0.00  0.00    -0.082 HD
BRANCH  16  19
ATOM     19  C   UNL     1       5.187  -1.916   3.218  0.00  0.00    -0.048 C 
BRANCH  19  20
ATOM     20  C   UNL     1       6.024  -2.427   4.392  0.00  0.00    +0.095 C 
ATOM     21  C   UNL     1       7.420  -1.803   4.333  0.00  0.00    +0.035 C 
BRANCH  20  22
ATOM     22  O   UNL     1       5.392  -2.064   5.621  0.00  0.00    -0.394 OA
ATOM     23  H   UNL     1       5.284  -1.110   5.741  0.00  0.00    +0.210 HD
ENDBRANCH  20  22
ENDBRANCH  19  20
ENDBRANCH  16  19
ENDBRANCH  15  16
ENDBRANCH   6  15
TORSDOF 8
