REMARK  Name = ZINC63055643
REMARK  4 active torsions:
REMARK  status: ('A' for Active; 'I' for Inactive)
REMARK    1  A    between atoms: C_1  and  C_2
REMARK    2  A    between atoms: C_4  and  C_9
REMARK    3  A    between atoms: C_9  and  C_11
REMARK    4  A    between atoms: C_9  and  N_22
REMARK                            x       y       z     vdW  Elec       q    Type
REMARK                         _______ _______ _______ _____ _____    ______ ____
ROOT
ATOM      1  C   UNL     1       0.028  -2.816  -2.516  0.00  0.00    -0.013 C 
ENDROOT
BRANCH   1   2
ATOM      2  C   UNL     1      -1.366  -3.298  -2.824  0.00  0.00    -0.056 A 
ATOM      3  C   UNL     1      -1.853  -4.437  -2.209  0.00  0.00    +0.006 A 
ATOM      4  C   UNL     1      -3.132  -4.886  -2.485  0.00  0.00    +0.048 A 
ATOM      5  C   UNL     1      -3.928  -4.192  -3.380  0.00  0.00    +0.142 A 
ATOM      6  C   UNL     1      -3.437  -3.044  -4.000  0.00  0.00    +0.076 A 
ATOM      7  C   UNL     1      -2.157  -2.597  -3.715  0.00  0.00    +0.029 A 
ATOM      8  N   UNL     1      -4.252  -2.352  -4.907  0.00  0.00    -0.280 N 
ATOM      9  C   UNL     1      -5.577  -2.613  -4.926  0.00  0.00    +0.255 C 
ATOM     10  O   UNL     1      -6.298  -2.050  -5.723  0.00  0.00    -0.272 OA
ATOM     11  C   UNL     1      -6.158  -3.608  -3.953  0.00  0.00    +0.325 C 
ATOM     12  O   UNL     1      -5.188  -4.617  -3.662  0.00  0.00    -0.481 OA
ATOM     13  H   UNL     1      -3.871  -1.696  -5.511  0.00  0.00    +0.155 HD
ENDBRANCH   1   2
BRANCH   1  17
ATOM     14  C   UNL     1      -0.018   1.503   0.010  0.00  0.00    +0.047 C 
ATOM     15  C   UNL     1       0.002  -0.004   0.002  0.00  0.00    -0.015 A 
ATOM     16  C   UNL     1       0.006  -0.689  -1.199  0.00  0.00    +0.008 A 
ATOM     17  C   UNL     1       0.025  -2.071  -1.206  0.00  0.00    -0.057 A 
ATOM     18  C   UNL     1       0.040  -2.770  -0.014  0.00  0.00    +0.005 A 
ATOM     19  C   UNL     1       0.036  -2.088   1.188  0.00  0.00    +0.039 A 
ATOM     20  C   UNL     1       0.023  -0.703   1.197  0.00  0.00    +0.126 A 
ATOM     21  F   UNL     1       0.025  -0.035   2.371  0.00  0.00    -0.205 F 
ENDBRANCH   1  17
BRANCH   1  22
ATOM     22  N   UNL     1       0.935  -3.968  -2.421  0.00  0.00    +0.385 N 
ATOM     23  H   UNL     1       1.868  -3.646  -2.216  0.00  0.00    -0.089 HD
ATOM     24  H   UNL     1       0.621  -4.583  -1.685  0.00  0.00    -0.089 HD
ATOM     25  H   UNL     1       0.937  -4.468  -3.298  0.00  0.00    -0.089 HD
ENDBRANCH   1  22
TORSDOF 3
