REMARK  Name = ZINC41143462
REMARK  4 active torsions:
REMARK  status: ('A' for Active; 'I' for Inactive)
REMARK    1  A    between atoms: C_5  and  C_7
REMARK    2  A    between atoms: C_10  and  C_20
REMARK    3  A    between atoms: N_12  and  C_13
REMARK    4  A    between atoms: C_20  and  N_21
REMARK                            x       y       z     vdW  Elec       q    Type
REMARK                         _______ _______ _______ _____ _____    ______ ____
ROOT
ATOM      1  C   UNL     1       1.228  -2.186  -0.022  0.00  0.00    +0.136 C 
ATOM      2  C   UNL     1       1.318  -2.738   1.415  0.00  0.00    +0.079 C 
ATOM      3  C   UNL     1       0.044  -3.537   1.575  0.00  0.00    +0.022 C 
ATOM      4  N   UNL     1      -0.636  -3.480   0.504  0.00  0.00    -0.190 NA
ATOM      5  N   UNL     1      -0.053  -2.720  -0.513  0.00  0.00    -0.217 N 
ENDROOT
BRANCH   1  10
ATOM      6  C   UNL     1      -0.017   1.378   0.010  0.00  0.00    +0.000 A 
ATOM      7  C   UNL     1       1.171   2.087   0.002  0.00  0.00    +0.003 A 
ATOM      8  C   UNL     1       2.377   1.414  -0.013  0.00  0.00    +0.039 A 
ATOM      9  C   UNL     1       2.397   0.029  -0.021  0.00  0.00    +0.128 A 
ATOM     10  C   UNL     1       1.208  -0.679  -0.013  0.00  0.00    +0.010 A 
ATOM     11  C   UNL     1       0.002  -0.004   0.002  0.00  0.00    +0.008 A 
ATOM     12  F   UNL     1       3.577  -0.630  -0.036  0.00  0.00    -0.205 F 
ENDBRANCH   1  10
BRANCH   5  13
ATOM     13  C   UNL     1      -0.593  -2.501  -1.782  0.00  0.00    +0.052 A 
ATOM     14  C   UNL     1       0.095  -1.725  -2.707  0.00  0.00    +0.026 A 
ATOM     15  C   UNL     1      -0.442  -1.510  -3.961  0.00  0.00    +0.022 A 
ATOM     16  C   UNL     1      -1.663  -2.068  -4.298  0.00  0.00    +0.041 A 
ATOM     17  C   UNL     1      -2.351  -2.841  -3.379  0.00  0.00    +0.022 A 
ATOM     18  C   UNL     1      -1.817  -3.064  -2.125  0.00  0.00    +0.026 A 
ATOM     19 CL   UNL     1      -2.335  -1.796  -5.875  0.00  0.00    -0.084 Cl
ENDBRANCH   5  13
BRANCH   3  20
ATOM     20  C   UNL     1      -0.357  -4.290   2.817  0.00  0.00    -0.033 C 
BRANCH  20  21
ATOM     21  N   UNL     1      -1.654  -4.944   2.597  0.00  0.00    +0.382 N 
ATOM     22  H   UNL     1      -1.579  -5.587   1.823  0.00  0.00    -0.090 HD
ATOM     23  H   UNL     1      -1.922  -5.448   3.429  0.00  0.00    -0.090 HD
ATOM     24  H   UNL     1      -2.351  -4.245   2.387  0.00  0.00    -0.090 HD
ENDBRANCH  20  21
ENDBRANCH   3  20
TORSDOF 4
