REMARK  Name = ZINC14459478
REMARK  7 active torsions:
REMARK  status: ('A' for Active; 'I' for Inactive)
REMARK    1  A    between atoms: C_1  and  C_2
REMARK    2  A    between atoms: C_2  and  N_3
REMARK    3  A    between atoms: C_4  and  C_6
REMARK    4  A    between atoms: C_19  and  C_22
REMARK    5  A    between atoms: C_25  and  O_30
REMARK    6  A    between atoms: C_26  and  O_28
REMARK    7  A    between atoms: O_28  and  C_29
REMARK                            x       y       z     vdW  Elec       q    Type
REMARK                         _______ _______ _______ _____ _____    ______ ____
ROOT
ATOM      1  C   UNL     1      -4.312   0.870   2.308  0.00  0.00    +0.037 A 
ATOM      2  C   UNL     1      -4.774   0.070   1.258  0.00  0.00    +0.015 A 
ATOM      3  C   UNL     1      -6.060  -0.413   1.277  0.00  0.00    +0.024 A 
ATOM      4  C   UNL     1      -6.916  -0.106   2.333  0.00  0.00    +0.031 A 
ATOM      5  C   UNL     1      -6.457   0.710   3.377  0.00  0.00    -0.019 A 
ATOM      6  C   UNL     1      -5.170   1.188   3.365  0.00  0.00    +0.019 A 
ATOM      7  C   UNL     1      -7.411   1.033   4.461  0.00  0.00    +0.049 C 
ATOM      8  C   UNL     1      -6.956   1.368   5.834  0.00  0.00    -0.023 C 
ATOM      9  C   UNL     1      -7.881   0.962   6.697  0.00  0.00    -0.030 C 
ATOM     10  C   UNL     1      -9.030   0.282   5.950  0.00  0.00    +0.033 C 
ATOM     11  C   UNL     1      -8.324  -0.210   4.680  0.00  0.00    +0.029 C 
ATOM     12  C   UNL     1      -9.163  -0.323   3.420  0.00  0.00    +0.105 C 
ATOM     13  N   UNL     1      -8.209  -0.628   2.332  0.00  0.00    -0.336 N 
ATOM     14  H   UNL     1      -8.488  -1.204   1.602  0.00  0.00    +0.147 HD
ENDROOT
BRANCH  12  15
ATOM     15  C   UNL     1     -10.166  -1.438   3.561  0.00  0.00    -0.023 A 
ATOM     16  C   UNL     1      -9.773  -2.749   3.364  0.00  0.00    +0.009 A 
ATOM     17  C   UNL     1     -10.690  -3.776   3.492  0.00  0.00    +0.049 A 
ATOM     18  C   UNL     1     -12.007  -3.492   3.818  0.00  0.00    +0.158 A 
ATOM     19  C   UNL     1     -12.402  -2.172   4.016  0.00  0.00    +0.162 A 
ATOM     20  C   UNL     1     -11.477  -1.149   3.891  0.00  0.00    +0.054 A 
BRANCH  19  21
ATOM     21  O   UNL     1     -13.693  -1.889   4.337  0.00  0.00    -0.491 OA
ATOM     22  C   UNL     1     -14.028  -0.513   4.525  0.00  0.00    +0.277 C 
ENDBRANCH  19  21
BRANCH  18  23
ATOM     23  O   UNL     1     -12.910  -4.501   3.945  0.00  0.00    -0.503 OA
ATOM     24  H   UNL     1     -12.973  -4.862   4.840  0.00  0.00    +0.292 HD
ENDBRANCH  18  23
ENDBRANCH  12  15
BRANCH   1  26
ATOM     25  N   UNL     1      -2.103   1.072   1.277  0.00  0.00    -0.312 N 
ATOM     26  C   UNL     1      -2.928   1.381   2.298  0.00  0.00    +0.244 C 
ATOM     27  O   UNL     1      -2.531   2.080   3.210  0.00  0.00    -0.270 OA
ATOM     28  H   UNL     1      -2.420   0.514   0.550  0.00  0.00    +0.149 HD
BRANCH  25  30
ATOM     29  C   UNL     1      -0.013   1.086   0.008  0.00  0.00    +0.024 C 
ATOM     30  C   UNL     1      -0.729   1.579   1.267  0.00  0.00    +0.101 C 
ENDBRANCH  25  30
ENDBRANCH   1  26
TORSDOF 5
