REMARK  Name = ZINC08092623
REMARK  11 active torsions:
REMARK  status: ('A' for Active; 'I' for Inactive)
REMARK    1  A    between atoms: C_1  and  C_2
REMARK    2  A    between atoms: C_5  and  N_9
REMARK    3  A    between atoms: C_6  and  C_8
REMARK    4  A    between atoms: C_13  and  C_15
REMARK    5  A    between atoms: C_15  and  N_16
REMARK    6  A    between atoms: N_16  and  C_17
REMARK    7  A    between atoms: N_16  and  C_18
REMARK    8  A    between atoms: C_18  and  C_19
REMARK    9  A    between atoms: N_21  and  C_22
REMARK   10  A    between atoms: C_23  and  C_29
REMARK   11  A    between atoms: C_27  and  C_28
REMARK                            x       y       z     vdW  Elec       q    Type
REMARK                         _______ _______ _______ _____ _____    ______ ____
ROOT
ATOM      1  C   UNL     1       0.971  -9.116  -1.891  0.00  0.00    +0.019 C 
ENDROOT
BRANCH   1   6
ATOM      2  N   UNL     1       3.055  -5.939   1.054  0.00  0.00    -0.269 N 
ATOM      3  C   UNL     1       2.882  -6.418  -0.194  0.00  0.00    +0.310 C 
ATOM      4  O   UNL     1       3.466  -5.905  -1.128  0.00  0.00    -0.252 OA
ATOM      5  N   UNL     1       2.061  -7.466  -0.406  0.00  0.00    -0.241 N 
ATOM      6  C   UNL     1       1.889  -7.945  -1.654  0.00  0.00    +0.204 C 
ATOM      7  O   UNL     1       2.471  -7.433  -2.586  0.00  0.00    -0.277 OA
ATOM      8  H   UNL     1       2.646  -6.392   1.808  0.00  0.00    +0.156 HD
ATOM      9  H   UNL     1       1.595  -7.875   0.339  0.00  0.00    +0.159 HD
BRANCH   2  14
ATOM     10  C   UNL     1       6.174  -1.276   1.895  0.00  0.00    +0.044 C 
ATOM     11  C   UNL     1       5.346  -2.514   1.672  0.00  0.00    -0.050 A 
ATOM     12  C   UNL     1       5.672  -3.388   0.651  0.00  0.00    +0.005 A 
ATOM     13  C   UNL     1       4.915  -4.524   0.443  0.00  0.00    +0.024 A 
ATOM     14  C   UNL     1       3.825  -4.789   1.262  0.00  0.00    +0.038 A 
ATOM     15  C   UNL     1       3.499  -3.910   2.286  0.00  0.00    -0.029 A 
ATOM     16  C   UNL     1       4.264  -2.778   2.491  0.00  0.00    +0.008 A 
ATOM     17  C   UNL     1       2.317  -4.194   3.177  0.00  0.00    +0.045 C 
ENDBRANCH   2  14
ENDBRANCH   1   6
BRANCH   1  18
ATOM     18  N   UNL     1       0.955  -9.444  -3.323  0.00  0.00    +0.389 N 
ATOM     19  C   UNL     1       0.363  -8.328  -4.074  0.00  0.00    -0.095 C 
ATOM     20  H   UNL     1       1.899  -9.601  -3.643  0.00  0.00    -0.081 HD
BRANCH  18  21
ATOM     21  C   UNL     1       0.156 -10.657  -3.539  0.00  0.00    +0.019 C 
BRANCH  21  22
ATOM     22  C   UNL     1       0.240 -11.063  -4.988  0.00  0.00    +0.201 C 
ATOM     23  O   UNL     1       0.900 -10.405  -5.764  0.00  0.00    -0.278 OA
ATOM     24  N   UNL     1      -0.419 -12.156  -5.421  0.00  0.00    -0.287 N 
ATOM     25  H   UNL     1      -1.010 -12.636  -4.820  0.00  0.00    +0.155 HD
BRANCH  24  26
ATOM     26  C   UNL     1      -0.249 -12.600  -6.737  0.00  0.00    +0.039 A 
ATOM     27  C   UNL     1      -0.516 -11.745  -7.799  0.00  0.00    -0.029 A 
ATOM     28  C   UNL     1      -0.347 -12.186  -9.097  0.00  0.00    +0.005 A 
ATOM     29  C   UNL     1       0.087 -13.476  -9.340  0.00  0.00    +0.001 A 
ATOM     30  C   UNL     1       0.353 -14.329  -8.285  0.00  0.00    +0.005 A 
ATOM     31  C   UNL     1       0.192 -13.893  -6.984  0.00  0.00    -0.029 A 
ATOM     32  C   UNL     1       0.489 -14.821  -5.835  0.00  0.00    +0.045 C 
ATOM     33  C   UNL     1      -0.989 -10.339  -7.535  0.00  0.00    +0.045 C 
ENDBRANCH  24  26
ENDBRANCH  21  22
ENDBRANCH  18  21
ENDBRANCH   1  18
TORSDOF 6
