REMARK  Name = ZINC62712571
REMARK  8 active torsions:
REMARK  status: ('A' for Active; 'I' for Inactive)
REMARK    1  A    between atoms: C_1  and  C_2
REMARK    2  A    between atoms: C_3  and  C_20
REMARK    3  A    between atoms: C_8  and  O_15
REMARK    4  A    between atoms: C_11  and  N_12
REMARK    5  A    between atoms: N_12  and  C_13
REMARK    6  A    between atoms: N_12  and  C_14
REMARK    7  A    between atoms: O_15  and  C_16
REMARK    8  A    between atoms: C_20  and  N_21
REMARK                            x       y       z     vdW  Elec       q    Type
REMARK                         _______ _______ _______ _____ _____    ______ ____
ROOT
ATOM      1  C   UNL     1      -0.018   1.503   0.010  0.00  0.00    +0.047 C 
ATOM      2  C   UNL     1       0.002  -0.004   0.002  0.00  0.00    -0.008 A 
ATOM      3  C   UNL     1       0.006  -0.695  -1.203  0.00  0.00    +0.035 A 
ATOM      4  N   UNL     1       0.023  -2.006  -1.249  0.00  0.00    -0.357 N 
ATOM      5  C   UNL     1       0.038  -2.749  -0.135  0.00  0.00    +0.049 A 
ATOM      6  C   UNL     1       0.057  -4.153  -0.203  0.00  0.00    +0.030 A 
ATOM      7  C   UNL     1       0.073  -4.886   0.943  0.00  0.00    +0.048 A 
ATOM      8  C   UNL     1       0.070  -4.265   2.194  0.00  0.00    +0.131 A 
ATOM      9  C   UNL     1       0.051  -2.902   2.296  0.00  0.00    +0.057 A 
ATOM     10  C   UNL     1       0.036  -2.121   1.133  0.00  0.00    +0.023 A 
ATOM     11  C   UNL     1       0.023  -0.706   1.196  0.00  0.00    +0.043 A 
ATOM     12  H   UNL     1       0.024  -2.449  -2.112  0.00  0.00    +0.166 HD
ENDROOT
BRANCH  11  13
ATOM     13  N   UNL     1       0.026  -0.045   2.415  0.00  0.00    -0.335 N 
ATOM     14  C   UNL     1      -1.241   0.288   3.071  0.00  0.00    +0.129 C 
ATOM     15  C   UNL     1       1.296   0.322   3.047  0.00  0.00    +0.129 C 
ENDBRANCH  11  13
BRANCH   8  16
ATOM     16  O   UNL     1       0.086  -5.023   3.322  0.00  0.00    -0.406 OA
BRANCH  16  17
ATOM     17  C   UNL     1       0.104  -6.442   3.149  0.00  0.00    +0.575 C 
ATOM     18  F   UNL     1       1.248  -6.809   2.433  0.00  0.00    -0.133 F 
ATOM     19  F   UNL     1       0.118  -7.064   4.402  0.00  0.00    -0.133 F 
ATOM     20  F   UNL     1      -1.036  -6.841   2.443  0.00  0.00    -0.133 F 
ENDBRANCH  16  17
ENDBRANCH   8  16
BRANCH   3  21
ATOM     21  C   UNL     1      -0.011   0.083  -2.493  0.00  0.00    +0.131 C 
BRANCH  21  22
ATOM     22  N   UNL     1       1.345   0.560  -2.795  0.00  0.00    -0.325 NA
ATOM     23  H   UNL     1       2.000  -0.207  -2.827  0.00  0.00    +0.119 HD
ATOM     24  H   UNL     1       1.361   1.085  -3.656  0.00  0.00    +0.119 HD
ENDBRANCH  21  22
ENDBRANCH   3  21
TORSDOF 5
