REMARK  Name = ZINC04554849
REMARK  4 active torsions:
REMARK  status: ('A' for Active; 'I' for Inactive)
REMARK    1  A    between atoms: C_3  and  C_6
REMARK    2  A    between atoms: N_8  and  C_9
REMARK    3  A    between atoms: C_9  and  N_11
REMARK    4  A    between atoms: C_17  and  O_21
REMARK                            x       y       z     vdW  Elec       q    Type
REMARK                         _______ _______ _______ _____ _____    ______ ____
ROOT
ATOM      1  N   UNL     1       5.849   2.694  -0.038  0.00  0.00    -0.276 N 
ATOM      2  C   UNL     1       7.161   2.250  -0.053  0.00  0.00    +0.165 A 
ATOM      3  N   UNL     1       7.613   1.019  -0.063  0.00  0.00    -0.225 NA
ATOM      4  C   UNL     1       8.934   0.729  -0.077  0.00  0.00    +0.081 A 
ATOM      5  C   UNL     1       9.547  -0.544  -0.090  0.00  0.00    +0.032 A 
ATOM      6  C   UNL     1      10.912  -0.666  -0.103  0.00  0.00    +0.047 A 
ATOM      7  C   UNL     1      11.740   0.452  -0.105  0.00  0.00    +0.118 A 
ATOM      8  C   UNL     1      11.170   1.717  -0.093  0.00  0.00    +0.062 A 
ATOM      9  C   UNL     1       9.804   1.843  -0.079  0.00  0.00    +0.044 A 
ATOM     10  S   UNL     1       8.669   3.210  -0.069  0.00  0.00    -0.052 S 
ATOM     11  H   UNL     1       5.659   3.645  -0.032  0.00  0.00    +0.156 HD
ENDROOT
BRANCH   1  12
ATOM     12  C   UNL     1       4.837   1.804  -0.033  0.00  0.00    +0.143 C 
ATOM     13  S   UNL     1       5.173   0.126  -0.045  0.00  0.00    -0.018 S 
BRANCH  12  16
ATOM     14  C   UNL     1       2.548   1.346  -0.014  0.00  0.00    +0.256 C 
ATOM     15  O   UNL     1       2.787   0.153  -0.022  0.00  0.00    -0.269 OA
ATOM     16  N   UNL     1       3.560   2.236  -0.019  0.00  0.00    -0.263 N 
ATOM     17  H   UNL     1       3.370   3.187  -0.013  0.00  0.00    +0.157 HD
BRANCH  14  20
ATOM     18  C   UNL     1      -1.193   1.776   0.017  0.00  0.00    +0.008 A 
ATOM     19  C   UNL     1      -0.013   1.076   0.008  0.00  0.00    +0.021 A 
ATOM     20  C   UNL     1       1.160   1.816   0.001  0.00  0.00    +0.074 A 
ATOM     21  S   UNL     1       0.539   3.488   0.016  0.00  0.00    -0.092 S 
ATOM     22  C   UNL     1      -1.158   3.135   0.030  0.00  0.00    +0.046 A 
ENDBRANCH  14  20
ENDBRANCH  12  16
ENDBRANCH   1  12
BRANCH   7  23
ATOM     23  O   UNL     1      13.092   0.307  -0.119  0.00  0.00    -0.507 OA
ATOM     24  H   UNL     1      13.492   0.260   0.760  0.00  0.00    +0.292 HD
ENDBRANCH   7  23
TORSDOF 4
