REMARK  Name = ZINC37282778
REMARK  5 active torsions:
REMARK  status: ('A' for Active; 'I' for Inactive)
REMARK    1  A    between atoms: C_1  and  C_2
REMARK    2  A    between atoms: C_10  and  C_11
REMARK    3  A    between atoms: C_11  and  C_13
REMARK    4  A    between atoms: C_11  and  N_14
REMARK    5  A    between atoms: N_14  and  C_15
REMARK                            x       y       z     vdW  Elec       q    Type
REMARK                         _______ _______ _______ _____ _____    ______ ____
ROOT
ATOM      1  C   UNL     1      -0.307  -0.682   2.770  0.00  0.00    -0.036 C 
ATOM      2  C   UNL     1      -1.328  -1.542   3.517  0.00  0.00    -0.008 C 
ENDROOT
BRANCH   1  12
ATOM      3  C   UNL     1      -1.584   1.265   0.820  0.00  0.00    +0.045 C 
ATOM      4  C   UNL     1      -1.020  -0.064   0.387  0.00  0.00    -0.034 A 
ATOM      5  C   UNL     1      -1.067  -0.461  -1.013  0.00  0.00    -0.008 A 
ATOM      6  C   UNL     1      -1.594   0.249  -2.118  0.00  0.00    +0.009 A 
ATOM      7  C   UNL     1      -1.552  -0.282  -3.369  0.00  0.00    +0.001 A 
ATOM      8  C   UNL     1      -0.994  -1.531  -3.609  0.00  0.00    +0.001 A 
ATOM      9  C   UNL     1      -0.468  -2.254  -2.557  0.00  0.00    +0.015 A 
ATOM     10  C   UNL     1      -0.505  -1.727  -1.284  0.00  0.00    +0.020 A 
ATOM     11  S   UNL     1       0.036  -2.293   0.308  0.00  0.00    -0.095 S 
ATOM     12  C   UNL     1      -0.466  -0.890   1.286  0.00  0.00    -0.020 A 
ENDBRANCH   1  12
BRANCH   1  13
ATOM     13  N   UNL     1       1.050  -1.070   3.176  0.00  0.00    +0.391 N 
ATOM     14  H   UNL     1       1.171  -2.063   3.041  0.00  0.00    -0.084 HD
ATOM     15  H   UNL     1       1.725  -0.570   2.616  0.00  0.00    -0.084 HD
BRANCH  13  16
ATOM     16  C   UNL     1       1.251  -0.741   4.593  0.00  0.00    +0.017 C 
ATOM     17  C   UNL     1       1.774   0.692   4.720  0.00  0.00    -0.007 C 
ATOM     18  C   UNL     1       2.692   1.033   3.560  0.00  0.00    +0.000 C 
ATOM     19  C   UNL     1       3.989   0.245   3.554  0.00  0.00    +0.019 C 
ATOM     20  C   UNL     1       3.726  -1.238   3.288  0.00  0.00    +0.104 C 
ATOM     21  N   UNL     1       3.432  -1.901   4.570  0.00  0.00    -0.317 N 
ATOM     22  C   UNL     1       2.271  -1.684   5.196  0.00  0.00    +0.199 C 
ATOM     23  O   UNL     1       2.034  -2.238   6.248  0.00  0.00    -0.278 OA
ATOM     24  H   UNL     1       4.085  -2.501   4.963  0.00  0.00    +0.149 HD
ENDBRANCH  13  16
ENDBRANCH   1  13
TORSDOF 3
