REMARK  Name = ZINC00100041
REMARK  4 active torsions:
REMARK  status: ('A' for Active; 'I' for Inactive)
REMARK    1  A    between atoms: C_1  and  O_2
REMARK    2  A    between atoms: O_2  and  C_3
REMARK    3  A    between atoms: C_5  and  C_10
REMARK    4  A    between atoms: C_8  and  O_9
REMARK                            x       y       z     vdW  Elec       q    Type
REMARK                         _______ _______ _______ _____ _____    ______ ____
ROOT
ATOM      1  C   UNL     1       2.403   0.379  -4.230  0.00  0.00    +0.008 C 
ATOM      2  C   UNL     1       3.885   0.468  -4.008  0.00  0.00    +0.014 A 
ATOM      3  C   UNL     1       4.658  -0.283  -3.205  0.00  0.00    +0.022 A 
ATOM      4  C   UNL     1       5.983   0.188  -3.333  0.00  0.00    +0.020 A 
ATOM      5  C   UNL     1       5.968   1.212  -4.216  0.00  0.00    +0.091 A 
ATOM      6  N   UNL     1       4.692   1.381  -4.631  0.00  0.00    -0.321 N 
ATOM      7  C   UNL     1       4.142   2.294  -5.547  0.00  0.00    +0.048 A 
ATOM      8  C   UNL     1       4.473   3.634  -5.549  0.00  0.00    +0.026 A 
ATOM      9  C   UNL     1       3.845   4.489  -6.438  0.00  0.00    +0.002 A 
ATOM     10  C   UNL     1       2.892   3.999  -7.312  0.00  0.00    +0.000 A 
ATOM     11  C   UNL     1       2.579   2.651  -7.325  0.00  0.00    +0.004 A 
ATOM     12  C   UNL     1       3.223   1.789  -6.463  0.00  0.00    -0.041 A 
ATOM     13  C   UNL     1       3.028   0.306  -6.548  0.00  0.00    -0.043 C 
ATOM     14  N   UNL     1       2.106  -0.235  -5.535  0.00  0.00    +0.390 N 
ATOM     15  H   UNL     1       2.224  -1.236  -5.471  0.00  0.00    -0.084 HD
ATOM     16  H   UNL     1       1.155  -0.024  -5.799  0.00  0.00    -0.084 HD
ENDROOT
BRANCH   1  19
ATOM     17  C   UNL     1       0.606  -0.608  -1.056  0.00  0.00    +0.161 A 
ATOM     18  C   UNL     1       1.173   0.159  -2.062  0.00  0.00    +0.051 A 
ATOM     19  C   UNL     1       1.787  -0.456  -3.137  0.00  0.00    -0.052 A 
ATOM     20  C   UNL     1       1.837  -1.836  -3.212  0.00  0.00    +0.006 A 
ATOM     21  C   UNL     1       1.273  -2.606  -2.212  0.00  0.00    +0.049 A 
ATOM     22  C   UNL     1       0.662  -1.996  -1.129  0.00  0.00    +0.158 A 
BRANCH  17  24
ATOM     23  C   UNL     1      -0.017   1.425   0.010  0.00  0.00    +0.277 C 
ATOM     24  O   UNL     1       0.002  -0.004   0.002  0.00  0.00    -0.491 OA
ENDBRANCH  17  24
BRANCH  22  25
ATOM     25  O   UNL     1       0.112  -2.753  -0.142  0.00  0.00    -0.503 OA
ATOM     26  H   UNL     1      -0.816  -2.979  -0.291  0.00  0.00    +0.292 HD
ENDBRANCH  22  25
ENDBRANCH   1  19
TORSDOF 3
