REMARK  Name = ZINC64058034
REMARK  9 active torsions:
REMARK  status: ('A' for Active; 'I' for Inactive)
REMARK    1  A    between atoms: C_1  and  C_2
REMARK    2  A    between atoms: C_2  and  C_3
REMARK    3  A    between atoms: C_2  and  C_4
REMARK    4  A    between atoms: C_2  and  C_5
REMARK    5  A    between atoms: C_7  and  C_11
REMARK    6  A    between atoms: C_11  and  S_12
REMARK    7  A    between atoms: S_12  and  C_13
REMARK    8  A    between atoms: C_17  and  C_19
REMARK    9  A    between atoms: C_20  and  C_21
REMARK                            x       y       z     vdW  Elec       q    Type
REMARK                         _______ _______ _______ _____ _____    ______ ____
ROOT
ATOM      1  C   UNL     1      -0.157   1.311  -6.000  0.00  0.00    +0.185 A 
ATOM      2  N   UNL     1      -0.472   2.566  -6.392  0.00  0.00    -0.253 N 
ATOM      3  H   UNL     1      -0.433   3.370  -5.850  0.00  0.00    +0.191 HD
ATOM      4  N   UNL     1      -0.866   2.479  -7.737  0.00  0.00    -0.152 NA
ATOM      5  C   UNL     1      -0.772   1.211  -8.081  0.00  0.00    +0.175 A 
ATOM      6  N   UNL     1      -0.337   0.506  -7.024  0.00  0.00    -0.202 NA
ENDROOT
BRANCH   5   7
ATOM      7  C   UNL     1      -1.089   0.657  -9.410  0.00  0.00    +0.050 C 
ATOM      8  C   UNL     1      -1.513   1.468 -10.391  0.00  0.00    +0.011 C 
BRANCH   8   9
ATOM      9  C   UNL     1      -1.830   0.914 -11.720  0.00  0.00    -0.025 A 
ATOM     10  C   UNL     1      -1.696  -0.456 -11.960  0.00  0.00    +0.008 A 
ATOM     11  C   UNL     1      -1.994  -0.967 -13.205  0.00  0.00    +0.001 A 
ATOM     12  C   UNL     1      -2.426  -0.127 -14.216  0.00  0.00    +0.000 A 
ATOM     13  C   UNL     1      -2.562   1.231 -13.986  0.00  0.00    +0.001 A 
ATOM     14  C   UNL     1      -2.272   1.756 -12.744  0.00  0.00    +0.008 A 
ENDBRANCH   8   9
ENDBRANCH   5   7
BRANCH   1  15
ATOM     15  S   UNL     1       0.403   0.838  -4.398  0.00  0.00    -0.082 S 
BRANCH  15  16
ATOM     16  C   UNL     1       0.651  -0.954  -4.531  0.00  0.00    +0.134 C 
BRANCH  16  19
ATOM     17  C   UNL     1       0.707  -0.490  -1.238  0.00  0.00    +0.108 C 
ATOM     18  N   UNL     1       0.160  -1.232  -2.137  0.00  0.00    -0.345 N 
ATOM     19  C   UNL     1       1.145  -1.502  -3.191  0.00  0.00    +0.253 C 
ATOM     20  O   UNL     1       2.337  -0.815  -2.778  0.00  0.00    -0.247 OA
ATOM     21  N   UNL     1       2.003  -0.193  -1.548  0.00  0.00    -0.251 N 
ATOM     22  H   UNL     1       2.599   0.353  -1.012  0.00  0.00    +0.195 HD
ATOM     23  H   UNL     1      -0.754  -1.558  -2.120  0.00  0.00    +0.163 HD
BRANCH  17  25
ATOM     24  C   UNL     1      -0.019   1.526   0.010  0.00  0.00    +0.018 C 
ATOM     25  C   UNL     1       0.002  -0.004   0.002  0.00  0.00    +0.020 C 
ATOM     26  C   UNL     1       0.742  -0.511   1.242  0.00  0.00    +0.018 C 
ATOM     27  C   UNL     1      -1.433  -0.534   0.013  0.00  0.00    +0.018 C 
ENDBRANCH  17  25
ENDBRANCH  16  19
ENDBRANCH  15  16
ENDBRANCH   1  15
TORSDOF 6
