REMARK  Name = ZINC62316065
REMARK  6 active torsions:
REMARK  status: ('A' for Active; 'I' for Inactive)
REMARK    1  A    between atoms: N_4  and  C_6
REMARK    2  A    between atoms: C_6  and  C_7
REMARK    3  A    between atoms: C_7  and  N_8
REMARK    4  A    between atoms: C_9  and  C_15
REMARK    5  A    between atoms: C_10  and  C_13
REMARK    6  A    between atoms: C_13  and  N_14
REMARK                            x       y       z     vdW  Elec       q    Type
REMARK                         _______ _______ _______ _____ _____    ______ ____
ROOT
ATOM      1  N   UNL     1       1.088  -4.026   0.863  0.00  0.00    -0.248 N 
ATOM      2  C   UNL     1       2.194  -4.803   0.794  0.00  0.00    +0.089 A 
ATOM      3  C   UNL     1       1.989  -5.826   1.656  0.00  0.00    +0.071 A 
ATOM      4  N   UNL     1       0.784  -5.629   2.202  0.00  0.00    -0.136 NA
ATOM      5  N   UNL     1       0.279  -4.551   1.715  0.00  0.00    -0.065 NA
ENDROOT
BRANCH   2   6
ATOM      6  C   UNL     1       3.409  -4.574  -0.068  0.00  0.00    +0.168 C 
ATOM      7  C   UNL     1       3.438  -5.606  -1.216  0.00  0.00    +0.040 C 
ATOM      8  C   UNL     1       4.949  -5.952  -1.310  0.00  0.00    +0.031 C 
ATOM      9  C   UNL     1       5.367  -5.848   0.178  0.00  0.00    +0.161 C 
ATOM     10  O   UNL     1       4.598  -4.755   0.710  0.00  0.00    -0.370 OA
ENDBRANCH   2   6
BRANCH   1  11
ATOM     11  C   UNL     1       0.855  -2.796   0.102  0.00  0.00    +0.127 C 
BRANCH  11  12
ATOM     12  C   UNL     1       1.386  -1.599   0.893  0.00  0.00    -0.055 C 
BRANCH  12  16
ATOM     13  C   UNL     1      -0.451   1.459   0.125  0.00  0.00    -0.020 C 
ATOM     14  C   UNL     1       0.989   2.005   0.258  0.00  0.00    -0.020 C 
ATOM     15  C   UNL     1       1.768   0.793   0.827  0.00  0.00    -0.079 C 
ATOM     16  N   UNL     1       1.152  -0.365   0.130  0.00  0.00    +0.381 N 
ATOM     17  C   UNL     1      -0.296  -0.072   0.066  0.00  0.00    -0.079 C 
ATOM     18  H   UNL     1       1.531  -0.453  -0.801  0.00  0.00    -0.082 HD
ENDBRANCH  12  16
ENDBRANCH  11  12
ENDBRANCH   1  11
BRANCH   3  19
ATOM     19  C   UNL     1       2.933  -6.965   1.943  0.00  0.00    -0.026 C 
BRANCH  19  20
ATOM     20  N   UNL     1       3.853  -6.579   3.021  0.00  0.00    +0.382 N 
ATOM     21  H   UNL     1       4.485  -7.342   3.213  0.00  0.00    -0.090 HD
ATOM     22  H   UNL     1       4.382  -5.768   2.738  0.00  0.00    -0.090 HD
ATOM     23  H   UNL     1       3.325  -6.363   3.853  0.00  0.00    -0.090 HD
ENDBRANCH  19  20
ENDBRANCH   3  19
TORSDOF 6
