REMARK  Name = ZINC37352219
REMARK  7 active torsions:
REMARK  status: ('A' for Active; 'I' for Inactive)
REMARK    1  A    between atoms: C_1  and  C_2
REMARK    2  A    between atoms: C_2  and  C_3
REMARK    3  A    between atoms: C_2  and  C_4
REMARK    4  A    between atoms: C_7  and  C_10
REMARK    5  A    between atoms: C_11  and  C_17
REMARK    6  A    between atoms: N_13  and  C_16
REMARK    7  A    between atoms: C_14  and  N_15
REMARK                            x       y       z     vdW  Elec       q    Type
REMARK                         _______ _______ _______ _____ _____    ______ ____
ROOT
ATOM      1  C   UNL     1      -5.400  -1.997   0.043  0.00  0.00    +0.042 A 
ATOM      2  C   UNL     1      -5.792  -3.346   0.149  0.00  0.00    +0.047 A 
ATOM      3  N   UNL     1      -7.097  -3.397   0.123  0.00  0.00    -0.299 N 
ATOM      4  N   UNL     1      -7.600  -2.097   0.000  0.00  0.00    -0.276 N 
ATOM      5  C   UNL     1      -6.556  -1.240  -0.043  0.00  0.00    +0.120 A 
ATOM      6  C   UNL     1      -9.016  -1.728  -0.065  0.00  0.00    +0.172 C 
ATOM      7  H   UNL     1      -7.630  -4.205   0.179  0.00  0.00    +0.187 HD
ENDROOT
BRANCH   1  11
ATOM      8  C   UNL     1      -1.412  -0.526   0.013  0.00  0.00    -0.045 A 
ATOM      9  C   UNL     1      -2.257  -0.202   1.058  0.00  0.00    +0.004 A 
ATOM     10  C   UNL     1      -3.553  -0.677   1.074  0.00  0.00    +0.009 A 
ATOM     11  C   UNL     1      -4.009  -1.484   0.032  0.00  0.00    -0.013 A 
ATOM     12  C   UNL     1      -3.153  -1.806  -1.019  0.00  0.00    +0.009 A 
ATOM     13  C   UNL     1      -1.861  -1.321  -1.026  0.00  0.00    +0.004 A 
BRANCH   8  15
ATOM     14  C   UNL     1      -0.019   1.526   0.010  0.00  0.00    +0.012 C 
ATOM     15  C   UNL     1       0.002  -0.004   0.002  0.00  0.00    +0.013 C 
ATOM     16  C   UNL     1       0.742  -0.511   1.242  0.00  0.00    +0.012 C 
ENDBRANCH   8  15
ENDBRANCH   1  11
BRANCH   2  17
ATOM     17  C   UNL     1      -4.865  -4.528   0.271  0.00  0.00    +0.038 C 
ATOM     18  C   UNL     1      -5.131  -5.529  -0.873  0.00  0.00    +0.010 C 
ATOM     19  C   UNL     1      -4.948  -6.917  -0.212  0.00  0.00    +0.001 C 
ATOM     20  C   UNL     1      -5.561  -6.710   1.195  0.00  0.00    +0.001 C 
ATOM     21  C   UNL     1      -5.138  -5.279   1.585  0.00  0.00    +0.010 C 
ENDBRANCH   2  17
BRANCH   5  22
ATOM     22  N   UNL     1      -6.628   0.142  -0.157  0.00  0.00    -0.343 N 
ATOM     23  H   UNL     1      -5.815   0.670  -0.182  0.00  0.00    +0.144 HD
ATOM     24  H   UNL     1      -7.492   0.579  -0.210  0.00  0.00    +0.144 HD
ENDBRANCH   5  22
TORSDOF 4
