REMARK  Name = ZINC39429884
REMARK  10 active torsions:
REMARK  status: ('A' for Active; 'I' for Inactive)
REMARK    1  A    between atoms: C_1  and  C_2
REMARK    2  A    between atoms: C_4  and  C_8
REMARK    3  A    between atoms: C_8  and  C_9
REMARK    4  A    between atoms: C_9  and  N_10
REMARK    5  A    between atoms: C_11  and  C_13
REMARK    6  A    between atoms: C_13  and  C_14
REMARK    7  A    between atoms: N_21  and  C_22
REMARK    8  A    between atoms: C_22  and  C_23
REMARK    9  A    between atoms: C_23  and  C_24
REMARK   10  A    between atoms: C_23  and  C_30
REMARK                            x       y       z     vdW  Elec       q    Type
REMARK                         _______ _______ _______ _____ _____    ______ ____
ROOT
ATOM      1  C   UNL     1      -1.459 -10.089   4.047  0.00  0.00    +0.028 C 
ATOM      2  C   UNL     1      -2.166 -11.158   4.832  0.00  0.00    +0.200 C 
ATOM      3  O   UNL     1      -2.331 -10.993   6.022  0.00  0.00    -0.278 OA
ATOM      4  N   UNL     1      -2.620 -12.284   4.271  0.00  0.00    -0.318 N 
ATOM      5  C   UNL     1      -2.493 -12.559   2.842  0.00  0.00    +0.085 C 
ATOM      6  C   UNL     1      -1.435 -11.641   2.227  0.00  0.00    -0.059 C 
ATOM      7  N   UNL     1      -1.733 -10.254   2.614  0.00  0.00    +0.389 N 
ATOM      8  H   UNL     1      -3.051 -12.945   4.835  0.00  0.00    +0.149 HD
ATOM      9  H   UNL     1      -2.704 -10.052   2.430  0.00  0.00    -0.081 HD
ENDROOT
BRANCH   1  10
ATOM     10  C   UNL     1      -1.954  -8.715   4.503  0.00  0.00    +0.089 C 
BRANCH  10  12
ATOM     11  N   UNL     1      -4.116  -7.539   4.744  0.00  0.00    -0.315 N 
ATOM     12  C   UNL     1      -3.452  -8.648   4.362  0.00  0.00    +0.212 C 
ATOM     13  O   UNL     1      -4.061  -9.592   3.906  0.00  0.00    -0.276 OA
ATOM     14  H   UNL     1      -3.629  -6.783   5.109  0.00  0.00    +0.149 HD
BRANCH  11  15
ATOM     15  C   UNL     1      -5.573  -7.473   4.607  0.00  0.00    +0.108 C 
BRANCH  15  16
ATOM     16  C   UNL     1      -6.072  -6.117   5.109  0.00  0.00    +0.069 C 
BRANCH  16  20
ATOM     17  C   UNL     1      -9.323  -2.816   4.492  0.00  0.00    +0.067 C 
ATOM     18  C   UNL     1      -8.670  -4.173   4.446  0.00  0.00    +0.053 C 
ATOM     19  N   UNL     1      -8.090  -4.752   5.443  0.00  0.00    -0.261 NA
ATOM     20  C   UNL     1      -7.594  -6.049   4.966  0.00  0.00    +0.222 C 
ATOM     21  N   UNL     1      -7.975  -6.131   3.550  0.00  0.00    -0.263 NA
ATOM     22  C   UNL     1      -8.604  -5.041   3.260  0.00  0.00    +0.130 C 
ENDBRANCH  16  20
ENDBRANCH  15  16
ENDBRANCH  11  15
ENDBRANCH  10  12
ENDBRANCH   1  10
BRANCH   7  23
ATOM     23  C   UNL     1      -0.883  -9.337   1.842  0.00  0.00    -0.065 C 
BRANCH  23  24
ATOM     24  C   UNL     1      -1.266  -9.411   0.362  0.00  0.00    +0.032 C 
BRANCH  24  25
ATOM     25  C   UNL     1      -2.671  -8.899   0.181  0.00  0.00    -0.042 A 
ATOM     26  C   UNL     1      -3.611  -9.675  -0.472  0.00  0.00    +0.004 A 
ATOM     27  C   UNL     1      -4.900  -9.206  -0.639  0.00  0.00    +0.000 A 
ATOM     28  C   UNL     1      -5.251  -7.960  -0.152  0.00  0.00    +0.000 A 
ATOM     29  C   UNL     1      -4.312  -7.185   0.502  0.00  0.00    +0.000 A 
ATOM     30  C   UNL     1      -3.023  -7.656   0.673  0.00  0.00    +0.004 A 
ENDBRANCH  24  25
BRANCH  24  31
ATOM     31  C   UNL     1      -0.315  -8.565  -0.445  0.00  0.00    -0.042 A 
ATOM     32  C   UNL     1      -0.083  -7.251  -0.085  0.00  0.00    +0.004 A 
ATOM     33  C   UNL     1       0.789  -6.475  -0.826  0.00  0.00    +0.000 A 
ATOM     34  C   UNL     1       1.429  -7.013  -1.926  0.00  0.00    +0.000 A 
ATOM     35  C   UNL     1       1.198  -8.328  -2.285  0.00  0.00    +0.000 A 
ATOM     36  C   UNL     1       0.329  -9.105  -1.542  0.00  0.00    +0.004 A 
ENDBRANCH  24  31
ENDBRANCH  23  24
ENDBRANCH   7  23
TORSDOF 9
