REMARK  Name = ZINC40755889
REMARK  4 active torsions:
REMARK  status: ('A' for Active; 'I' for Inactive)
REMARK    1  A    between atoms: C_3  and  N_8
REMARK    2  A    between atoms: C_10  and  N_26
REMARK    3  A    between atoms: C_11  and  N_15
REMARK    4  A    between atoms: N_15  and  C_16
REMARK                            x       y       z     vdW  Elec       q    Type
REMARK                         _______ _______ _______ _____ _____    ______ ____
ROOT
ATOM      1  N   UNL     1       3.604   1.998  -0.022  0.00  0.00    -0.297 N 
ATOM      2  C   UNL     1       3.656   3.383  -0.120  0.00  0.00    +0.126 A 
ATOM      3  C   UNL     1       4.882   4.040  -0.241  0.00  0.00    +0.104 A 
ATOM      4  C   UNL     1       4.877   5.433  -0.337  0.00  0.00    +0.145 A 
ATOM      5  N   UNL     1       3.712   6.077  -0.310  0.00  0.00    -0.221 NA
ATOM      6  C   UNL     1       2.577   5.418  -0.195  0.00  0.00    +0.200 A 
ATOM      7  N   UNL     1       2.537   4.104  -0.107  0.00  0.00    -0.333 N 
ATOM      8  H   UNL     1       4.425   1.486   0.057  0.00  0.00    +0.154 HD
ATOM      9  H   UNL     1       1.680   3.656  -0.028  0.00  0.00    +0.168 HD
ENDROOT
BRANCH   1  12
ATOM     10  C   UNL     1       0.676   0.047   1.034  0.00  0.00    +0.022 A 
ATOM     11  C   UNL     1       1.905   0.683   1.098  0.00  0.00    +0.028 A 
ATOM     12  C   UNL     1       2.370   1.341  -0.037  0.00  0.00    +0.070 A 
ATOM     13  C   UNL     1       1.587   1.336  -1.187  0.00  0.00    +0.150 A 
ATOM     14  N   UNL     1       0.422   0.718  -1.204  0.00  0.00    -0.242 NA
ATOM     15  C   UNL     1      -0.044   0.086  -0.144  0.00  0.00    +0.112 A 
ATOM     16 CL   UNL     1       2.149   2.151  -2.613  0.00  0.00    -0.060 Cl
ENDBRANCH   1  12
BRANCH   3  17
ATOM     17  N   UNL     1       6.087   3.320  -0.264  0.00  0.00    -0.353 N 
ATOM     18  H   UNL     1       6.075   2.353  -0.196  0.00  0.00    +0.143 HD
ATOM     19  H   UNL     1       6.931   3.790  -0.348  0.00  0.00    +0.143 HD
ENDBRANCH   3  17
BRANCH   4  20
ATOM     20  N   UNL     1       6.069   6.137  -0.458  0.00  0.00    -0.322 N 
ATOM     21  H   UNL     1       6.914   5.660  -0.476  0.00  0.00    +0.148 HD
BRANCH  20  22
ATOM     22  C   UNL     1       6.051   7.598  -0.557  0.00  0.00    +0.034 C 
ATOM     23  C   UNL     1       5.399   8.187   0.696  0.00  0.00    +0.029 C 
ATOM     24  C   UNL     1       5.380   9.713   0.592  0.00  0.00    -0.008 C 
ATOM     25  C   UNL     1       6.813  10.234   0.469  0.00  0.00    +0.007 C 
ATOM     26  C   UNL     1       7.464   9.646  -0.785  0.00  0.00    -0.008 C 
ATOM     27  C   UNL     1       7.484   8.119  -0.680  0.00  0.00    +0.029 C 
ATOM     28  C   UNL     1       6.663  10.062  -2.019  0.00  0.00    +0.007 C 
ATOM     29  C   UNL     1       5.229   9.541  -1.897  0.00  0.00    -0.008 C 
ATOM     30  C   UNL     1       4.578  10.130  -0.643  0.00  0.00    +0.007 C 
ATOM     31  C   UNL     1       5.249   8.015  -1.792  0.00  0.00    +0.029 C 
ENDBRANCH  20  22
ENDBRANCH   4  20
TORSDOF 4
