REMARK  Name = ZINC00290892
REMARK  1 active torsions:
REMARK  status: ('A' for Active; 'I' for Inactive)
REMARK    1  A    between atoms: C_10  and  C_13
REMARK                            x       y       z     vdW  Elec       q    Type
REMARK                         _______ _______ _______ _____ _____    ______ ____
ROOT
ATOM      1  C   UNL     1      -0.017   1.375   0.010  0.00  0.00    +0.001 A 
ATOM      2  C   UNL     1       1.168   2.095   0.002  0.00  0.00    +0.002 A 
ATOM      3  C   UNL     1       2.386   1.444  -0.015  0.00  0.00    +0.024 A 
ATOM      4  C   UNL     1       2.422   0.060  -0.024  0.00  0.00    +0.041 A 
ATOM      5  C   UNL     1       1.223  -0.674  -0.013  0.00  0.00    +0.058 A 
ATOM      6  C   UNL     1       0.002  -0.004   0.002  0.00  0.00    +0.015 A 
ATOM      7  C   UNL     1       1.301  -2.146  -0.013  0.00  0.00    +0.247 C 
ATOM      8  O   UNL     1       0.318  -2.814   0.246  0.00  0.00    -0.270 OA
ATOM      9  N   UNL     1       2.475  -2.744  -0.304  0.00  0.00    -0.289 N 
ATOM     10  C   UNL     1       3.647  -1.961  -0.696  0.00  0.00    +0.190 C 
ATOM     11  N   UNL     1       3.620  -0.645  -0.047  0.00  0.00    -0.322 N 
ATOM     12  H   UNL     1       2.543  -3.710  -0.252  0.00  0.00    +0.151 HD
ATOM     13  H   UNL     1       4.421  -0.275   0.357  0.00  0.00    +0.148 HD
ENDROOT
BRANCH  10  14
ATOM     14  C   UNL     1       3.646  -1.776  -2.192  0.00  0.00    -0.006 A 
ATOM     15  C   UNL     1       4.216  -0.646  -2.747  0.00  0.00    +0.011 A 
ATOM     16  C   UNL     1       4.219  -0.472  -4.119  0.00  0.00    +0.050 A 
ATOM     17  C   UNL     1       3.649  -1.431  -4.940  0.00  0.00    +0.166 A 
ATOM     18  C   UNL     1       3.074  -2.570  -4.380  0.00  0.00    +0.167 A 
ATOM     19  C   UNL     1       3.081  -2.740  -3.005  0.00  0.00    +0.056 A 
ATOM     20  O   UNL     1       2.587  -3.353  -5.387  0.00  0.00    -0.453 OA
ATOM     21  C   UNL     1       2.504  -2.491  -6.538  0.00  0.00    +0.466 C 
ATOM     22  O   UNL     1       3.521  -1.500  -6.297  0.00  0.00    -0.453 OA
ENDBRANCH  10  14
TORSDOF 1
