REMARK  Name = ZINC62955726
REMARK  6 active torsions:
REMARK  status: ('A' for Active; 'I' for Inactive)
REMARK    1  A    between atoms: C_1  and  C_2
REMARK    2  A    between atoms: C_2  and  C_3
REMARK    3  A    between atoms: C_3  and  C_22
REMARK    4  A    between atoms: N_6  and  C_9
REMARK    5  A    between atoms: C_15  and  O_17
REMARK    6  A    between atoms: C_22  and  C_23
REMARK                            x       y       z     vdW  Elec       q    Type
REMARK                         _______ _______ _______ _____ _____    ______ ____
ROOT
ATOM      1  C   UNL     1       3.075  -2.890   1.512  0.00  0.00    -0.034 C 
ATOM      2  C   UNL     1       2.809  -4.395   1.576  0.00  0.00    +0.052 C 
ATOM      3  C   UNL     1       3.436  -4.970   2.847  0.00  0.00    +0.169 C 
ATOM      4  C   UNL     1       4.944  -4.716   2.842  0.00  0.00    +0.067 C 
ATOM      5  C   UNL     1       5.206  -3.210   2.777  0.00  0.00    +0.035 C 
ATOM      6  C   UNL     1       4.584  -2.639   1.501  0.00  0.00    +0.101 C 
ATOM      7  O   UNL     1       3.189  -6.385   2.905  0.00  0.00    -0.346 OA
ATOM      8  C   UNL     1       2.988  -6.667   4.311  0.00  0.00    +0.191 C 
ATOM      9  C   UNL     1       2.242  -5.395   4.785  0.00  0.00    +0.191 C 
ATOM     10  O   UNL     1       2.847  -4.350   3.997  0.00  0.00    -0.346 OA
ENDROOT
BRANCH   1  14
ATOM     11  C   UNL     1       0.676  -0.584  -1.150  0.00  0.00    -0.033 C 
ATOM     12  C   UNL     1       2.185  -0.328  -1.082  0.00  0.00    -0.012 C 
ATOM     13  C   UNL     1       2.734  -0.894   0.229  0.00  0.00    -0.078 C 
ATOM     14  N   UNL     1       2.478  -2.338   0.289  0.00  0.00    +0.383 N 
ATOM     15  C   UNL     1       1.031  -2.587   0.296  0.00  0.00    -0.078 C 
ATOM     16  C   UNL     1       0.417  -2.087  -1.012  0.00  0.00    -0.012 C 
ATOM     17  H   UNL     1       2.891  -2.785  -0.516  0.00  0.00    -0.081 HD
BRANCH  11  19
ATOM     18  C   UNL     1      -1.535  -0.019  -0.134  0.00  0.00    +0.004 C 
ATOM     19  C   UNL     1      -0.021   0.162  -0.011  0.00  0.00    +0.003 C 
ENDBRANCH  11  19
BRANCH  11  20
ATOM     20  C   UNL     1       0.132  -0.092  -2.493  0.00  0.00    +0.003 C 
ATOM     21  C   UNL     1       0.333   1.421  -2.600  0.00  0.00    +0.004 C 
ENDBRANCH  11  20
ENDBRANCH   1  14
BRANCH   6  22
ATOM     22  O   UNL     1       5.165  -3.276   0.362  0.00  0.00    -0.393 OA
ATOM     23  H   UNL     1       6.122  -3.159   0.290  0.00  0.00    +0.210 HD
ENDBRANCH   6  22
TORSDOF 4
