REMARK  Name = ZINC44875762
REMARK  8 active torsions:
REMARK  status: ('A' for Active; 'I' for Inactive)
REMARK    1  A    between atoms: C_1  and  C_2
REMARK    2  A    between atoms: C_5  and  C_7
REMARK    3  A    between atoms: C_7  and  C_9
REMARK    4  A    between atoms: C_7  and  N_10
REMARK    5  A    between atoms: C_11  and  C_13
REMARK    6  A    between atoms: C_13  and  C_15
REMARK    7  A    between atoms: C_13  and  C_16
REMARK    8  A    between atoms: N_17  and  O_18
REMARK                            x       y       z     vdW  Elec       q    Type
REMARK                         _______ _______ _______ _____ _____    ______ ____
ROOT
ATOM      1  N   UNL     1       2.811  -2.961  -0.914  0.00  0.00    -0.305 N 
ATOM      2  C   UNL     1       3.494  -3.975  -1.482  0.00  0.00    +0.224 C 
ATOM      3  O   UNL     1       3.175  -5.123  -1.255  0.00  0.00    -0.275 OA
ATOM      4  H   UNL     1       3.066  -2.043  -1.096  0.00  0.00    +0.149 HD
ENDROOT
BRANCH   1   5
ATOM      5  C   UNL     1       1.684  -3.245  -0.023  0.00  0.00    +0.136 C 
ATOM      6  C   UNL     1       2.205  -3.494   1.394  0.00  0.00    +0.036 C 
BRANCH   5  11
ATOM      7  C   UNL     1      -0.018   1.503   0.010  0.00  0.00    +0.086 C 
ATOM      8  C   UNL     1       0.002  -0.004   0.002  0.00  0.00    +0.102 A 
ATOM      9  C   UNL     1      -1.078  -0.805   0.003  0.00  0.00    +0.045 A 
ATOM     10  C   UNL     1      -0.601  -2.136  -0.007  0.00  0.00    +0.047 A 
ATOM     11  C   UNL     1       0.742  -2.069  -0.013  0.00  0.00    +0.125 A 
ATOM     12  O   UNL     1       1.102  -0.775  -0.013  0.00  0.00    -0.463 OA
ENDBRANCH   5  11
ENDBRANCH   1   5
BRANCH   2  13
ATOM     13  C   UNL     1       4.653  -3.683  -2.399  0.00  0.00    +0.138 C 
ATOM     14  C   UNL     1       4.166  -2.853  -3.589  0.00  0.00    +0.025 C 
BRANCH  13  15
ATOM     15  C   UNL     1       5.239  -4.979  -2.897  0.00  0.00    +0.143 C 
ATOM     16  N   UNL     1       4.862  -5.464  -4.033  0.00  0.00    -0.076 NA
ATOM     17  N   UNL     1       6.177  -5.646  -2.140  0.00  0.00    -0.343 N 
ATOM     18  H   UNL     1       6.460  -5.281  -1.287  0.00  0.00    +0.144 HD
ATOM     19  H   UNL     1       6.554  -6.480  -2.460  0.00  0.00    +0.144 HD
BRANCH  16  20
ATOM     20  O   UNL     1       5.413  -6.682  -4.500  0.00  0.00    -0.408 OA
ATOM     21  H   UNL     1       5.070  -6.965  -5.359  0.00  0.00    +0.328 HD
ENDBRANCH  16  20
ENDBRANCH  13  15
ENDBRANCH   2  13
TORSDOF 5
