REMARK  Name = ZINC50093060
REMARK  7 active torsions:
REMARK  status: ('A' for Active; 'I' for Inactive)
REMARK    1  A    between atoms: C_1  and  C_2
REMARK    2  A    between atoms: N_8  and  S_9
REMARK    3  A    between atoms: S_9  and  N_12
REMARK    4  A    between atoms: N_12  and  C_13
REMARK    5  A    between atoms: N_12  and  C_14
REMARK    6  A    between atoms: C_14  and  C_21
REMARK    7  A    between atoms: C_21  and  N_22
REMARK                            x       y       z     vdW  Elec       q    Type
REMARK                         _______ _______ _______ _____ _____    ______ ____
ROOT
ATOM      1  N   UNL     1       0.268   1.339   3.566  0.00  0.00    -0.165 NA
ATOM      2  C   UNL     1      -0.113   0.727   4.842  0.00  0.00    +0.133 C 
ENDROOT
BRANCH   1   3
ATOM      3  C   UNL     1      -0.441   2.527   3.083  0.00  0.00    +0.028 C 
ATOM      4  C   UNL     1       0.552   3.531   2.565  0.00  0.00    +0.022 C 
ATOM      5  C   UNL     1       1.941   3.376   3.213  0.00  0.00    +0.002 C 
ATOM      6  C   UNL     1       1.867   3.107   4.728  0.00  0.00    +0.000 C 
ATOM      7  C   UNL     1       0.829   3.954   5.413  0.00  0.00    +0.000 C 
ATOM      8  C   UNL     1      -0.484   3.149   5.496  0.00  0.00    +0.002 C 
ATOM      9  C   UNL     1      -1.227   3.169   4.244  0.00  0.00    +0.022 C 
BRANCH   3  10
ATOM     10  C   UNL     1      -1.407   2.130   1.966  0.00  0.00    -0.062 C 
BRANCH  10  11
ATOM     11  N   UNL     1      -0.669   1.430   0.905  0.00  0.00    +0.379 N 
ATOM     12  H   UNL     1      -1.299   1.206   0.149  0.00  0.00    -0.090 HD
ATOM     13  H   UNL     1       0.070   2.025   0.562  0.00  0.00    -0.090 HD
ATOM     14  H   UNL     1      -0.272   0.580   1.276  0.00  0.00    -0.090 HD
ENDBRANCH  10  11
ENDBRANCH   3  10
ENDBRANCH   1   3
BRANCH   1  15
ATOM     15  S   UNL     1       1.498   0.687   2.670  0.00  0.00    +0.100 S 
ATOM     16  O   UNL     1       1.642   1.508   1.519  0.00  0.00    -0.141 OA
ATOM     17  O   UNL     1       1.243  -0.708   2.583  0.00  0.00    -0.141 OA
BRANCH  15  24
ATOM     18  C   UNL     1       3.893   1.529   1.417  0.00  0.00    +0.026 C 
ATOM     19  C   UNL     1       4.114   1.377   2.924  0.00  0.00    +0.078 C 
ATOM     20  C   UNL     1       5.257   0.391   3.179  0.00  0.00    +0.020 C 
ATOM     21  C   UNL     1       5.381   0.137   4.683  0.00  0.00    +0.003 C 
ATOM     22  C   UNL     1       4.083  -0.483   5.206  0.00  0.00    +0.017 C 
ATOM     23  C   UNL     1       2.926   0.494   4.974  0.00  0.00    +0.111 C 
ATOM     24  N   UNL     1       2.890   0.860   3.551  0.00  0.00    -0.164 NA
ENDBRANCH  15  24
ENDBRANCH   1  15
TORSDOF 5
