REMARK  Name = ZINC06563904
REMARK  8 active torsions:
REMARK  status: ('A' for Active; 'I' for Inactive)
REMARK    1  A    between atoms: C_1  and  C_2
REMARK    2  A    between atoms: C_2  and  C_3
REMARK    3  A    between atoms: C_2  and  C_4
REMARK    4  A    between atoms: C_4  and  N_5
REMARK    5  A    between atoms: N_13  and  C_20
REMARK    6  A    between atoms: N_17  and  C_18
REMARK    7  A    between atoms: C_18  and  C_19
REMARK    8  A    between atoms: C_19  and  N_40
REMARK                            x       y       z     vdW  Elec       q    Type
REMARK                         _______ _______ _______ _____ _____    ______ ____
ROOT
ATOM      1  N   UNL     1      -0.757   1.608   3.642  0.00  0.00    -0.306 N 
ATOM      2  C   UNL     1       0.035   1.060   4.642  0.00  0.00    +0.153 A 
ATOM      3  C   UNL     1       0.003   1.084   6.047  0.00  0.00    +0.280 A 
ATOM      4  O   UNL     1      -0.878   1.690   6.632  0.00  0.00    -0.265 OA
ATOM      5  N   UNL     1       0.957   0.430   6.741  0.00  0.00    -0.273 N 
ATOM      6  H   UNL     1       0.937   0.446   7.741  0.00  0.00    +0.173 HD
ATOM      7  C   UNL     1       1.935  -0.242   6.109  0.00  0.00    +0.331 A 
ATOM      8  O   UNL     1       2.779  -0.819   6.767  0.00  0.00    -0.246 OA
ATOM      9  N   UNL     1       2.003  -0.291   4.765  0.00  0.00    -0.280 N 
ATOM     10  C   UNL     1       1.051   0.361   3.998  0.00  0.00    +0.170 A 
ATOM     11  N   UNL     1       0.858   0.491   2.684  0.00  0.00    -0.196 NA
ATOM     12  C   UNL     1      -0.212   1.226   2.457  0.00  0.00    +0.198 A 
ATOM     13  N   UNL     1      -0.698   1.558   1.213  0.00  0.00    -0.317 N 
ATOM     14  C   UNL     1       3.083  -1.034   4.114  0.00  0.00    +0.155 C 
ATOM     15  H   UNL     1      -1.495   2.106   1.135  0.00  0.00    +0.149 HD
ENDROOT
BRANCH   1  16
ATOM     16  C   UNL     1      -1.951   2.437   3.828  0.00  0.00    +0.128 C 
BRANCH  16  18
ATOM     17  C   UNL     1      -4.419   2.392   4.216  0.00  0.00    +0.009 C 
ATOM     18  C   UNL     1      -3.188   1.540   3.898  0.00  0.00    +0.003 C 
ATOM     19  C   UNL     1      -3.387   0.839   2.552  0.00  0.00    +0.009 C 
ENDBRANCH  16  18
ENDBRANCH   1  16
BRANCH  13  20
ATOM     20  C   UNL     1      -0.013   1.086   0.008  0.00  0.00    +0.085 C 
BRANCH  20  21
ATOM     21  C   UNL     1      -0.753   1.593  -1.232  0.00  0.00    -0.067 C 
BRANCH  21  24
ATOM     22  H   UNL     1      -0.535   1.441  -3.273  0.00  0.00    -0.090 HD
ATOM     23  H   UNL     1       0.903   1.401  -2.439  0.00  0.00    -0.090 HD
ATOM     24  N   UNL     1      -0.068   1.094  -2.437  0.00  0.00    +0.379 N 
ATOM     25  H   UNL     1      -0.094   0.068  -2.440  0.00  0.00    -0.090 HD
ENDBRANCH  21  24
ENDBRANCH  20  21
ENDBRANCH  13  20
TORSDOF 5
