REMARK  Name = ZINC20899185
REMARK  2 active torsions:
REMARK  status: ('A' for Active; 'I' for Inactive)
REMARK    1  A    between atoms: C_10  and  C_13
REMARK    2  A    between atoms: N_23  and  C_26
REMARK                            x       y       z     vdW  Elec       q    Type
REMARK                         _______ _______ _______ _____ _____    ______ ____
ROOT
ATOM      1  C   UNL     1      -0.926   0.705   2.249  0.00  0.00    +0.002 A 
ATOM      2  C   UNL     1       0.164   1.470   2.623  0.00  0.00    +0.001 A 
ATOM      3  C   UNL     1       1.428   0.939   2.519  0.00  0.00    +0.016 A 
ATOM      4  C   UNL     1       1.643  -0.361   2.042  0.00  0.00    +0.030 A 
ATOM      5  C   UNL     1       0.553  -1.131   1.668  0.00  0.00    +0.045 A 
ATOM      6  C   UNL     1      -0.732  -0.572   1.780  0.00  0.00    +0.024 A 
ATOM      7  N   UNL     1       0.574  -2.413   1.190  0.00  0.00    -0.316 N 
ATOM      8  C   UNL     1       1.381  -3.299   0.722  0.00  0.00    +0.027 C 
ATOM      9  C   UNL     1       2.868  -3.339   0.756  0.00  0.00    +0.071 C 
ATOM     10  C   UNL     1       3.481  -1.982   0.556  0.00  0.00    +0.094 C 
ATOM     11  S   UNL     1       3.305  -0.896   1.963  0.00  0.00    -0.114 S 
ATOM     12  C   UNL     1       0.777  -4.374   0.094  0.00  0.00    +0.117 C 
ATOM     13  C   UNL     1       1.497  -5.642  -0.121  0.00  0.00    +0.258 C 
ATOM     14  N   UNL     1       0.845  -6.647  -0.741  0.00  0.00    -0.235 N 
ATOM     15  C   UNL     1      -0.423  -6.511  -1.154  0.00  0.00    +0.320 C 
ATOM     16  O   UNL     1      -0.954  -7.455  -1.706  0.00  0.00    -0.251 OA
ATOM     17  N   UNL     1      -1.137  -5.388  -0.991  0.00  0.00    -0.190 N 
ATOM     18  C   UNL     1      -0.615  -4.303  -0.383  0.00  0.00    +0.265 C 
ATOM     19  O   UNL     1      -1.274  -3.291  -0.236  0.00  0.00    -0.269 OA
ATOM     20  O   UNL     1       2.648  -5.778   0.249  0.00  0.00    -0.270 OA
ATOM     21  H   UNL     1       1.304  -7.489  -0.890  0.00  0.00    +0.159 HD
ATOM     22  H   UNL     1      -0.324  -2.778   1.212  0.00  0.00    +0.152 HD
ENDROOT
BRANCH  17  23
ATOM     23  C   UNL     1      -2.457  -5.342  -1.458  0.00  0.00    +0.047 A 
ATOM     24  C   UNL     1      -2.723  -4.917  -2.753  0.00  0.00    +0.024 A 
ATOM     25  C   UNL     1      -4.025  -4.872  -3.211  0.00  0.00    +0.003 A 
ATOM     26  C   UNL     1      -5.065  -5.250  -2.382  0.00  0.00    +0.020 A 
ATOM     27  C   UNL     1      -4.804  -5.675  -1.091  0.00  0.00    +0.043 A 
ATOM     28  C   UNL     1      -3.502  -5.726  -0.629  0.00  0.00    +0.044 A 
ATOM     29 CL   UNL     1      -6.112  -6.148  -0.052  0.00  0.00    -0.083 Cl
ENDBRANCH  17  23
BRANCH  10  30
ATOM     30  C   UNL     1       4.950  -2.156   0.267  0.00  0.00    +0.003 A 
ATOM     31  C   UNL     1       5.655  -1.776  -0.826  0.00  0.00    +0.012 A 
ATOM     32  C   UNL     1       7.011  -2.041  -0.875  0.00  0.00    +0.008 A 
ATOM     33  C   UNL     1       7.595  -2.673   0.173  0.00  0.00    +0.045 A 
ATOM     34  S   UNL     1       6.214  -2.908   1.279  0.00  0.00    -0.100 S 
ENDBRANCH  10  30
TORSDOF 2
