REMARK  Name = ZINC03884514
REMARK  5 active torsions:
REMARK  status: ('A' for Active; 'I' for Inactive)
REMARK    1  A    between atoms: C_1  and  C_2
REMARK    2  A    between atoms: C_3  and  C_12
REMARK    3  A    between atoms: C_12  and  C_13
REMARK    4  A    between atoms: C_13  and  C_14
REMARK    5  A    between atoms: C_14  and  N_15
REMARK                            x       y       z     vdW  Elec       q    Type
REMARK                         _______ _______ _______ _____ _____    ______ ____
ROOT
ATOM      1  C   UNL     1      -0.018   1.503   0.010  0.00  0.00    +0.065 C 
ATOM      2  C   UNL     1       0.002  -0.004   0.002  0.00  0.00    +0.039 A 
ATOM      3  C   UNL     1      -1.082  -0.808   0.003  0.00  0.00    +0.039 A 
ATOM      4  C   UNL     1      -0.634  -2.148  -0.008  0.00  0.00    +0.277 A 
ATOM      5  O   UNL     1      -1.338  -3.141  -0.010  0.00  0.00    -0.265 OA
ATOM      6  N   UNL     1       0.715  -2.128  -0.014  0.00  0.00    -0.190 N 
ATOM      7  N   UNL     1       1.121  -0.787  -0.013  0.00  0.00    -0.292 N 
ATOM      8  H   UNL     1       2.037  -0.470  -0.021  0.00  0.00    +0.187 HD
ATOM      9  C   UNL     1       1.541  -3.225  -0.025  0.00  0.00    +0.186 C 
ATOM     10  N   UNL     1       2.862  -3.063  -0.030  0.00  0.00    -0.372 N 
ATOM     11  N   UNL     1       1.021  -4.451  -0.029  0.00  0.00    -0.329 N 
ATOM     12  H   UNL     1       3.241  -2.170  -0.027  0.00  0.00    +0.159 HD
ATOM     13  H   UNL     1       0.058  -4.569  -0.025  0.00  0.00    +0.145 HD
ATOM     14  H   UNL     1       1.605  -5.225  -0.037  0.00  0.00    +0.145 HD
ATOM     15  H   UNL     1       3.446  -3.838  -0.038  0.00  0.00    +0.159 HD
ENDROOT
BRANCH   3  16
ATOM     16  C   UNL     1      -2.519  -0.355   0.013  0.00  0.00    +0.044 C 
BRANCH  16  17
ATOM     17  C   UNL     1      -3.050  -0.313  -1.422  0.00  0.00    +0.024 C 
BRANCH  17  18
ATOM     18  C   UNL     1      -4.510   0.147  -1.412  0.00  0.00    +0.117 C 
BRANCH  18  19
ATOM     19  N   UNL     1      -5.018   0.187  -2.785  0.00  0.00    -0.234 N 
ATOM     20  C   UNL     1      -4.946   1.260  -3.592  0.00  0.00    +0.254 C 
ATOM     21  O   UNL     1      -4.457   2.333  -3.303  0.00  0.00    -0.270 OA
ATOM     22  C   UNL     1      -5.562   0.915  -4.891  0.00  0.00    +0.049 A 
ATOM     23  C   UNL     1      -5.770   1.602  -6.077  0.00  0.00    +0.014 A 
ATOM     24  C   UNL     1      -6.397   0.967  -7.137  0.00  0.00    +0.001 A 
ATOM     25  C   UNL     1      -6.816  -0.345  -7.020  0.00  0.00    +0.001 A 
ATOM     26  C   UNL     1      -6.615  -1.044  -5.841  0.00  0.00    +0.014 A 
ATOM     27  C   UNL     1      -5.989  -0.423  -4.772  0.00  0.00    +0.049 A 
ATOM     28  C   UNL     1      -5.614  -0.847  -3.406  0.00  0.00    +0.254 C 
ATOM     29  O   UNL     1      -5.813  -1.944  -2.925  0.00  0.00    -0.270 OA
ENDBRANCH  18  19
ENDBRANCH  17  18
ENDBRANCH  16  17
ENDBRANCH   3  16
TORSDOF 4
