REMARK  Name = ZINC50441515
REMARK  7 active torsions:
REMARK  status: ('A' for Active; 'I' for Inactive)
REMARK    1  A    between atoms: C_1  and  N_2
REMARK    2  A    between atoms: N_2  and  C_3
REMARK    3  A    between atoms: C_3  and  C_5
REMARK    4  A    between atoms: C_3  and  C_18
REMARK    5  A    between atoms: C_5  and  O_6
REMARK    6  A    between atoms: O_6  and  C_7
REMARK    7  A    between atoms: C_10  and  N_14
REMARK                            x       y       z     vdW  Elec       q    Type
REMARK                         _______ _______ _______ _____ _____    ______ ____
ROOT
ATOM      1  O   UNL     1      -0.479  -2.593  -1.203  0.00  0.00    -0.491 OA
ENDROOT
BRANCH   1   2
ATOM      2  C   UNL     1      -0.541  -3.950  -1.166  0.00  0.00    +0.148 A 
ATOM      3  C   UNL     1      -0.506  -4.681  -2.345  0.00  0.00    +0.063 A 
ATOM      4  C   UNL     1      -0.569  -6.061  -2.304  0.00  0.00    +0.051 A 
ATOM      5  C   UNL     1      -0.666  -6.714  -1.090  0.00  0.00    +0.129 A 
ATOM      6  C   UNL     1      -0.701  -5.989   0.087  0.00  0.00    +0.051 A 
ATOM      7  C   UNL     1      -0.633  -4.609   0.052  0.00  0.00    +0.063 A 
ATOM      8 BR   UNL     1      -0.673  -3.619   1.663  0.00  0.00    -0.046 Br
ATOM      9 BR   UNL     1      -0.374  -3.788  -4.007  0.00  0.00    -0.046 Br
BRANCH   5  10
ATOM     10  N   UNL     1      -0.734  -8.192  -1.049  0.00  0.00    +0.056 N 
ATOM     11  O   UNL     1      -0.704  -8.827  -2.078  0.00  0.00    -0.126 OA
ATOM     12  O   UNL     1      -0.819  -8.765   0.012  0.00  0.00    -0.126 OA
ENDBRANCH   5  10
ENDBRANCH   1   2
BRANCH   1  13
ATOM     13  C   UNL     1       0.821  -2.001  -1.155  0.00  0.00    +0.222 C 
BRANCH  13  14
ATOM     14  C   UNL     1       0.690  -0.478  -1.207  0.00  0.00    +0.053 C 
BRANCH  14  15
ATOM     15  C   UNL     1      -0.106  -0.083  -2.424  0.00  0.00    +0.200 C 
ATOM     16  O   UNL     1      -1.143   0.532  -2.298  0.00  0.00    -0.278 OA
ATOM     17  N   UNL     1       0.336  -0.414  -3.654  0.00  0.00    -0.331 N 
ATOM     18  H   UNL     1       1.166  -0.906  -3.755  0.00  0.00    +0.145 HD
ATOM     19  H   UNL     1      -0.176  -0.160  -4.438  0.00  0.00    +0.145 HD
ENDBRANCH  14  15
BRANCH  14  21
ATOM     20  C   UNL     1      -0.018   1.465   0.010  0.00  0.00    -0.099 C 
ATOM     21  N   UNL     1       0.002  -0.004   0.002  0.00  0.00    +0.387 N 
ATOM     22  H   UNL     1       0.490  -0.338   0.820  0.00  0.00    -0.085 HD
ATOM     23  H   UNL     1      -0.945  -0.353   0.009  0.00  0.00    -0.085 HD
ENDBRANCH  14  21
ENDBRANCH  13  14
ENDBRANCH   1  13
TORSDOF 6
