REMARK  Name = ZINC50440735
REMARK  8 active torsions:
REMARK  status: ('A' for Active; 'I' for Inactive)
REMARK    1  A    between atoms: C_1  and  C_2
REMARK    2  A    between atoms: C_2  and  N_3
REMARK    3  A    between atoms: N_3  and  C_4
REMARK    4  A    between atoms: C_4  and  C_6
REMARK    5  A    between atoms: C_4  and  C_19
REMARK    6  A    between atoms: C_6  and  O_7
REMARK    7  A    between atoms: O_7  and  C_8
REMARK    8  A    between atoms: C_11  and  N_15
REMARK                            x       y       z     vdW  Elec       q    Type
REMARK                         _______ _______ _______ _____ _____    ______ ____
ROOT
ATOM      1  C   UNL     1      -2.785  -2.512   0.141  0.00  0.00    +0.222 C 
ENDROOT
BRANCH   1   2
ATOM      2  C   UNL     1      -1.356  -1.981   0.004  0.00  0.00    +0.054 C 
BRANCH   2   3
ATOM      3  C   UNL     1      -0.761  -2.469  -1.292  0.00  0.00    +0.200 C 
ATOM      4  O   UNL     1      -0.390  -1.671  -2.127  0.00  0.00    -0.278 OA
ATOM      5  N   UNL     1      -0.641  -3.791  -1.523  0.00  0.00    -0.331 N 
ATOM      6  H   UNL     1      -0.938  -4.429  -0.856  0.00  0.00    +0.145 HD
ATOM      7  H   UNL     1      -0.258  -4.104  -2.357  0.00  0.00    +0.145 HD
ENDBRANCH   2   3
BRANCH   2   8
ATOM      8  N   UNL     1      -1.376  -0.512   0.012  0.00  0.00    +0.389 N 
ATOM      9  H   UNL     1      -1.848  -0.187   0.843  0.00  0.00    -0.085 HD
ATOM     10  H   UNL     1      -1.864  -0.178  -0.805  0.00  0.00    -0.085 HD
BRANCH   8  12
ATOM     11  C   UNL     1      -0.019   1.526   0.010  0.00  0.00    -0.017 C 
ATOM     12  C   UNL     1       0.002  -0.004   0.002  0.00  0.00    -0.085 C 
ENDBRANCH   8  12
ENDBRANCH   2   8
ENDBRANCH   1   2
BRANCH   1  13
ATOM     13  O   UNL     1      -3.544  -2.137  -1.011  0.00  0.00    -0.490 OA
BRANCH  13  14
ATOM     14  C   UNL     1      -4.844  -2.533  -1.048  0.00  0.00    +0.157 A 
ATOM     15  C   UNL     1      -5.182  -3.757  -1.608  0.00  0.00    +0.086 A 
ATOM     16  C   UNL     1      -6.505  -4.157  -1.645  0.00  0.00    +0.056 A 
ATOM     17  C   UNL     1      -7.491  -3.339  -1.124  0.00  0.00    +0.129 A 
ATOM     18  C   UNL     1      -7.157  -2.119  -0.566  0.00  0.00    +0.056 A 
ATOM     19  C   UNL     1      -5.835  -1.716  -0.521  0.00  0.00    +0.086 A 
ATOM     20 CL   UNL     1      -5.416  -0.188   0.186  0.00  0.00    -0.080 Cl
ATOM     21 CL   UNL     1      -3.945  -4.785  -2.263  0.00  0.00    -0.080 Cl
BRANCH  17  22
ATOM     22  N   UNL     1      -8.906  -3.770  -1.165  0.00  0.00    +0.057 N 
ATOM     23  O   UNL     1      -9.200  -4.837  -1.653  0.00  0.00    -0.126 OA
ATOM     24  O   UNL     1      -9.769  -3.055  -0.711  0.00  0.00    -0.126 OA
ENDBRANCH  17  22
ENDBRANCH  13  14
ENDBRANCH   1  13
TORSDOF 7
