REMARK  Name = ZINC49445343
REMARK  9 active torsions:
REMARK  status: ('A' for Active; 'I' for Inactive)
REMARK    1  A    between atoms: C_1  and  C_2
REMARK    2  A    between atoms: C_2  and  C_3
REMARK    3  A    between atoms: C_3  and  C_5
REMARK    4  A    between atoms: C_3  and  N_6
REMARK    5  A    between atoms: C_7  and  C_9
REMARK    6  A    between atoms: C_9  and  C_11
REMARK    7  A    between atoms: C_9  and  N_12
REMARK    8  A    between atoms: N_15  and  C_16
REMARK    9  A    between atoms: C_16  and  C_17
REMARK                            x       y       z     vdW  Elec       q    Type
REMARK                         _______ _______ _______ _____ _____    ______ ____
ROOT
ATOM      1  N   UNL     1      -5.587   0.404  -2.322  0.00  0.00    -0.288 N 
ATOM      2  C   UNL     1      -6.363   1.184  -3.101  0.00  0.00    +0.300 C 
ATOM      3  O   UNL     1      -5.862   1.848  -3.987  0.00  0.00    -0.253 OA
ATOM      4  N   UNL     1      -7.694   1.228  -2.897  0.00  0.00    -0.295 N 
ATOM      5  H   UNL     1      -5.987  -0.126  -1.615  0.00  0.00    +0.151 HD
ATOM      6  H   UNL     1      -8.094   0.698  -2.190  0.00  0.00    +0.151 HD
ENDROOT
BRANCH   1   7
ATOM      7  C   UNL     1      -4.140   0.357  -2.544  0.00  0.00    +0.157 C 
ATOM      8  C   UNL     1      -3.824  -0.670  -3.634  0.00  0.00    +0.038 C 
BRANCH   7  10
ATOM      9  N   UNL     1      -2.105  -0.148  -1.230  0.00  0.00    -0.311 N 
ATOM     10  C   UNL     1      -3.448  -0.040  -1.265  0.00  0.00    +0.233 C 
ATOM     11  O   UNL     1      -4.100  -0.261  -0.267  0.00  0.00    -0.274 OA
ATOM     12  H   UNL     1      -1.584   0.029  -2.029  0.00  0.00    +0.149 HD
BRANCH   9  13
ATOM     13  C   UNL     1      -1.433  -0.534   0.013  0.00  0.00    +0.070 C 
ATOM     14  C   UNL     1      -1.413  -2.059   0.130  0.00  0.00    +0.028 C 
BRANCH  13  16
ATOM     15  C   UNL     1      -0.019   1.526   0.010  0.00  0.00    +0.005 C 
ATOM     16  C   UNL     1       0.002  -0.004   0.002  0.00  0.00    +0.018 C 
ENDBRANCH  13  16
ENDBRANCH   9  13
ENDBRANCH   7  10
ENDBRANCH   1   7
BRANCH   4  17
ATOM     17  C   UNL     1      -8.538   2.076  -3.744  0.00  0.00    +0.148 C 
BRANCH  17  18
ATOM     18  C   UNL     1      -9.976   1.945  -3.312  0.00  0.00    +0.008 A 
ATOM     19  C   UNL     1     -10.662   2.674  -2.398  0.00  0.00    +0.014 A 
ATOM     20  C   UNL     1     -11.990   2.373  -2.161  0.00  0.00    +0.023 A 
ATOM     21  C   UNL     1     -12.566   1.355  -2.849  0.00  0.00    +0.055 A 
ATOM     22  S   UNL     1     -11.218   0.794  -3.875  0.00  0.00    -0.085 S 
ATOM     23 BR   UNL     1     -14.340   0.706  -2.751  0.00  0.00    -0.043 Br
ENDBRANCH  17  18
ENDBRANCH   4  17
TORSDOF 6
