REMARK  Name = ZINC39898746
REMARK  7 active torsions:
REMARK  status: ('A' for Active; 'I' for Inactive)
REMARK    1  A    between atoms: C_1  and  O_2
REMARK    2  A    between atoms: O_2  and  C_3
REMARK    3  A    between atoms: C_5  and  C_10
REMARK    4  A    between atoms: C_8  and  O_9
REMARK    5  A    between atoms: C_13  and  C_27
REMARK    6  A    between atoms: N_20  and  C_21
REMARK    7  A    between atoms: C_21  and  C_22
REMARK                            x       y       z     vdW  Elec       q    Type
REMARK                         _______ _______ _______ _____ _____    ______ ____
ROOT
ATOM      1  C   UNL     1       2.403   0.379  -4.230  0.00  0.00    +0.142 C 
ATOM      2  C   UNL     1       3.894   0.452  -4.046  0.00  0.00    +0.035 A 
ATOM      3  C   UNL     1       4.937   0.824  -3.259  0.00  0.00    +0.075 A 
ATOM      4  N   UNL     1       6.076   0.484  -3.932  0.00  0.00    -0.276 N 
ATOM      5  N   UNL     1       5.774  -0.060  -5.057  0.00  0.00    -0.168 NA
ATOM      6  H   UNL     1       6.978   0.632  -3.609  0.00  0.00    +0.189 HD
ATOM      7  C   UNL     1       4.466  -0.119  -5.206  0.00  0.00    +0.153 A 
ATOM      8  C   UNL     1       3.366  -0.538  -6.093  0.00  0.00    +0.268 C 
ATOM      9  O   UNL     1       3.514  -1.068  -7.178  0.00  0.00    -0.268 OA
ATOM     10  N   UNL     1       2.176  -0.253  -5.535  0.00  0.00    -0.278 N 
ENDROOT
BRANCH   3  11
ATOM     11  C   UNL     1       4.855   1.471  -1.932  0.00  0.00    +0.048 A 
ATOM     12  C   UNL     1       5.330   2.770  -1.755  0.00  0.00    +0.033 A 
ATOM     13  C   UNL     1       5.250   3.370  -0.514  0.00  0.00    +0.042 A 
ATOM     14  C   UNL     1       4.700   2.685   0.557  0.00  0.00    +0.024 A 
ATOM     15  C   UNL     1       4.226   1.397   0.393  0.00  0.00    +0.053 A 
ATOM     16  C   UNL     1       4.294   0.785  -0.848  0.00  0.00    +0.188 A 
ATOM     17  O   UNL     1       3.823  -0.478  -1.012  0.00  0.00    -0.287 OA
ATOM     18 CL   UNL     1       5.843   4.987  -0.295  0.00  0.00    -0.084 Cl
ENDBRANCH   3  11
BRANCH   1  21
ATOM     19  C   UNL     1       0.606  -0.608  -1.056  0.00  0.00    +0.162 A 
ATOM     20  C   UNL     1       1.173   0.159  -2.062  0.00  0.00    +0.055 A 
ATOM     21  C   UNL     1       1.787  -0.456  -3.137  0.00  0.00    -0.019 A 
ATOM     22  C   UNL     1       1.837  -1.836  -3.212  0.00  0.00    +0.009 A 
ATOM     23  C   UNL     1       1.273  -2.606  -2.212  0.00  0.00    +0.049 A 
ATOM     24  C   UNL     1       0.662  -1.996  -1.129  0.00  0.00    +0.158 A 
BRANCH  19  26
ATOM     25  C   UNL     1      -0.017   1.425   0.010  0.00  0.00    +0.277 C 
ATOM     26  O   UNL     1       0.002  -0.004   0.002  0.00  0.00    -0.491 OA
ENDBRANCH  19  26
BRANCH  24  27
ATOM     27  O   UNL     1       0.112  -2.753  -0.142  0.00  0.00    -0.503 OA
ATOM     28  H   UNL     1      -0.816  -2.979  -0.291  0.00  0.00    +0.292 HD
ENDBRANCH  24  27
ENDBRANCH   1  21
BRANCH  10  29
ATOM     29  C   UNL     1       0.867  -0.528  -6.132  0.00  0.00    +0.183 C 
BRANCH  29  30
ATOM     30  C   UNL     1       0.432   0.655  -6.957  0.00  0.00    +0.122 A 
ATOM     31  C   UNL     1       0.690   0.840  -8.264  0.00  0.00    +0.046 A 
ATOM     32  C   UNL     1       0.100   2.072  -8.628  0.00  0.00    +0.041 A 
ATOM     33  C   UNL     1      -0.483   2.567  -7.521  0.00  0.00    +0.195 A 
ATOM     34  O   UNL     1      -0.283   1.702  -6.514  0.00  0.00    -0.466 OA
ENDBRANCH  29  30
ENDBRANCH  10  29
TORSDOF 6
