REMARK  Name = ZINC20262006
REMARK  4 active torsions:
REMARK  status: ('A' for Active; 'I' for Inactive)
REMARK    1  A    between atoms: C_1  and  C_2
REMARK    2  A    between atoms: C_7  and  C_8
REMARK    3  A    between atoms: N_9  and  C_12
REMARK    4  A    between atoms: C_17  and  N_18
REMARK                            x       y       z     vdW  Elec       q    Type
REMARK                         _______ _______ _______ _____ _____    ______ ____
ROOT
ATOM      1  C   UNL     1       0.005  -2.782  -3.590  0.00  0.00    +0.072 A 
ATOM      2  C   UNL     1      -1.085  -3.176  -4.351  0.00  0.00    +0.077 A 
ATOM      3  C   UNL     1      -1.103  -2.937  -5.717  0.00  0.00    +0.164 A 
ATOM      4  C   UNL     1      -0.027  -2.300  -6.325  0.00  0.00    +0.164 A 
ATOM      5  C   UNL     1       1.064  -1.906  -5.565  0.00  0.00    +0.074 A 
ATOM      6  C   UNL     1       1.081  -2.140  -4.199  0.00  0.00    +0.052 A 
ATOM      7  O   UNL     1      -0.030  -2.055  -7.664  0.00  0.00    -0.485 OA
ATOM      8  C   UNL     1      -0.968  -2.795  -8.453  0.00  0.00    +0.270 C 
ATOM      9  C   UNL     1      -2.330  -2.750  -7.747  0.00  0.00    +0.270 C 
ATOM     10  O   UNL     1      -2.181  -3.336  -6.449  0.00  0.00    -0.485 OA
ENDROOT
BRANCH   1  19
ATOM     11  C   UNL     1       0.025   0.058   2.505  0.00  0.00    +0.044 C 
ATOM     12  C   UNL     1       0.023  -0.699   1.203  0.00  0.00    -0.045 A 
ATOM     13  C   UNL     1       0.041  -2.076   1.213  0.00  0.00    +0.033 A 
ATOM     14  C   UNL     1       0.039  -2.779   0.006  0.00  0.00    +0.090 A 
ATOM     15  C   UNL     1       0.018  -2.070  -1.208  0.00  0.00    +0.074 A 
ATOM     16  C   UNL     1      -0.006  -0.682  -1.198  0.00  0.00    +0.032 A 
ATOM     17  C   UNL     1       0.002  -0.004   0.002  0.00  0.00    -0.045 A 
ATOM     18  C   UNL     1      -0.018   1.503   0.010  0.00  0.00    +0.044 C 
ATOM     19  N   UNL     1       0.021  -3.024  -2.207  0.00  0.00    -0.297 N 
ATOM     20  C   UNL     1       0.043  -4.244  -1.601  0.00  0.00    +0.205 A 
ATOM     21  N   UNL     1       0.053  -4.100  -0.307  0.00  0.00    -0.235 NA
ENDBRANCH   1  19
BRANCH   6  22
ATOM     22  N   UNL     1       2.182  -1.737  -3.432  0.00  0.00    -0.356 N 
ATOM     23  H   UNL     1       3.032  -1.230  -3.913  0.00  0.00    +0.142 HD
ATOM     24  H   UNL     1       2.197  -1.926  -2.348  0.00  0.00    +0.142 HD
ENDBRANCH   6  22
TORSDOF 2
