REMARK  Name = ZINC64789404
REMARK  7 active torsions:
REMARK  status: ('A' for Active; 'I' for Inactive)
REMARK    1  A    between atoms: C_1  and  C_2
REMARK    2  A    between atoms: C_2  and  C_3
REMARK    3  A    between atoms: C_6  and  C_28
REMARK    4  A    between atoms: N_16  and  C_19
REMARK    5  A    between atoms: C_21  and  C_26
REMARK    6  A    between atoms: C_23  and  C_25
REMARK    7  A    between atoms: C_31  and  C_33
REMARK                            x       y       z     vdW  Elec       q    Type
REMARK                         _______ _______ _______ _____ _____    ______ ____
ROOT
ATOM      1  C   UNL     1      -1.414  -1.554  -3.341  0.00  0.00    +0.232 C 
ATOM      2  O   UNL     1      -2.347  -0.909  -3.771  0.00  0.00    -0.274 OA
ATOM      3  N   UNL     1      -1.642  -2.648  -2.588  0.00  0.00    -0.214 N 
ATOM      4  C   UNL     1      -2.967  -3.167  -2.222  0.00  0.00    +0.139 C 
ATOM      5  C   UNL     1      -2.670  -4.413  -1.368  0.00  0.00    +0.082 C 
ATOM      6  C   UNL     1      -1.160  -4.487  -1.328  0.00  0.00    +0.041 C 
ATOM      7  N   UNL     1      -0.658  -3.467  -2.039  0.00  0.00    -0.264 N 
ATOM      8  C   UNL     1      -0.419  -5.451  -0.670  0.00  0.00    +0.118 C 
ATOM      9  C   UNL     1      -1.068  -6.543   0.077  0.00  0.00    +0.258 C 
ATOM     10  N   UNL     1      -0.281  -7.449   0.695  0.00  0.00    -0.235 N 
ATOM     11  C   UNL     1       1.056  -7.369   0.639  0.00  0.00    +0.320 C 
ATOM     12  O   UNL     1       1.707  -8.217   1.217  0.00  0.00    -0.251 OA
ATOM     13  N   UNL     1       1.712  -6.405  -0.022  0.00  0.00    -0.190 N 
ATOM     14  C   UNL     1       1.055  -5.436  -0.691  0.00  0.00    +0.265 C 
ATOM     15  O   UNL     1       1.662  -4.569  -1.292  0.00  0.00    -0.269 OA
ATOM     16  O   UNL     1      -2.280  -6.626   0.136  0.00  0.00    -0.270 OA
ATOM     17  H   UNL     1      -0.693  -8.174   1.191  0.00  0.00    +0.159 HD
ATOM     18  H   UNL     1       0.293  -3.314  -2.157  0.00  0.00    +0.170 HD
ENDROOT
BRANCH  13  19
ATOM     19  C   UNL     1       3.114  -6.408  -0.022  0.00  0.00    +0.046 A 
ATOM     20  C   UNL     1       3.811  -5.731   0.969  0.00  0.00    +0.027 A 
ATOM     21  C   UNL     1       5.192  -5.735   0.966  0.00  0.00    -0.048 A 
ATOM     22  C   UNL     1       5.880  -6.413  -0.023  0.00  0.00    +0.006 A 
ATOM     23  C   UNL     1       5.189  -7.088  -1.012  0.00  0.00    -0.048 A 
ATOM     24  C   UNL     1       3.808  -7.092  -1.011  0.00  0.00    +0.027 A 
ATOM     25  C   UNL     1       5.943  -7.824  -2.089  0.00  0.00    +0.044 C 
ATOM     26  C   UNL     1       5.949  -5.000   2.042  0.00  0.00    +0.044 C 
ENDBRANCH  13  19
BRANCH   4  27
ATOM     27  C   UNL     1      -3.743  -3.545  -3.457  0.00  0.00    +0.013 A 
ATOM     28  C   UNL     1      -5.063  -3.381  -3.720  0.00  0.00    +0.013 A 
ATOM     29  C   UNL     1      -5.563  -3.808  -4.936  0.00  0.00    +0.011 A 
ATOM     30  C   UNL     1      -4.718  -4.379  -5.829  0.00  0.00    -0.013 A 
ATOM     31  S   UNL     1      -3.162  -4.319  -4.957  0.00  0.00    -0.096 S 
ATOM     32  C   UNL     1      -5.016  -4.920  -7.204  0.00  0.00    +0.051 C 
ENDBRANCH   4  27
BRANCH   1  34
ATOM     33  C   UNL     1      -0.022   0.131  -4.513  0.00  0.00    +0.013 C 
ATOM     34  C   UNL     1      -0.001  -1.131  -3.648  0.00  0.00    +0.094 C 
ENDBRANCH   1  34
TORSDOF 3
