REMARK  Name = ZINC11990665
REMARK  4 active torsions:
REMARK  status: ('A' for Active; 'I' for Inactive)
REMARK    1  A    between atoms: C_5  and  C_7
REMARK    2  A    between atoms: C_7  and  C_8
REMARK    3  A    between atoms: C_13  and  N_15
REMARK    4  A    between atoms: N_15  and  C_16
REMARK                            x       y       z     vdW  Elec       q    Type
REMARK                         _______ _______ _______ _____ _____    ______ ____
ROOT
ATOM      1  C   UNL     1       1.904  -3.082   1.785  0.00  0.00    +0.146 C 
ATOM      2  C   UNL     1       1.776  -4.601   1.806  0.00  0.00    +0.252 C 
ATOM      3  O   UNL     1       2.599  -5.353   1.319  0.00  0.00    -0.272 OA
ATOM      4  N   UNL     1       0.685  -5.010   2.404  0.00  0.00    -0.154 NA
ATOM      5  C   UNL     1      -0.215  -4.205   2.936  0.00  0.00    +0.184 C 
ATOM      6  S   UNL     1       0.352  -2.641   2.671  0.00  0.00    -0.075 S 
ENDROOT
BRANCH   1   7
ATOM      7  C   UNL     1       1.904  -2.541   0.354  0.00  0.00    +0.060 C 
BRANCH   7  12
ATOM      8  C   UNL     1       1.056   1.138   0.363  0.00  0.00    +0.000 A 
ATOM      9  C   UNL     1       2.312   1.711   0.440  0.00  0.00    +0.001 A 
ATOM     10  C   UNL     1       3.437   0.909   0.488  0.00  0.00    +0.020 A 
ATOM     11  C   UNL     1       3.305  -0.468   0.460  0.00  0.00    +0.044 A 
ATOM     12  C   UNL     1       2.048  -1.041   0.385  0.00  0.00    -0.028 A 
ATOM     13  C   UNL     1       0.924  -0.237   0.336  0.00  0.00    +0.005 A 
ATOM     14 CL   UNL     1       4.717  -1.477   0.520  0.00  0.00    -0.083 Cl
ENDBRANCH   7  12
ENDBRANCH   1   7
BRANCH   5  15
ATOM     15  N   UNL     1      -1.372  -4.567   3.572  0.00  0.00    -0.190 NA
BRANCH  15  16
ATOM     16  C   UNL     1      -1.825  -5.869   3.494  0.00  0.00    +0.216 C 
ATOM     17  N   UNL     1      -2.702  -6.305   4.351  0.00  0.00    -0.267 NA
ATOM     18  N   UNL     1      -1.350  -6.704   2.511  0.00  0.00    -0.368 N 
ATOM     19  H   UNL     1      -0.796  -6.348   1.799  0.00  0.00    +0.159 HD
ATOM     20  H   UNL     1      -1.569  -7.649   2.530  0.00  0.00    +0.159 HD
ATOM     21  H   UNL     1      -3.038  -5.716   5.045  0.00  0.00    +0.190 HD
ENDBRANCH  15  16
ENDBRANCH   5  15
TORSDOF 4
