REMARK  Name = ZINC63128682
REMARK  6 active torsions:
REMARK  status: ('A' for Active; 'I' for Inactive)
REMARK    1  A    between atoms: C_1  and  N_2
REMARK    2  A    between atoms: C_6  and  C_8
REMARK    3  A    between atoms: C_8  and  N_9
REMARK    4  A    between atoms: C_11  and  C_19
REMARK    5  A    between atoms: C_19  and  C_20
REMARK    6  A    between atoms: C_20  and  N_21
REMARK                            x       y       z     vdW  Elec       q    Type
REMARK                         _______ _______ _______ _____ _____    ______ ____
ROOT
ATOM      1  N   UNL     1      -3.649  -4.745   0.011  0.00  0.00    -0.320 N 
ATOM      2  C   UNL     1      -4.428  -5.037   1.218  0.00  0.00    +0.113 C 
ATOM      3  C   UNL     1      -5.789  -5.537   0.709  0.00  0.00    +0.036 C 
ATOM      4  C   UNL     1      -5.672  -5.488  -0.798  0.00  0.00    -0.022 A 
ATOM      5  C   UNL     1      -4.411  -5.015  -1.127  0.00  0.00    +0.034 A 
ATOM      6  C   UNL     1      -4.069  -4.877  -2.474  0.00  0.00    +0.023 A 
ATOM      7  C   UNL     1      -4.977  -5.203  -3.458  0.00  0.00    +0.002 A 
ATOM      8  C   UNL     1      -6.234  -5.669  -3.120  0.00  0.00    +0.000 A 
ATOM      9  C   UNL     1      -6.577  -5.818  -1.788  0.00  0.00    +0.006 A 
ENDROOT
BRANCH   1  10
ATOM     10  C   UNL     1      -2.275  -4.238   0.001  0.00  0.00    +0.201 C 
BRANCH  10  16
ATOM     11  C   UNL     1      -0.018   1.461   0.010  0.00  0.00    +0.129 C 
ATOM     12  N   UNL     1       0.002  -0.004   0.002  0.00  0.00    -0.302 N 
ATOM     13  C   UNL     1      -1.156  -0.694   0.009  0.00  0.00    +0.306 C 
ATOM     14  O   UNL     1      -2.216  -0.101   0.023  0.00  0.00    -0.252 OA
ATOM     15  N   UNL     1      -1.137  -2.041   0.002  0.00  0.00    -0.239 N 
ATOM     16  C   UNL     1      -2.295  -2.731   0.009  0.00  0.00    +0.238 C 
ATOM     17  O   UNL     1      -3.353  -2.139   0.023  0.00  0.00    -0.274 OA
ATOM     18  H   UNL     1       0.849  -0.478  -0.009  0.00  0.00    +0.150 HD
ATOM     19  H   UNL     1      -0.291  -2.515  -0.009  0.00  0.00    +0.159 HD
ENDBRANCH  10  16
ENDBRANCH   1  10
BRANCH   3  20
ATOM     20  C   UNL     1      -6.911  -4.614   1.190  0.00  0.00    -0.010 C 
BRANCH  20  21
ATOM     21  C   UNL     1      -8.264  -5.199   0.777  0.00  0.00    -0.086 C 
BRANCH  21  22
ATOM     22  N   UNL     1      -9.341  -4.313   1.239  0.00  0.00    +0.378 N 
ATOM     23  H   UNL     1     -10.233  -4.698   0.967  0.00  0.00    -0.090 HD
ATOM     24  H   UNL     1      -9.302  -4.232   2.244  0.00  0.00    -0.090 HD
ATOM     25  H   UNL     1      -9.227  -3.401   0.823  0.00  0.00    -0.090 HD
ENDBRANCH  21  22
ENDBRANCH  20  21
ENDBRANCH   3  20
TORSDOF 5
