REMARK  Name = ZINC05043878
REMARK  7 active torsions:
REMARK  status: ('A' for Active; 'I' for Inactive)
REMARK    1  A    between atoms: C_1  and  C_2
REMARK    2  A    between atoms: C_7  and  N_52
REMARK    3  A    between atoms: C_9  and  C_11
REMARK    4  A    between atoms: C_12  and  N_52
REMARK    5  A    between atoms: N_17  and  C_20
REMARK    6  A    between atoms: C_23  and  N_26
REMARK    7  A    between atoms: C_27  and  C_29
REMARK                            x       y       z     vdW  Elec       q    Type
REMARK                         _______ _______ _______ _____ _____    ______ ____
ROOT
ATOM      1  C   UNL     1       2.640   0.072  -2.668  0.00  0.00    +0.026 C 
ATOM      2  C   UNL     1       4.182   0.101  -2.667  0.00  0.00    +0.090 C 
ATOM      3  C   UNL     1       4.512   1.436  -3.298  0.00  0.00    +0.225 C 
ATOM      4  O   UNL     1       5.630   1.865  -3.492  0.00  0.00    -0.275 OA
ATOM      5  N   UNL     1       3.374   2.070  -3.610  0.00  0.00    -0.212 N 
ATOM      6  C   UNL     1       2.261   1.394  -3.299  0.00  0.00    +0.213 C 
ATOM      7  O   UNL     1       1.128   1.780  -3.493  0.00  0.00    -0.277 OA
ENDROOT
BRANCH   5   8
ATOM      8  C   UNL     1       3.351   3.337  -4.212  0.00  0.00    +0.044 A 
ATOM      9  C   UNL     1       2.848   3.485  -5.497  0.00  0.00    +0.026 A 
ATOM     10  C   UNL     1       2.820   4.732  -6.088  0.00  0.00    +0.025 A 
ATOM     11  C   UNL     1       3.304   5.837  -5.400  0.00  0.00    +0.033 A 
ATOM     12  C   UNL     1       3.812   5.688  -4.116  0.00  0.00    +0.025 A 
ATOM     13  C   UNL     1       3.835   4.441  -3.524  0.00  0.00    +0.026 A 
BRANCH  11  14
ATOM     14  N   UNL     1       3.280   7.102  -6.000  0.00  0.00    -0.286 N 
ATOM     15  C   UNL     1       2.267   7.438  -6.823  0.00  0.00    +0.214 C 
ATOM     16  O   UNL     1       1.327   6.685  -6.968  0.00  0.00    -0.276 OA
ATOM     17  C   UNL     1       2.301   8.750  -7.564  0.00  0.00    +0.109 C 
ATOM     18  H   UNL     1       3.992   7.736  -5.824  0.00  0.00    +0.155 HD
ENDBRANCH  11  14
ENDBRANCH   5   8
BRANCH   1  19
ATOM     19  N   UNL     1       2.130  -0.009  -1.286  0.00  0.00    +0.389 N 
ATOM     20  H   UNL     1       2.728  -0.642  -0.741  0.00  0.00    -0.084 HD
ATOM     21  H   UNL     1       2.146   0.926  -0.864  0.00  0.00    -0.084 HD
BRANCH  19  27
ATOM     22  C   UNL     1       0.071  -0.060   2.482  0.00  0.00    +0.008 C 
ATOM     23  C   UNL     1       0.782  -0.547   1.217  0.00  0.00    -0.013 C 
ATOM     24  C   UNL     1       0.804  -2.077   1.202  0.00  0.00    +0.003 C 
ATOM     25  C   UNL     1       1.515  -2.564  -0.063  0.00  0.00    -0.001 C 
ATOM     26  C   UNL     1       0.769  -2.052  -1.296  0.00  0.00    -0.015 C 
ATOM     27  C   UNL     1       0.747  -0.522  -1.281  0.00  0.00    -0.068 C 
ATOM     28  C   UNL     1       0.036  -0.035  -0.017  0.00  0.00    -0.025 C 
ATOM     29  C   UNL     1       0.014   1.494  -0.001  0.00  0.00    +0.006 C 
ENDBRANCH  19  27
ENDBRANCH   1  19
TORSDOF 4
