REMARK  Name = ZINC09165387
REMARK  9 active torsions:
REMARK  status: ('A' for Active; 'I' for Inactive)
REMARK    1  A    between atoms: C_1  and  N_2
REMARK    2  A    between atoms: C_10  and  C_12
REMARK    3  A    between atoms: C_12  and  C_14
REMARK    4  A    between atoms: C_12  and  N_73
REMARK    5  A    between atoms: C_14  and  N_15
REMARK    6  A    between atoms: C_16  and  C_18
REMARK    7  A    between atoms: N_20  and  C_21
REMARK    8  A    between atoms: C_21  and  C_22
REMARK    9  A    between atoms: C_22  and  C_23
REMARK                            x       y       z     vdW  Elec       q    Type
REMARK                         _______ _______ _______ _____ _____    ______ ____
ROOT
ATOM      1  C   UNL     1      -2.036   1.632   2.191  0.00  0.00    +0.094 C 
ENDROOT
BRANCH   1   2
ATOM      2  N   UNL     1      -3.240   2.457   2.325  0.00  0.00    -0.309 N 
ATOM      3  C   UNL     1      -3.565   2.985   3.521  0.00  0.00    +0.299 C 
ATOM      4  O   UNL     1      -2.861   2.777   4.487  0.00  0.00    -0.265 OA
ATOM      5  H   UNL     1      -3.802   2.623   1.552  0.00  0.00    +0.149 HD
BRANCH   3   6
ATOM      6  C   UNL     1      -4.792   3.827   3.658  0.00  0.00    +0.299 C 
ATOM      7  O   UNL     1      -5.496   4.035   2.691  0.00  0.00    -0.265 OA
ATOM      8  N   UNL     1      -5.117   4.355   4.854  0.00  0.00    -0.307 N 
ATOM      9  H   UNL     1      -4.555   4.189   5.627  0.00  0.00    +0.149 HD
BRANCH   8  10
ATOM     10  C   UNL     1      -6.321   5.180   4.988  0.00  0.00    +0.109 C 
BRANCH  10  11
ATOM     11  C   UNL     1      -6.457   5.651   6.437  0.00  0.00    +0.056 C 
BRANCH  11  12
ATOM     12  C   UNL     1      -7.695   6.500   6.575  0.00  0.00    -0.021 A 
ATOM     13  C   UNL     1      -7.755   7.840   6.514  0.00  0.00    +0.087 A 
ATOM     14  N   UNL     1      -9.048   8.256   6.680  0.00  0.00    -0.360 N 
ATOM     15  H   UNL     1      -9.341   9.181   6.673  0.00  0.00    +0.165 HD
ATOM     16  C   UNL     1      -9.871   7.168   6.864  0.00  0.00    +0.047 A 
ATOM     17  C   UNL     1      -9.060   6.020   6.806  0.00  0.00    +0.003 A 
ATOM     18  C   UNL     1      -9.630   4.755   6.962  0.00  0.00    +0.010 A 
ATOM     19  C   UNL     1     -10.976   4.639   7.170  0.00  0.00    +0.001 A 
ATOM     20  C   UNL     1     -11.780   5.768   7.228  0.00  0.00    +0.002 A 
ATOM     21  C   UNL     1     -11.238   7.026   7.077  0.00  0.00    +0.026 A 
ENDBRANCH  11  12
ENDBRANCH  10  11
ENDBRANCH   8  10
ENDBRANCH   3   6
ENDBRANCH   1   2
BRANCH   1  22
ATOM     22  C   UNL     1      -1.981   1.035   0.783  0.00  0.00    -0.020 C 
BRANCH  22  32
ATOM     23  C   UNL     1       3.829  -1.437   0.996  0.00  0.00    +0.129 C 
ATOM     24  N   UNL     1       2.750  -2.046   0.207  0.00  0.00    -0.333 N 
ATOM     25  C   UNL     1       2.610  -3.470   0.520  0.00  0.00    +0.105 C 
ATOM     26  C   UNL     1       1.455  -4.043  -0.310  0.00  0.00    +0.024 C 
ATOM     27  C   UNL     1       0.152  -3.430   0.208  0.00  0.00    +0.038 C 
ATOM     28  C   UNL     1       0.316  -1.938   0.354  0.00  0.00    -0.026 A 
ATOM     29  C   UNL     1       1.561  -1.333   0.354  0.00  0.00    +0.033 A 
ATOM     30  C   UNL     1       1.649   0.051   0.503  0.00  0.00    +0.023 A 
ATOM     31  C   UNL     1       0.509   0.813   0.643  0.00  0.00    +0.004 A 
ATOM     32  C   UNL     1      -0.733   0.204   0.638  0.00  0.00    -0.059 A 
ATOM     33  C   UNL     1      -0.826  -1.166   0.495  0.00  0.00    +0.007 A 
ENDBRANCH  22  32
BRANCH  22  39
ATOM     34  C   UNL     1      -1.308   1.689  -1.449  0.00  0.00    -0.078 C 
ATOM     35  C   UNL     1      -1.438   2.788  -2.505  0.00  0.00    -0.019 C 
ATOM     36  C   UNL     1      -0.789   4.072  -1.981  0.00  0.00    -0.004 C 
ATOM     37  C   UNL     1      -1.460   4.473  -0.663  0.00  0.00    -0.019 C 
ATOM     38  C   UNL     1      -1.329   3.324   0.339  0.00  0.00    -0.078 C 
ATOM     39  N   UNL     1      -1.994   2.125  -0.214  0.00  0.00    +0.385 N 
ATOM     40  H   UNL     1      -2.968   2.359  -0.440  0.00  0.00    -0.081 HD
ENDBRANCH  22  39
ENDBRANCH   1  22
TORSDOF 8
