REMARK  Name = ZINC33558757
REMARK  5 active torsions:
REMARK  status: ('A' for Active; 'I' for Inactive)
REMARK    1  A    between atoms: C_1  and  C_2
REMARK    2  A    between atoms: C_2  and  C_3
REMARK    3  A    between atoms: C_3  and  C_4
REMARK    4  A    between atoms: C_4  and  C_5
REMARK    5  A    between atoms: C_8  and  N_11
REMARK                            x       y       z     vdW  Elec       q    Type
REMARK                         _______ _______ _______ _____ _____    ______ ____
ROOT
ATOM      1  N   UNL     1      -6.734  -4.028   0.045  0.00  0.00    -0.276 N 
ATOM      2  C   UNL     1      -7.817  -3.232  -0.474  0.00  0.00    +0.116 C 
ATOM      3  C   UNL     1      -7.852  -1.805   0.072  0.00  0.00    +0.190 C 
ATOM      4  S   UNL     1      -9.406  -1.759   1.051  0.00  0.00    -0.028 S 
ATOM      5  O   UNL     1     -10.307  -0.847   0.440  0.00  0.00    -0.174 OA
ATOM      6  O   UNL     1      -9.080  -1.604   2.425  0.00  0.00    -0.174 OA
ATOM      7  C   UNL     1     -10.011  -3.470   0.772  0.00  0.00    +0.182 C 
ATOM      8  C   UNL     1      -9.188  -3.926  -0.439  0.00  0.00    +0.097 C 
ATOM      9  S   UNL     1      -8.644  -5.655  -0.082  0.00  0.00    -0.086 S 
ATOM     10  C   UNL     1      -7.018  -5.284   0.548  0.00  0.00    +0.133 C 
ATOM     11  N   UNL     1      -6.276  -6.024   1.323  0.00  0.00    -0.381 N 
ATOM     12  H   UNL     1      -5.441  -5.675   1.673  0.00  0.00    +0.158 HD
ATOM     13  H   UNL     1      -6.558  -6.923   1.551  0.00  0.00    +0.158 HD
ENDROOT
BRANCH   1  17
ATOM     14  C   UNL     1      -2.827  -2.584   0.016  0.00  0.00    -0.047 A 
ATOM     15  C   UNL     1      -3.484  -2.772   1.218  0.00  0.00    +0.005 A 
ATOM     16  C   UNL     1      -4.780  -3.250   1.231  0.00  0.00    +0.024 A 
ATOM     17  C   UNL     1      -5.422  -3.543   0.035  0.00  0.00    +0.036 A 
ATOM     18  C   UNL     1      -4.759  -3.353  -1.170  0.00  0.00    +0.024 A 
ATOM     19  C   UNL     1      -3.466  -2.869  -1.177  0.00  0.00    +0.005 A 
BRANCH  14  20
ATOM     20  C   UNL     1      -1.413  -2.062   0.006  0.00  0.00    +0.035 C 
BRANCH  20  21
ATOM     21  C   UNL     1      -1.434  -0.534  -0.053  0.00  0.00    +0.004 C 
BRANCH  21  23
ATOM     22  C   UNL     1      -0.020   1.525  -0.123  0.00  0.00    +0.004 C 
ATOM     23  C   UNL     1       0.001  -0.004  -0.064  0.00  0.00    -0.003 C 
ENDBRANCH  21  23
ENDBRANCH  20  21
ENDBRANCH  14  20
ENDBRANCH   1  17
TORSDOF 4
