REMARK  Name = ZINC36266668
REMARK  6 active torsions:
REMARK  status: ('A' for Active; 'I' for Inactive)
REMARK    1  A    between atoms: C_1  and  C_2
REMARK    2  A    between atoms: C_5  and  S_7
REMARK    3  A    between atoms: S_7  and  N_10
REMARK    4  A    between atoms: N_10  and  C_11
REMARK    5  A    between atoms: C_11  and  C_12
REMARK    6  A    between atoms: C_12  and  N_18
REMARK                            x       y       z     vdW  Elec       q    Type
REMARK                         _______ _______ _______ _____ _____    ______ ____
ROOT
ATOM      1  N   UNL     1       1.300  -4.748  -1.614  0.00  0.00    -0.191 NA
ATOM      2  H   UNL     1       0.759  -5.468  -1.974  0.00  0.00    +0.148 HD
ENDROOT
BRANCH   1   3
ATOM      3  S   UNL     1       1.134  -4.300  -0.029  0.00  0.00    +0.065 S 
ATOM      4  O   UNL     1       2.445  -4.240   0.516  0.00  0.00    -0.153 OA
ATOM      5  O   UNL     1       0.117  -5.126   0.522  0.00  0.00    -0.153 OA
BRANCH   3  10
ATOM      6  C   UNL     1      -0.018   1.503   0.010  0.00  0.00    +0.051 C 
ATOM      7  C   UNL     1       0.002  -0.004   0.002  0.00  0.00    -0.011 A 
ATOM      8  C   UNL     1      -1.039  -0.872   0.002  0.00  0.00    +0.013 A 
ATOM      9  C   UNL     1      -0.780  -2.230  -0.007  0.00  0.00    +0.036 A 
ATOM     10  C   UNL     1       0.507  -2.653  -0.016  0.00  0.00    +0.143 A 
ATOM     11  S   UNL     1       1.404  -1.109  -0.018  0.00  0.00    -0.074 S 
ENDBRANCH   3  10
ENDBRANCH   1   3
BRANCH   1  12
ATOM     12  C   UNL     1       2.266  -4.058  -2.473  0.00  0.00    +0.093 C 
BRANCH  12  13
ATOM     13  C   UNL     1       2.497  -4.879  -3.743  0.00  0.00    -0.057 C 
ATOM     14  C   UNL     1       3.043  -6.258  -3.367  0.00  0.00    -0.012 C 
ATOM     15  C   UNL     1       4.367  -6.095  -2.618  0.00  0.00    -0.001 C 
ATOM     16  C   UNL     1       5.375  -5.375  -3.515  0.00  0.00    -0.000 C 
ATOM     17  C   UNL     1       4.829  -3.996  -3.891  0.00  0.00    -0.001 C 
ATOM     18  C   UNL     1       3.505  -4.158  -4.640  0.00  0.00    -0.012 C 
BRANCH  13  19
ATOM     19  N   UNL     1       1.226  -5.035  -4.463  0.00  0.00    +0.383 N 
ATOM     20  H   UNL     1       0.865  -4.126  -4.711  0.00  0.00    -0.089 HD
ATOM     21  H   UNL     1       1.378  -5.577  -5.301  0.00  0.00    -0.089 HD
ATOM     22  H   UNL     1       0.560  -5.511  -3.871  0.00  0.00    -0.089 HD
ENDBRANCH  13  19
ENDBRANCH  12  13
ENDBRANCH   1  12
TORSDOF 5
