REMARK  Name = ZINC24718563
REMARK  9 active torsions:
REMARK  status: ('A' for Active; 'I' for Inactive)
REMARK    1  A    between atoms: C_1  and  C_2
REMARK    2  A    between atoms: C_2  and  C_28
REMARK    3  A    between atoms: C_3  and  N_15
REMARK    4  A    between atoms: C_6  and  C_13
REMARK    5  A    between atoms: C_6  and  C_14
REMARK    6  A    between atoms: C_7  and  C_11
REMARK    7  A    between atoms: C_7  and  C_12
REMARK    8  A    between atoms: C_8  and  C_9
REMARK    9  A    between atoms: C_8  and  C_10
REMARK                            x       y       z     vdW  Elec       q    Type
REMARK                         _______ _______ _______ _____ _____    ______ ____
ROOT
ATOM      1  C   UNL     1       4.133  -1.809   4.289  0.00  0.00    +0.015 C 
ATOM      2  C   UNL     1       2.797  -1.329   4.868  0.00  0.00    +0.012 C 
ATOM      3  C   UNL     1       1.655  -1.815   3.979  0.00  0.00    +0.215 C 
ATOM      4  O   UNL     1       1.499  -3.222   4.129  0.00  0.00    -0.353 OA
ATOM      5  C   UNL     1       1.115  -3.652   5.431  0.00  0.00    +0.072 C 
ATOM      6  C   UNL     1       2.131  -3.213   6.479  0.00  0.00    -0.001 C 
ATOM      7  C   UNL     1       2.644  -1.792   6.309  0.00  0.00    -0.018 C 
ATOM      8  C   UNL     1       1.726  -0.814   7.061  0.00  0.00    +0.012 C 
ATOM      9  C   UNL     1       4.035  -1.710   6.979  0.00  0.00    +0.012 C 
ATOM     10  C   UNL     1       1.454  -3.315   7.863  0.00  0.00    +0.014 C 
ATOM     11  C   UNL     1       3.310  -4.199   6.477  0.00  0.00    +0.014 C 
ATOM     12  C   UNL     1      -0.284  -3.146   5.780  0.00  0.00    +0.042 C 
ATOM     13  C   UNL     1       1.071  -5.194   5.424  0.00  0.00    +0.042 C 
ATOM     14  C   UNL     1       2.800   0.212   4.848  0.00  0.00    +0.015 C 
ENDROOT
BRANCH   3  15
ATOM     15  N   UNL     1       1.981  -1.518   2.576  0.00  0.00    -0.172 NA
ATOM     16  C   UNL     1       1.132  -0.916   1.556  0.00  0.00    +0.233 C 
ATOM     17  C   UNL     1       2.213   0.019   0.916  0.00  0.00    +0.084 C 
ATOM     18  H   UNL     1       3.868  -2.566   2.200  0.00  0.00    +0.167 HD
ATOM     19  C   UNL     1       2.350   1.406   0.384  0.00  0.00    +0.251 C 
ATOM     20  O   UNL     1       3.400   2.012   0.375  0.00  0.00    -0.270 OA
ATOM     21  N   UNL     1       0.281   0.800  -0.269  0.00  0.00    -0.273 N 
ATOM     22  C   UNL     1      -0.342   0.784   0.964  0.00  0.00    +0.184 C 
ATOM     23  N   UNL     1       0.030  -0.051   1.903  0.00  0.00    -0.251 NA
ATOM     24  C   UNL     1       3.384  -0.908   0.911  0.00  0.00    +0.096 C 
ATOM     25  N   UNL     1       3.203  -1.748   1.885  0.00  0.00    -0.267 N 
ATOM     26 BR   UNL     1       5.180  -0.456   1.292  0.00  0.00    -0.032 Br
ATOM     27  H   UNL     1      -0.288   0.549  -1.176  0.00  0.00    +0.156 HD
ENDBRANCH   3  15
TORSDOF 1
