REMARK  Name = ZINC15676332
REMARK  7 active torsions:
REMARK  status: ('A' for Active; 'I' for Inactive)
REMARK    1  A    between atoms: C_1  and  C_2
REMARK    2  A    between atoms: C_5  and  C_8
REMARK    3  A    between atoms: C_8  and  N_9
REMARK    4  A    between atoms: C_18  and  C_20
REMARK    5  A    between atoms: N_22  and  C_23
REMARK    6  A    between atoms: C_23  and  C_24
REMARK    7  A    between atoms: C_27  and  C_30
REMARK                            x       y       z     vdW  Elec       q    Type
REMARK                         _______ _______ _______ _____ _____    ______ ____
ROOT
ATOM      1  N   UNL     1       1.103  -4.927  -0.339  0.00  0.00    -0.281 NA
ATOM      2  C   UNL     1       1.766  -4.749  -1.642  0.00  0.00    +0.140 C 
ATOM      3  C   UNL     1       3.252  -4.916  -1.443  0.00  0.00    +0.051 A 
ATOM      4  C   UNL     1       3.794  -5.491  -0.345  0.00  0.00    +0.040 A 
ATOM      5  N   UNL     1       5.143  -5.469  -0.505  0.00  0.00    -0.349 N 
ATOM      6  H   UNL     1       5.804  -5.810   0.118  0.00  0.00    +0.166 HD
ATOM      7  C   UNL     1       5.389  -4.882  -1.700  0.00  0.00    +0.171 A 
ATOM      8  N   UNL     1       4.249  -4.555  -2.252  0.00  0.00    -0.349 N 
ATOM      9  C   UNL     1       2.977  -6.034   0.799  0.00  0.00    +0.083 C 
ATOM     10  C   UNL     1       1.526  -6.173   0.315  0.00  0.00    +0.149 C 
ATOM     11  H   UNL     1       4.146  -4.120  -3.113  0.00  0.00    +0.166 HD
ENDROOT
BRANCH  10  12
ATOM     12  C   UNL     1       0.628  -6.451   1.494  0.00  0.00    +0.231 C 
ATOM     13  O   UNL     1       0.205  -5.532   2.163  0.00  0.00    -0.274 OA
ATOM     14  N   UNL     1       0.296  -7.720   1.803  0.00  0.00    -0.310 N 
ATOM     15  H   UNL     1       0.635  -8.454   1.268  0.00  0.00    +0.149 HD
BRANCH  14  16
ATOM     16  C   UNL     1      -0.576  -7.990   2.949  0.00  0.00    +0.139 C 
BRANCH  16  17
ATOM     17  C   UNL     1      -0.791  -9.476   3.078  0.00  0.00    -0.030 A 
ATOM     18  C   UNL     1      -1.847 -10.078   2.418  0.00  0.00    +0.006 A 
ATOM     19  C   UNL     1      -2.050 -11.438   2.531  0.00  0.00    +0.019 A 
ATOM     20  C   UNL     1      -1.186 -12.207   3.313  0.00  0.00    +0.052 A 
ATOM     21  C   UNL     1      -0.121 -11.592   3.976  0.00  0.00    +0.019 A 
ATOM     22  C   UNL     1       0.072 -10.232   3.850  0.00  0.00    +0.006 A 
BRANCH  20  23
ATOM     23  C   UNL     1      -1.391 -13.619   3.435  0.00  0.00    +0.099 C 
ATOM     24  N   UNL     1      -1.553 -14.739   3.533  0.00  0.00    -0.191 NA
ENDBRANCH  20  23
ENDBRANCH  16  17
ENDBRANCH  14  16
ENDBRANCH  10  12
BRANCH   1  25
ATOM     25  C   UNL     1      -0.358  -4.877  -0.481  0.00  0.00    +0.120 C 
BRANCH  25  30
ATOM     26  C   UNL     1      -1.995   0.534  -1.679  0.00  0.00    +0.044 C 
ATOM     27  C   UNL     1      -1.568  -0.877  -1.366  0.00  0.00    -0.050 A 
ATOM     28  C   UNL     1      -1.265  -1.750  -2.394  0.00  0.00    +0.003 A 
ATOM     29  C   UNL     1      -0.874  -3.045  -2.107  0.00  0.00    +0.005 A 
ATOM     30  C   UNL     1      -0.784  -3.465  -0.794  0.00  0.00    -0.033 A 
ATOM     31  C   UNL     1      -1.087  -2.591   0.234  0.00  0.00    +0.005 A 
ATOM     32  C   UNL     1      -1.474  -1.296  -0.052  0.00  0.00    +0.003 A 
ENDBRANCH  25  30
ENDBRANCH   1  25
TORSDOF 6
