REMARK  Name = ZINC05940153
REMARK  11 active torsions:
REMARK  status: ('A' for Active; 'I' for Inactive)
REMARK    1  A    between atoms: C_1  and  C_2
REMARK    2  A    between atoms: C_2  and  C_3
REMARK    3  A    between atoms: C_3  and  N_11
REMARK    4  A    between atoms: N_11  and  N_12
REMARK    5  A    between atoms: N_12  and  C_13
REMARK    6  A    between atoms: C_16  and  S_22
REMARK    7  A    between atoms: C_18  and  N_19
REMARK    8  A    between atoms: S_22  and  N_25
REMARK    9  A    between atoms: N_25  and  C_26
REMARK   10  A    between atoms: C_31  and  O_32
REMARK   11  A    between atoms: O_32  and  C_33
REMARK                            x       y       z     vdW  Elec       q    Type
REMARK                         _______ _______ _______ _____ _____    ______ ____
ROOT
ATOM      1  C   UNL     1       0.551  -1.826  -5.227  0.00  0.00    +0.075 A 
ATOM      2  C   UNL     1      -0.712  -1.284  -5.022  0.00  0.00    +0.028 A 
ATOM      3  C   UNL     1      -1.592  -1.168  -6.080  0.00  0.00    +0.031 A 
ATOM      4  C   UNL     1      -1.217  -1.590  -7.343  0.00  0.00    +0.111 A 
ATOM      5  C   UNL     1       0.039  -2.130  -7.550  0.00  0.00    +0.063 A 
ATOM      6  C   UNL     1       0.926  -2.243  -6.497  0.00  0.00    +0.150 A 
ENDROOT
BRANCH   6   7
ATOM      7  N   UNL     1       2.273  -2.815  -6.721  0.00  0.00    +0.058 N 
ATOM      8  O   UNL     1       2.638  -3.082  -7.843  0.00  0.00    -0.126 OA
ATOM      9  O   UNL     1       3.009  -3.015  -5.783  0.00  0.00    -0.126 OA
ENDBRANCH   6   7
BRANCH   4  10
ATOM     10  S   UNL     1      -2.343  -1.441  -8.690  0.00  0.00    +0.073 S 
ATOM     11  O   UNL     1      -1.952  -2.409  -9.654  0.00  0.00    -0.150 OA
ATOM     12  O   UNL     1      -3.647  -1.409  -8.127  0.00  0.00    -0.150 OA
BRANCH  10  13
ATOM     13  N   UNL     1      -2.088   0.043  -9.379  0.00  0.00    -0.213 N 
ATOM     14  H   UNL     1      -2.808   0.693  -9.410  0.00  0.00    +0.174 HD
BRANCH  13  15
ATOM     15  C   UNL     1      -0.835   0.360  -9.916  0.00  0.00    +0.090 A 
ATOM     16  C   UNL     1      -0.082  -0.619 -10.548  0.00  0.00    +0.028 A 
ATOM     17  C   UNL     1       1.155  -0.304 -11.079  0.00  0.00    +0.002 A 
ATOM     18  C   UNL     1       1.645   0.986 -10.980  0.00  0.00    +0.004 A 
ATOM     19  C   UNL     1       0.900   1.966 -10.351  0.00  0.00    +0.047 A 
ATOM     20  C   UNL     1      -0.343   1.660  -9.822  0.00  0.00    +0.142 A 
BRANCH  20  21
ATOM     21  O   UNL     1      -1.079   2.624  -9.208  0.00  0.00    -0.493 OA
ATOM     22  C   UNL     1      -0.511   3.934  -9.149  0.00  0.00    +0.277 C 
ENDBRANCH  20  21
ENDBRANCH  13  15
ENDBRANCH  10  13
ENDBRANCH   4  10
BRANCH   1  23
ATOM     23  N   UNL     1       1.443  -1.945  -4.159  0.00  0.00    -0.265 N 
ATOM     24  H   UNL     1       2.293  -2.394  -4.285  0.00  0.00    +0.170 HD
BRANCH  23  25
ATOM     25  N   UNL     1       1.110  -1.415  -2.905  0.00  0.00    -0.270 N 
ATOM     26  H   UNL     1       0.231  -1.032  -2.759  0.00  0.00    +0.170 HD
BRANCH  25  27
ATOM     27  C   UNL     1       2.006  -1.438  -1.908  0.00  0.00    +0.029 C 
ATOM     28  C   UNL     1       1.639  -1.008  -0.627  0.00  0.00    -0.007 C 
ATOM     29  C   UNL     1       2.544  -1.139   0.449  0.00  0.00    +0.013 C 
ATOM     30  C   UNL     1       2.186  -0.721   1.689  0.00  0.00    +0.051 C 
ATOM     31  C   UNL     1       0.913  -0.159   1.904  0.00  0.00    +0.179 C 
ATOM     32  O   UNL     1       0.592   0.217   3.024  0.00  0.00    -0.288 OA
ATOM     33  C   UNL     1       0.009  -0.027   0.833  0.00  0.00    +0.051 C 
ATOM     34  C   UNL     1       0.365  -0.438  -0.411  0.00  0.00    +0.013 C 
BRANCH  27  36
ATOM     35  C   UNL     1       3.448  -3.451  -2.040  0.00  0.00    +0.010 C 
ATOM     36  C   UNL     1       3.408  -1.927  -2.166  0.00  0.00    +0.049 C 
ENDBRANCH  27  36
ENDBRANCH  25  27
ENDBRANCH  23  25
ENDBRANCH   1  23
TORSDOF 9
