REMARK  Name = ZINC39639485
REMARK  6 active torsions:
REMARK  status: ('A' for Active; 'I' for Inactive)
REMARK    1  A    between atoms: C_3  and  C_9
REMARK    2  A    between atoms: C_9  and  N_10
REMARK    3  A    between atoms: C_11  and  C_13
REMARK    4  A    between atoms: C_24  and  C_26
REMARK    5  A    between atoms: C_26  and  C_27
REMARK    6  A    between atoms: C_27  and  C_28
REMARK                            x       y       z     vdW  Elec       q    Type
REMARK                         _______ _______ _______ _____ _____    ______ ____
ROOT
ATOM      1  C   UNL     1       6.092   2.683   2.902  0.00  0.00    +0.100 C 
ATOM      2  C   UNL     1       5.242   3.467   3.926  0.00  0.00    +0.121 C 
ATOM      3  N   UNL     1       6.234   4.112   4.820  0.00  0.00    -0.300 N 
ATOM      4  C   UNL     1       7.323   4.543   3.911  0.00  0.00    +0.115 C 
ATOM      5  C   UNL     1       7.457   3.393   2.894  0.00  0.00    -0.004 C 
ATOM      6  C   UNL     1       7.755   3.949   1.505  0.00  0.00    -0.010 C 
ATOM      7  C   UNL     1       9.141   4.599   1.507  0.00  0.00    -0.082 C 
ATOM      8  N   UNL     1      10.150   3.602   1.884  0.00  0.00    +0.379 N 
ATOM      9  C   UNL     1       9.910   3.140   3.257  0.00  0.00    -0.082 C 
ATOM     10  C   UNL     1       8.556   2.429   3.328  0.00  0.00    -0.010 C 
ATOM     11  C   UNL     1       6.162   4.269   6.156  0.00  0.00    +0.216 C 
ATOM     12  O   UNL     1       7.062   4.823   6.751  0.00  0.00    -0.276 OA
ATOM     13  H   UNL     1      10.098   2.817   1.253  0.00  0.00    -0.086 HD
ATOM     14  H   UNL     1      11.069   4.016   1.826  0.00  0.00    -0.086 HD
ENDROOT
BRANCH   1  16
ATOM     15  N   UNL     1       5.646   1.742   0.658  0.00  0.00    -0.311 N 
ATOM     16  C   UNL     1       5.459   2.748   1.536  0.00  0.00    +0.218 C 
ATOM     17  O   UNL     1       4.781   3.704   1.227  0.00  0.00    -0.275 OA
ATOM     18  H   UNL     1       6.189   0.977   0.905  0.00  0.00    +0.149 HD
BRANCH  15  19
ATOM     19  C   UNL     1       5.031   1.806  -0.670  0.00  0.00    +0.142 C 
BRANCH  19  22
ATOM     20  C   UNL     1       4.785  -1.563  -2.356  0.00  0.00    +0.016 A 
ATOM     21  C   UNL     1       4.454  -0.428  -1.640  0.00  0.00    +0.009 A 
ATOM     22  C   UNL     1       5.392   0.568  -1.451  0.00  0.00    +0.005 A 
ATOM     23  C   UNL     1       6.665   0.430  -1.980  0.00  0.00    +0.129 A 
ATOM     24  C   UNL     1       6.996  -0.707  -2.697  0.00  0.00    +0.054 A 
ATOM     25  C   UNL     1       6.055  -1.703  -2.885  0.00  0.00    +0.021 A 
ATOM     26 BR   UNL     1       6.506  -3.256  -3.864  0.00  0.00    -0.050 Br
ATOM     27  F   UNL     1       7.582   1.405  -1.796  0.00  0.00    -0.205 F 
ENDBRANCH  19  22
ENDBRANCH  15  19
ENDBRANCH   1  16
BRANCH  11  28
ATOM     28  C   UNL     1       4.963   3.757   6.912  0.00  0.00    +0.096 C 
BRANCH  28  29
ATOM     29  C   UNL     1       5.131   4.061   8.402  0.00  0.00    +0.013 C 
BRANCH  29  30
ATOM     30  C   UNL     1       3.914   3.541   9.169  0.00  0.00    -0.011 C 
ATOM     31  C   UNL     1       2.662   4.362   8.794  0.00  0.00    +0.003 C 
ATOM     32  C   UNL     1       1.872   4.477  10.121  0.00  0.00    +0.000 C 
ATOM     33  C   UNL     1       2.994   4.656  11.173  0.00  0.00    +0.000 C 
ATOM     34  C   UNL     1       4.125   3.728  10.682  0.00  0.00    +0.003 C 
ENDBRANCH  29  30
ENDBRANCH  28  29
ENDBRANCH  11  28
TORSDOF 6
