REMARK  Name = ZINC48755142
REMARK  4 active torsions:
REMARK  status: ('A' for Active; 'I' for Inactive)
REMARK    1  A    between atoms: C_1  and  C_2
REMARK    2  A    between atoms: C_7  and  N_10
REMARK    3  A    between atoms: N_13  and  C_14
REMARK    4  A    between atoms: C_14  and  C_15
REMARK                            x       y       z     vdW  Elec       q    Type
REMARK                         _______ _______ _______ _____ _____    ______ ____
ROOT
ATOM      1  N   UNL     1       1.471  -2.526   2.420  0.00  0.00    -0.297 N 
ATOM      2  C   UNL     1       1.207  -3.754   2.907  0.00  0.00    +0.300 C 
ATOM      3  O   UNL     1       0.380  -4.460   2.362  0.00  0.00    -0.253 OA
ATOM      4  N   UNL     1       1.859  -4.201   3.999  0.00  0.00    -0.299 N 
ATOM      5  H   UNL     1       2.131  -1.963   2.855  0.00  0.00    +0.151 HD
ATOM      6  H   UNL     1       2.518  -3.638   4.434  0.00  0.00    +0.150 HD
ENDROOT
BRANCH   1  12
ATOM      7  C   UNL     1      -0.019   1.526   0.010  0.00  0.00    +0.007 C 
ATOM      8  C   UNL     1       0.002  -0.004   0.002  0.00  0.00    -0.012 C 
ATOM      9  C   UNL     1       0.718  -0.497  -1.257  0.00  0.00    +0.003 C 
ATOM     10  C   UNL     1       0.739  -2.027  -1.265  0.00  0.00    +0.002 C 
ATOM     11  C   UNL     1       1.479  -2.534  -0.026  0.00  0.00    +0.022 C 
ATOM     12  C   UNL     1       0.763  -2.041   1.233  0.00  0.00    +0.075 C 
ATOM     13  C   UNL     1       0.742  -0.511   1.242  0.00  0.00    +0.025 C 
ENDBRANCH   1  12
BRANCH   4  14
ATOM     14  C   UNL     1       1.571  -5.536   4.529  0.00  0.00    +0.111 C 
BRANCH  14  15
ATOM     15  C   UNL     1       2.440  -5.794   5.762  0.00  0.00    +0.029 C 
ATOM     16  C   UNL     1       3.920  -5.866   5.348  0.00  0.00    +0.029 C 
ATOM     17  C   UNL     1       4.765  -6.437   6.512  0.00  0.00    +0.166 C 
ATOM     18  S   UNL     1       3.559  -7.501   7.404  0.00  0.00    -0.031 S 
ATOM     19  O   UNL     1       3.926  -8.863   7.229  0.00  0.00    -0.174 OA
ATOM     20  O   UNL     1       3.373  -6.990   8.716  0.00  0.00    -0.174 OA
ATOM     21  C   UNL     1       2.050  -7.155   6.404  0.00  0.00    +0.171 C 
ENDBRANCH  14  15
ENDBRANCH   4  14
TORSDOF 3
