REMARK  Name = ZINC29500327
REMARK  10 active torsions:
REMARK  status: ('A' for Active; 'I' for Inactive)
REMARK    1  A    between atoms: C_1  and  C_2
REMARK    2  A    between atoms: C_2  and  C_3
REMARK    3  A    between atoms: C_2  and  C_4
REMARK    4  A    between atoms: C_2  and  N_5
REMARK    5  A    between atoms: C_6  and  S_8
REMARK    6  A    between atoms: S_8  and  C_9
REMARK    7  A    between atoms: C_9  and  C_10
REMARK    8  A    between atoms: N_12  and  C_13
REMARK    9  A    between atoms: N_12  and  C_14
REMARK   10  A    between atoms: C_14  and  C_20
REMARK                            x       y       z     vdW  Elec       q    Type
REMARK                         _______ _______ _______ _____ _____    ______ ____
ROOT
ATOM      1  C   UNL     1       3.882   1.354   1.351  0.00  0.00    +0.173 C 
ENDROOT
BRANCH   1   2
ATOM      2  C   UNL     1       2.716   0.402   1.267  0.00  0.00    +0.227 C 
ATOM      3  O   UNL     1       2.551  -0.431   2.132  0.00  0.00    -0.275 OA
ATOM      4  N   UNL     1       1.858   0.478   0.231  0.00  0.00    -0.285 N 
ATOM      5  C   UNL     1       2.058   1.486  -0.814  0.00  0.00    +0.133 C 
BRANCH   4   6
ATOM      6  C   UNL     1       0.724  -0.446   0.150  0.00  0.00    +0.123 C 
ATOM      7  C   UNL     1      -0.166  -0.271   1.382  0.00  0.00    +0.041 C 
ATOM      8  C   UNL     1      -1.350  -1.237   1.297  0.00  0.00    +0.003 C 
ATOM      9  C   UNL     1      -2.161  -0.939   0.035  0.00  0.00    +0.000 C 
ATOM     10  C   UNL     1      -1.271  -1.114  -1.197  0.00  0.00    +0.003 C 
ATOM     11  C   UNL     1      -0.087  -0.149  -1.112  0.00  0.00    +0.041 C 
BRANCH   6  12
ATOM     12  C   UNL     1       1.223  -1.830   0.098  0.00  0.00    +0.089 C 
ATOM     13  N   UNL     1       1.608  -2.898   0.058  0.00  0.00    -0.194 NA
ENDBRANCH   6  12
ENDBRANCH   4   6
ENDBRANCH   1   2
BRANCH   1  14
ATOM     14  S   UNL     1       4.843   1.002   2.844  0.00  0.00    -0.084 S 
BRANCH  14  16
ATOM     15  N   UNL     1       6.104   3.036   1.673  0.00  0.00    -0.363 N 
ATOM     16  C   UNL     1       6.104   2.223   2.692  0.00  0.00    +0.126 C 
ATOM     17  N   UNL     1       7.087   2.319   3.649  0.00  0.00    -0.339 N 
ATOM     18  H   UNL     1       7.087   1.633   4.509  0.00  0.00    +0.144 HD
ATOM     19  H   UNL     1       7.874   3.082   3.554  0.00  0.00    +0.144 HD
ATOM     20  H   UNL     1       5.270   3.020   0.956  0.00  0.00    +0.162 HD
BRANCH  15  22
ATOM     21  C   UNL     1       8.504   3.186   1.228  0.00  0.00    +0.033 C 
ATOM     22  C   UNL     1       7.216   3.971   1.482  0.00  0.00    +0.032 C 
ATOM     23  C   UNL     1       6.924   4.873   0.281  0.00  0.00    +0.033 C 
ATOM     24  C   UNL     1       7.381   4.830   2.737  0.00  0.00    +0.033 C 
ENDBRANCH  15  22
ENDBRANCH  14  16
ENDBRANCH   1  14
TORSDOF 6
