REMARK  Name = ZINC63803956
REMARK  9 active torsions:
REMARK  status: ('A' for Active; 'I' for Inactive)
REMARK    1  A    between atoms: C_1  and  N_2
REMARK    2  A    between atoms: N_2  and  C_3
REMARK    3  A    between atoms: N_2  and  C_4
REMARK    4  A    between atoms: C_4  and  C_5
REMARK    5  A    between atoms: C_4  and  C_20
REMARK    6  A    between atoms: C_5  and  N_6
REMARK    7  A    between atoms: C_7  and  C_9
REMARK    8  A    between atoms: C_13  and  N_16
REMARK    9  A    between atoms: C_14  and  N_15
REMARK                            x       y       z     vdW  Elec       q    Type
REMARK                         _______ _______ _______ _____ _____    ______ ____
ROOT
ATOM      1  N   UNL     1      -0.070  -2.681   1.401  0.00  0.00    -0.313 N 
ATOM      2  C   UNL     1      -0.223  -3.977   1.740  0.00  0.00    +0.246 C 
ATOM      3  O   UNL     1      -0.760  -4.748   0.968  0.00  0.00    -0.270 OA
ATOM      4  H   UNL     1       0.358  -2.066   2.016  0.00  0.00    +0.149 HD
ENDROOT
BRANCH   2   5
ATOM      5  C   UNL     1       0.260  -4.458   3.047  0.00  0.00    +0.062 A 
ATOM      6  C   UNL     1       0.815  -3.562   3.965  0.00  0.00    +0.053 A 
ATOM      7  C   UNL     1       1.265  -4.019   5.186  0.00  0.00    +0.126 A 
ATOM      8  C   UNL     1       1.171  -5.366   5.507  0.00  0.00    +0.073 A 
ATOM      9  C   UNL     1       0.626  -6.262   4.610  0.00  0.00    +0.150 A 
ATOM     10  C   UNL     1       0.161  -5.818   3.378  0.00  0.00    +0.068 A 
ATOM     11  F   UNL     1       1.801  -3.152   6.073  0.00  0.00    -0.205 F 
BRANCH  10  12
ATOM     12  N   UNL     1      -0.394  -6.718   2.476  0.00  0.00    -0.356 N 
ATOM     13  H   UNL     1      -0.025  -7.611   2.393  0.00  0.00    +0.142 HD
ATOM     14  H   UNL     1      -1.150  -6.453   1.930  0.00  0.00    +0.142 HD
ENDBRANCH  10  12
BRANCH   9  15
ATOM     15  N   UNL     1       0.532  -7.696   4.963  0.00  0.00    +0.058 N 
ATOM     16  O   UNL     1       0.908  -8.078   6.046  0.00  0.00    -0.126 OA
ATOM     17  O   UNL     1       0.078  -8.486   4.167  0.00  0.00    -0.126 OA
ENDBRANCH   9  15
ENDBRANCH   2   5
BRANCH   1  18
ATOM     18  C   UNL     1      -0.551  -2.203   0.102  0.00  0.00    +0.089 C 
BRANCH  18  19
ATOM     19  C   UNL     1      -0.099  -0.756  -0.107  0.00  0.00    -0.049 C 
BRANCH  19  20
ATOM     20  C   UNL     1      -0.805  -0.174  -1.333  0.00  0.00    -0.023 C 
ATOM     21  C   UNL     1      -0.272   1.234  -1.609  0.00  0.00    +0.002 C 
ATOM     22  C   UNL     1      -0.978   1.816  -2.835  0.00  0.00    +0.000 C 
ATOM     23  C   UNL     1      -2.483   1.884  -2.572  0.00  0.00    +0.000 C 
ATOM     24  C   UNL     1      -3.017   0.477  -2.296  0.00  0.00    +0.000 C 
ATOM     25  C   UNL     1      -2.311  -0.105  -1.070  0.00  0.00    +0.002 C 
ENDBRANCH  19  20
BRANCH  19  27
ATOM     26  C   UNL     1       2.032  -1.285   0.858  0.00  0.00    -0.096 C 
ATOM     27  N   UNL     1       1.354  -0.722  -0.317  0.00  0.00    +0.379 N 
ATOM     28  C   UNL     1       1.696  -1.514  -1.506  0.00  0.00    -0.096 C 
ATOM     29  H   UNL     1       1.652   0.233  -0.452  0.00  0.00    -0.082 HD
ENDBRANCH  19  27
ENDBRANCH  18  19
ENDBRANCH   1  18
TORSDOF 7
