REMARK  Name = ZINC20125150
REMARK  11 active torsions:
REMARK  status: ('A' for Active; 'I' for Inactive)
REMARK    1  A    between atoms: C_1  and  C_2
REMARK    2  A    between atoms: C_2  and  C_3
REMARK    3  A    between atoms: C_2  and  C_4
REMARK    4  A    between atoms: N_6  and  C_7
REMARK    5  A    between atoms: C_7  and  C_8
REMARK    6  A    between atoms: C_8  and  N_9
REMARK    7  A    between atoms: N_9  and  C_10
REMARK    8  A    between atoms: C_16  and  C_18
REMARK    9  A    between atoms: C_18  and  C_19
REMARK   10  A    between atoms: C_18  and  C_20
REMARK   11  A    between atoms: C_18  and  C_21
REMARK                            x       y       z     vdW  Elec       q    Type
REMARK                         _______ _______ _______ _____ _____    ______ ____
ROOT
ATOM      1  N   UNL     1      -0.117   0.843  -0.060  0.00  0.00    +0.382 N 
ATOM      2  H   UNL     1      -0.138  -0.257  -0.084  0.00  0.00    -0.085 HD
ATOM      3  H   UNL     1      -0.548   1.197   0.888  0.00  0.00    -0.085 HD
ENDROOT
BRANCH   1   4
ATOM      4  C   UNL     1      -0.934   1.354  -1.169  0.00  0.00    -0.068 C 
ATOM      5  C   UNL     1      -0.790   0.427  -2.378  0.00  0.00    -0.015 C 
ATOM      6  C   UNL     1      -1.641   0.960  -3.532  0.00  0.00    -0.002 C 
ATOM      7  C   UNL     1      -3.108   1.012  -3.103  0.00  0.00    +0.000 C 
ATOM      8  C   UNL     1      -3.253   1.938  -1.893  0.00  0.00    +0.002 C 
ATOM      9  C   UNL     1      -2.402   1.406  -0.739  0.00  0.00    -0.020 C 
BRANCH   9  10
ATOM     10  C   UNL     1      -2.546   2.332   0.470  0.00  0.00    -0.036 C 
ATOM     11  C   UNL     1      -1.925   3.693   0.148  0.00  0.00    +0.011 C 
ATOM     12  C   UNL     1      -4.029   2.514   0.799  0.00  0.00    +0.011 C 
ATOM     13  C   UNL     1      -1.829   1.716   1.673  0.00  0.00    +0.011 C 
ENDBRANCH   9  10
ENDBRANCH   1   4
BRANCH   1  14
ATOM     14  C   UNL     1       1.272   1.309  -0.171  0.00  0.00    -0.063 C 
BRANCH  14  15
ATOM     15  C   UNL     1       2.090   0.757   0.998  0.00  0.00    +0.085 C 
BRANCH  15  18
ATOM     16  C   UNL     1       4.384   0.859   1.814  0.00  0.00    +0.216 C 
ATOM     17  O   UNL     1       4.055   0.147   2.739  0.00  0.00    -0.276 OA
ATOM     18  N   UNL     1       3.475   1.222   0.887  0.00  0.00    -0.317 N 
ATOM     19  H   UNL     1       3.773   1.867   0.048  0.00  0.00    +0.149 HD
BRANCH  16  21
ATOM     20  C   UNL     1       6.627   0.785   2.869  0.00  0.00    +0.017 C 
ATOM     21  C   UNL     1       5.808   1.337   1.700  0.00  0.00    +0.069 C 
ATOM     22  C   UNL     1       6.407   0.844   0.381  0.00  0.00    +0.017 C 
ENDBRANCH  16  21
ENDBRANCH  15  18
ENDBRANCH  14  15
ENDBRANCH   1  14
TORSDOF 6
