REMARK  Name = ZINC42026664
REMARK  5 active torsions:
REMARK  status: ('A' for Active; 'I' for Inactive)
REMARK    1  A    between atoms: C_1  and  C_2
REMARK    2  A    between atoms: C_5  and  C_9
REMARK    3  A    between atoms: C_7  and  N_8
REMARK    4  A    between atoms: N_13  and  C_14
REMARK    5  A    between atoms: C_19  and  C_20
REMARK                            x       y       z     vdW  Elec       q    Type
REMARK                         _______ _______ _______ _____ _____    ______ ____
ROOT
ATOM      1  C   UNL     1      -0.545  -3.842  -0.209  0.00  0.00    +0.187 A 
ATOM      2  N   UNL     1      -0.766  -4.503   0.909  0.00  0.00    -0.108 NA
ATOM      3  N   UNL     1      -0.442  -5.738   0.774  0.00  0.00    -0.022 NA
ATOM      4  N   UNL     1       0.001  -5.963  -0.415  0.00  0.00    -0.039 NA
ATOM      5  N   UNL     1      -0.052  -4.741  -1.109  0.00  0.00    -0.192 N 
ENDROOT
BRANCH   5   6
ATOM      6  C   UNL     1       0.324  -4.498  -2.437  0.00  0.00    +0.075 A 
ATOM      7  C   UNL     1       1.300  -3.553  -2.722  0.00  0.00    +0.066 A 
ATOM      8  C   UNL     1       1.669  -3.316  -4.034  0.00  0.00    +0.125 A 
ATOM      9  C   UNL     1       1.064  -4.021  -5.062  0.00  0.00    +0.039 A 
ATOM     10  C   UNL     1       0.092  -4.962  -4.779  0.00  0.00    +0.008 A 
ATOM     11  C   UNL     1      -0.275  -5.207  -3.470  0.00  0.00    -0.025 A 
ATOM     12  C   UNL     1      -1.330  -6.238  -3.163  0.00  0.00    +0.046 C 
ATOM     13  F   UNL     1       2.618  -2.396  -4.313  0.00  0.00    -0.205 F 
ENDBRANCH   5   6
BRANCH   1  18
ATOM     14  C   UNL     1      -1.507   1.760  -1.145  0.00  0.00    +0.045 C 
ATOM     15  C   UNL     1      -1.255   0.294  -0.899  0.00  0.00    -0.030 A 
ATOM     16  C   UNL     1      -1.136  -0.574  -1.968  0.00  0.00    +0.006 A 
ATOM     17  C   UNL     1      -0.905  -1.917  -1.749  0.00  0.00    +0.012 A 
ATOM     18  C   UNL     1      -0.792  -2.403  -0.446  0.00  0.00    +0.023 A 
ATOM     19  C   UNL     1      -0.912  -1.528   0.633  0.00  0.00    +0.034 A 
ATOM     20  C   UNL     1      -1.139  -0.179   0.403  0.00  0.00    +0.028 A 
BRANCH  20  21
ATOM     21  N   UNL     1      -1.254   0.704   1.480  0.00  0.00    -0.358 N 
ATOM     22  H   UNL     1      -1.416   1.646   1.319  0.00  0.00    +0.142 HD
ATOM     23  H   UNL     1      -1.172   0.373   2.388  0.00  0.00    +0.142 HD
ENDBRANCH  20  21
ENDBRANCH   1  18
TORSDOF 3
