REMARK  Name = ZINC43283293
REMARK  8 active torsions:
REMARK  status: ('A' for Active; 'I' for Inactive)
REMARK    1  A    between atoms: C_1  and  C_2
REMARK    2  A    between atoms: C_2  and  C_3
REMARK    3  A    between atoms: C_3  and  C_5
REMARK    4  A    between atoms: C_3  and  N_20
REMARK    5  A    between atoms: C_5  and  C_7
REMARK    6  A    between atoms: C_5  and  S_13
REMARK    7  A    between atoms: S_13  and  C_14
REMARK    8  A    between atoms: N_18  and  C_19
REMARK                            x       y       z     vdW  Elec       q    Type
REMARK                         _______ _______ _______ _____ _____    ______ ____
ROOT
ATOM      1  C   UNL     1       0.700  -1.812  -1.383  0.00  0.00    +0.077 C 
ENDROOT
BRANCH   1   2
ATOM      2  C   UNL     1      -0.741  -2.252  -1.375  0.00  0.00    +0.003 A 
ATOM      3  C   UNL     1      -1.390  -3.033  -0.477  0.00  0.00    +0.013 A 
ATOM      4  C   UNL     1      -2.730  -3.308  -0.673  0.00  0.00    +0.023 A 
ATOM      5  C   UNL     1      -3.356  -2.788  -1.758  0.00  0.00    +0.055 A 
ATOM      6  S   UNL     1      -2.039  -1.871  -2.540  0.00  0.00    -0.085 S 
ATOM      7 BR   UNL     1      -5.159  -2.978  -2.298  0.00  0.00    -0.043 Br
ENDBRANCH   1   2
BRANCH   1   8
ATOM      8  C   UNL     1       0.769  -0.285  -1.328  0.00  0.00    -0.057 C 
BRANCH   8   9
ATOM      9  N   UNL     1      -0.002   0.198  -0.175  0.00  0.00    +0.381 N 
ATOM     10  H   UNL     1      -0.956  -0.122  -0.250  0.00  0.00    -0.090 HD
ATOM     11  H   UNL     1       0.406  -0.159   0.676  0.00  0.00    -0.090 HD
ATOM     12  H   UNL     1       0.014   1.207  -0.158  0.00  0.00    -0.090 HD
ENDBRANCH   8   9
BRANCH   8  14
ATOM     13  C   UNL     1       0.362   1.818  -2.615  0.00  0.00    +0.002 C 
ATOM     14  C   UNL     1       0.181   0.299  -2.615  0.00  0.00    -0.018 C 
ENDBRANCH   8  14
ENDBRANCH   1   8
BRANCH   1  15
ATOM     15  S   UNL     1       1.502  -2.399  -2.901  0.00  0.00    -0.078 S 
BRANCH  15  16
ATOM     16  C   UNL     1       3.201  -1.993  -2.670  0.00  0.00    +0.210 A 
ATOM     17  N   UNL     1       3.716  -1.335  -1.655  0.00  0.00    -0.102 NA
ATOM     18  N   UNL     1       4.987  -1.210  -1.797  0.00  0.00    -0.022 NA
ATOM     19  N   UNL     1       5.371  -1.769  -2.893  0.00  0.00    -0.043 NA
ATOM     20  N   UNL     1       4.223  -2.306  -3.501  0.00  0.00    -0.223 N 
ATOM     21  C   UNL     1       4.148  -3.044  -4.765  0.00  0.00    +0.177 C 
ENDBRANCH  15  16
ENDBRANCH   1  15
TORSDOF 6
