REMARK  Name = ZINC41583235
REMARK  3 active torsions:
REMARK  status: ('A' for Active; 'I' for Inactive)
REMARK    1  A    between atoms: C_3  and  C_6
REMARK    2  A    between atoms: C_14  and  N_18
REMARK    3  A    between atoms: C_15  and  C_16
REMARK                            x       y       z     vdW  Elec       q    Type
REMARK                         _______ _______ _______ _____ _____    ______ ____
ROOT
ATOM      1  C   UNL     1       3.561   0.619  -0.029  0.00  0.00    +0.282 C 
ATOM      2  O   UNL     1       4.194   1.657  -0.090  0.00  0.00    -0.267 OA
ATOM      3  N   UNL     1       4.207  -0.560   0.060  0.00  0.00    -0.290 N 
ATOM      4  C   UNL     1       5.673  -0.620   0.164  0.00  0.00    +0.113 C 
ATOM      5  C   UNL     1       6.068  -1.215   1.517  0.00  0.00    +0.056 C 
ATOM      6  C   UNL     1       5.249  -2.472   1.767  0.00  0.00    -0.015 A 
ATOM      7  C   UNL     1       4.099  -2.712   1.101  0.00  0.00    +0.013 A 
ATOM      8  S   UNL     1       3.527  -4.263   1.730  0.00  0.00    -0.076 S 
ATOM      9  C   UNL     1       4.753  -4.595   2.829  0.00  0.00    +0.081 A 
ATOM     10  C   UNL     1       5.610  -3.511   2.718  0.00  0.00    +0.083 A 
ATOM     11  C   UNL     1       3.469  -1.839   0.064  0.00  0.00    +0.150 C 
ENDROOT
BRANCH   1  14
ATOM     12  C   UNL     1      -0.018   1.339  -0.055  0.00  0.00    +0.042 A 
ATOM     13  C   UNL     1       1.316   1.773  -0.010  0.00  0.00    +0.054 A 
ATOM     14  C   UNL     1       2.095   0.652  -0.053  0.00  0.00    +0.189 A 
ATOM     15  O   UNL     1       1.279  -0.421  -0.122  0.00  0.00    -0.458 OA
ATOM     16  C   UNL     1       0.004  -0.010  -0.123  0.00  0.00    +0.196 A 
ENDBRANCH   1  14
BRANCH   9  17
ATOM     17  N   UNL     1       4.878  -5.698   3.655  0.00  0.00    -0.352 N 
ATOM     18  H   UNL     1       4.205  -6.396   3.639  0.00  0.00    +0.143 HD
ATOM     19  H   UNL     1       5.640  -5.773   4.251  0.00  0.00    +0.143 HD
ENDBRANCH   9  17
BRANCH  10  20
ATOM     20  C   UNL     1       6.801  -3.418   3.507  0.00  0.00    +0.102 C 
ATOM     21  N   UNL     1       7.746  -3.345   4.133  0.00  0.00    -0.191 NA
ENDBRANCH  10  20
TORSDOF 3
