REMARK  Name = ZINC05462312
REMARK  5 active torsions:
REMARK  status: ('A' for Active; 'I' for Inactive)
REMARK    1  A    between atoms: C_1  and  C_2
REMARK    2  A    between atoms: C_2  and  C_22
REMARK    3  A    between atoms: C_5  and  C_8
REMARK    4  A    between atoms: C_13  and  O_21
REMARK    5  A    between atoms: C_16  and  O_20
REMARK                            x       y       z     vdW  Elec       q    Type
REMARK                         _______ _______ _______ _____ _____    ______ ____
ROOT
ATOM      1  C   UNL     1       1.512  -1.723   0.778  0.00  0.00    +0.032 C 
ATOM      2  C   UNL     1       2.032  -2.827   0.225  0.00  0.00    +0.061 C 
ATOM      3  C   UNL     1       2.201  -4.061   1.013  0.00  0.00    +0.191 C 
ATOM      4  O   UNL     1       2.679  -5.054   0.497  0.00  0.00    -0.287 OA
ATOM      5  C   UNL     1       1.785  -4.090   2.425  0.00  0.00    +0.077 A 
ATOM      6  C   UNL     1       1.929  -5.246   3.192  0.00  0.00    +0.129 A 
ATOM      7  C   UNL     1       1.525  -5.247   4.531  0.00  0.00    +0.050 A 
ATOM      8  C   UNL     1       0.987  -4.116   5.097  0.00  0.00    +0.050 A 
ATOM      9  C   UNL     1       0.834  -2.948   4.344  0.00  0.00    +0.129 A 
ATOM     10  C   UNL     1       1.232  -2.930   3.006  0.00  0.00    +0.078 A 
ATOM     11  C   UNL     1       1.084  -1.713   2.189  0.00  0.00    +0.196 C 
ATOM     12  O   UNL     1       0.610  -0.705   2.676  0.00  0.00    -0.287 OA
ENDROOT
BRANCH   1  17
ATOM     13  C   UNL     1      -0.745   1.944  -1.233  0.00  0.00    +0.041 C 
ATOM     14  C   UNL     1      -0.017   1.428   0.010  0.00  0.00    +0.065 C 
ATOM     15  C   UNL     1       1.448   1.915  -0.002  0.00  0.00    +0.037 C 
ATOM     16  C   UNL     1       2.211   0.674   0.537  0.00  0.00    +0.039 C 
ATOM     17  C   UNL     1       1.358  -0.476  -0.054  0.00  0.00    +0.153 C 
ATOM     18  O   UNL     1       0.002  -0.004   0.002  0.00  0.00    -0.366 OA
ATOM     19  C   UNL     1      -0.721   1.931   1.272  0.00  0.00    +0.041 C 
ENDBRANCH   1  17
BRANCH   9  20
ATOM     20  O   UNL     1       0.302  -1.838   4.910  0.00  0.00    -0.506 OA
ATOM     21  H   UNL     1      -0.659  -1.778   4.830  0.00  0.00    +0.292 HD
ENDBRANCH   9  20
BRANCH   6  22
ATOM     22  O   UNL     1       2.458  -6.366   2.642  0.00  0.00    -0.506 OA
ATOM     23  H   UNL     1       3.420  -6.428   2.726  0.00  0.00    +0.292 HD
ENDBRANCH   6  22
TORSDOF 3
