REMARK  Name = ZINC55332757
REMARK  5 active torsions:
REMARK  status: ('A' for Active; 'I' for Inactive)
REMARK    1  A    between atoms: C_1  and  C_2
REMARK    2  A    between atoms: C_5  and  C_8
REMARK    3  A    between atoms: C_9  and  C_15
REMARK    4  A    between atoms: N_11  and  C_14
REMARK    5  A    between atoms: C_12  and  N_13
REMARK                            x       y       z     vdW  Elec       q    Type
REMARK                         _______ _______ _______ _____ _____    ______ ____
ROOT
ATOM      1  C   UNL     1       0.182  -4.298   0.272  0.00  0.00    +0.042 A 
ATOM      2  C   UNL     1      -0.957  -5.107   0.454  0.00  0.00    +0.047 A 
ATOM      3  N   UNL     1      -0.687  -6.302   0.003  0.00  0.00    -0.299 N 
ATOM      4  N   UNL     1       0.625  -6.319  -0.485  0.00  0.00    -0.276 N 
ATOM      5  C   UNL     1       1.153  -5.085  -0.323  0.00  0.00    +0.120 A 
ATOM      6  C   UNL     1       1.307  -7.473  -1.075  0.00  0.00    +0.172 C 
ATOM      7  H   UNL     1      -1.296  -7.056   0.005  0.00  0.00    +0.187 HD
ENDROOT
BRANCH   1  12
ATOM      8  C   UNL     1       0.694   1.254   1.712  0.00  0.00    +0.044 C 
ATOM      9  C   UNL     1       0.560  -0.199   1.335  0.00  0.00    -0.050 A 
ATOM     10  C   UNL     1       0.607  -0.573   0.004  0.00  0.00    +0.004 A 
ATOM     11  C   UNL     1       0.485  -1.902  -0.347  0.00  0.00    +0.009 A 
ATOM     12  C   UNL     1       0.314  -2.869   0.643  0.00  0.00    -0.013 A 
ATOM     13  C   UNL     1       0.268  -2.486   1.982  0.00  0.00    +0.009 A 
ATOM     14  C   UNL     1       0.395  -1.155   2.322  0.00  0.00    +0.004 A 
ENDBRANCH   1  12
BRANCH   2  15
ATOM     15  C   UNL     1      -2.263  -4.668   1.064  0.00  0.00    +0.041 C 
ATOM     16  C   UNL     1      -3.452  -5.197   0.230  0.00  0.00    +0.013 C 
ATOM     17  C   UNL     1      -4.245  -6.112   1.212  0.00  0.00    -0.010 C 
ATOM     18  C   UNL     1      -3.335  -7.363   1.401  0.00  0.00    +0.004 C 
ATOM     19  C   UNL     1      -2.134  -6.851   2.229  0.00  0.00    +0.004 C 
ATOM     20  C   UNL     1      -2.448  -5.311   2.472  0.00  0.00    -0.002 C 
ATOM     21  C   UNL     1      -4.016  -5.353   2.566  0.00  0.00    +0.007 C 
ENDBRANCH   2  15
BRANCH   5  22
ATOM     22  N   UNL     1       2.433  -4.683  -0.682  0.00  0.00    -0.343 N 
ATOM     23  H   UNL     1       2.718  -3.771  -0.520  0.00  0.00    +0.144 HD
ATOM     24  H   UNL     1       3.041  -5.315  -1.096  0.00  0.00    +0.144 HD
ENDBRANCH   5  22
TORSDOF 3
