REMARK  Name = ZINC13262769
REMARK  8 active torsions:
REMARK  status: ('A' for Active; 'I' for Inactive)
REMARK    1  A    between atoms: C_4  and  N_9
REMARK    2  A    between atoms: C_5  and  C_7
REMARK    3  A    between atoms: N_9  and  S_10
REMARK    4  A    between atoms: S_10  and  C_13
REMARK    5  A    between atoms: C_17  and  N_19
REMARK    6  A    between atoms: N_19  and  S_20
REMARK    7  A    between atoms: S_20  and  C_23
REMARK    8  A    between atoms: C_27  and  C_29
REMARK                            x       y       z     vdW  Elec       q    Type
REMARK                         _______ _______ _______ _____ _____    ______ ____
ROOT
ATOM      1  C   UNL     1      -2.590   6.425  -4.283  0.00  0.00    +0.110 A 
ATOM      2  C   UNL     1      -3.284   5.229  -4.245  0.00  0.00    +0.029 A 
ATOM      3  C   UNL     1      -3.025   4.307  -3.248  0.00  0.00    +0.004 A 
ATOM      4  C   UNL     1      -2.069   4.575  -2.288  0.00  0.00    +0.024 A 
ATOM      5  C   UNL     1      -1.373   5.777  -2.320  0.00  0.00    +0.050 A 
ATOM      6  C   UNL     1      -1.636   6.701  -3.324  0.00  0.00    +0.053 A 
ENDROOT
BRANCH   1   7
ATOM      7  S   UNL     1      -2.923   7.596  -5.556  0.00  0.00    +0.072 S 
ATOM      8  O   UNL     1      -4.243   7.335  -6.013  0.00  0.00    -0.150 OA
ATOM      9  O   UNL     1      -2.528   8.866  -5.053  0.00  0.00    -0.150 OA
BRANCH   7  10
ATOM     10  N   UNL     1      -1.908   7.250  -6.818  0.00  0.00    -0.215 N 
ATOM     11  H   UNL     1      -1.267   7.912  -7.120  0.00  0.00    +0.174 HD
BRANCH  10  15
ATOM     12  C   UNL     1      -2.108   3.534  -8.691  0.00  0.00    +0.001 A 
ATOM     13  C   UNL     1      -3.260   4.140  -8.215  0.00  0.00    +0.002 A 
ATOM     14  C   UNL     1      -3.197   5.368  -7.590  0.00  0.00    +0.025 A 
ATOM     15  C   UNL     1      -1.974   6.012  -7.442  0.00  0.00    +0.062 A 
ATOM     16  C   UNL     1      -0.805   5.401  -7.923  0.00  0.00    +0.085 A 
ATOM     17  C   UNL     1      -0.886   4.153  -8.549  0.00  0.00    +0.017 A 
BRANCH  16  18
ATOM     18  C   UNL     1       0.498   6.069  -7.768  0.00  0.00    +0.388 C 
ATOM     19  O   UNL     1       0.565   7.153  -7.222  0.00  0.00    -0.241 OA
ATOM     20  O   UNL     1       1.618   5.478  -8.231  0.00  0.00    -0.241 OA
ENDBRANCH  16  18
ENDBRANCH  10  15
ENDBRANCH   7  10
ENDBRANCH   1   7
BRANCH   5  21
ATOM     21  N   UNL     1      -0.409   6.053  -1.349  0.00  0.00    -0.216 N 
ATOM     22  H   UNL     1       0.447   5.596  -1.371  0.00  0.00    +0.174 HD
BRANCH  21  23
ATOM     23  S   UNL     1      -0.725   7.160  -0.158  0.00  0.00    +0.072 S 
ATOM     24  O   UNL     1      -1.238   8.316  -0.805  0.00  0.00    -0.150 OA
ATOM     25  O   UNL     1       0.425   7.200   0.675  0.00  0.00    -0.150 OA
BRANCH  23  26
ATOM     26  C   UNL     1      -2.036   6.509   0.823  0.00  0.00    +0.110 A 
ATOM     27  C   UNL     1      -1.755   5.632   1.856  0.00  0.00    +0.029 A 
ATOM     28  C   UNL     1      -2.778   5.116   2.631  0.00  0.00    +0.003 A 
ATOM     29  C   UNL     1      -4.087   5.473   2.379  0.00  0.00    +0.019 A 
ATOM     30  C   UNL     1      -4.378   6.353   1.335  0.00  0.00    +0.054 A 
ATOM     31  C   UNL     1      -3.340   6.875   0.560  0.00  0.00    +0.047 A 
BRANCH  30  32
ATOM     32  C   UNL     1      -5.734   6.723   1.063  0.00  0.00    +0.099 C 
ATOM     33  N   UNL     1      -6.810   7.017   0.848  0.00  0.00    -0.191 NA
ENDBRANCH  30  32
ENDBRANCH  23  26
ENDBRANCH  21  23
ENDBRANCH   5  21
TORSDOF 8
