REMARK  Name = ZINC63759628
REMARK  13 active torsions:
REMARK  status: ('A' for Active; 'I' for Inactive)
REMARK    1  A    between atoms: C_1  and  C_2
REMARK    2  A    between atoms: C_2  and  C_3
REMARK    3  A    between atoms: C_2  and  C_4
REMARK    4  A    between atoms: C_4  and  C_5
REMARK    5  A    between atoms: C_5  and  C_6
REMARK    6  A    between atoms: C_5  and  N_19
REMARK    7  A    between atoms: N_12  and  C_15
REMARK    8  A    between atoms: C_15  and  C_16
REMARK    9  A    between atoms: C_20  and  O_22
REMARK   10  A    between atoms: O_22  and  C_23
REMARK   11  A    between atoms: C_23  and  C_24
REMARK   12  A    between atoms: C_23  and  C_25
REMARK   13  A    between atoms: C_23  and  C_26
REMARK                            x       y       z     vdW  Elec       q    Type
REMARK                         _______ _______ _______ _____ _____    ______ ____
ROOT
ATOM      1  C   UNL     1      -3.031  -1.906  -1.229  0.00  0.00    +0.236 C 
ATOM      2  O   UNL     1      -3.617  -2.856  -0.754  0.00  0.00    -0.274 OA
ATOM      3  N   UNL     1      -3.694  -1.023  -2.002  0.00  0.00    -0.302 N 
ATOM      4  C   UNL     1      -2.953   0.120  -2.573  0.00  0.00    +0.106 C 
ATOM      5  C   UNL     1      -3.369   0.376  -4.033  0.00  0.00    +0.000 C 
ATOM      6  C   UNL     1      -3.553  -0.946  -4.744  0.00  0.00    -0.077 C 
ATOM      7  N   UNL     1      -4.956  -1.345  -4.666  0.00  0.00    +0.386 N 
ATOM      8  C   UNL     1      -5.301  -2.089  -3.515  0.00  0.00    -0.059 C 
ATOM      9  C   UNL     1      -5.105  -1.233  -2.249  0.00  0.00    +0.089 C 
ATOM     10  H   UNL     1      -5.526  -0.512  -4.688  0.00  0.00    -0.081 HD
ENDROOT
BRANCH   1  11
ATOM     11  C   UNL     1      -1.561  -1.713  -0.956  0.00  0.00    +0.162 C 
BRANCH  11  12
ATOM     12  N   UNL     1      -1.018  -2.923  -0.333  0.00  0.00    -0.270 N 
ATOM     13  C   UNL     1       0.304  -3.179  -0.399  0.00  0.00    +0.401 C 
ATOM     14  O   UNL     1       1.057  -2.365  -0.895  0.00  0.00    -0.226 OA
ATOM     15  H   UNL     1      -1.609  -3.539   0.127  0.00  0.00    +0.153 HD
BRANCH  13  16
ATOM     16  O   UNL     1       0.789  -4.338   0.085  0.00  0.00    -0.445 OA
BRANCH  16  17
ATOM     17  C   UNL     1       2.200  -4.544  -0.019  0.00  0.00    +0.107 C 
ATOM     18  C   UNL     1       2.933  -3.440   0.746  0.00  0.00    +0.055 C 
ATOM     19  C   UNL     1       2.562  -5.905   0.579  0.00  0.00    +0.055 C 
ATOM     20  C   UNL     1       2.614  -4.507  -1.491  0.00  0.00    +0.055 C 
ENDBRANCH  16  17
ENDBRANCH  13  16
ENDBRANCH  11  12
BRANCH  11  21
ATOM     21  C   UNL     1      -1.370  -0.524  -0.013  0.00  0.00    +0.035 C 
BRANCH  21  23
ATOM     22  C   UNL     1      -1.530   0.191   2.376  0.00  0.00    +0.007 C 
ATOM     23  C   UNL     1      -1.984  -0.850   1.350  0.00  0.00    -0.015 C 
ATOM     24  C   UNL     1      -3.510  -0.826   1.241  0.00  0.00    +0.007 C 
ENDBRANCH  21  23
ENDBRANCH  11  21
ENDBRANCH   1  11
BRANCH   7  25
ATOM     25  C   UNL     1      -5.276  -2.151  -5.852  0.00  0.00    +0.018 C 
BRANCH  25  26
ATOM     26  C   UNL     1      -5.232  -1.277  -7.079  0.00  0.00    +0.194 C 
ATOM     27  O   UNL     1      -4.957  -0.101  -6.976  0.00  0.00    -0.278 OA
ATOM     28  N   UNL     1      -5.498  -1.804  -8.291  0.00  0.00    -0.331 N 
ATOM     29  H   UNL     1      -5.718  -2.745  -8.373  0.00  0.00    +0.145 HD
ATOM     30  H   UNL     1      -5.470  -1.242  -9.081  0.00  0.00    +0.145 HD
ENDBRANCH  25  26
ENDBRANCH   7  25
TORSDOF 8
