REMARK  Name = ZINC62392601
REMARK  10 active torsions:
REMARK  status: ('A' for Active; 'I' for Inactive)
REMARK    1  A    between atoms: C_1  and  C_2
REMARK    2  A    between atoms: C_2  and  C_3
REMARK    3  A    between atoms: C_3  and  C_5
REMARK    4  A    between atoms: C_3  and  N_7
REMARK    5  A    between atoms: C_5  and  O_6
REMARK    6  A    between atoms: C_9  and  O_25
REMARK    7  A    between atoms: C_13  and  C_14
REMARK    8  A    between atoms: C_14  and  N_15
REMARK    9  A    between atoms: C_17  and  C_24
REMARK   10  A    between atoms: C_20  and  C_23
REMARK                            x       y       z     vdW  Elec       q    Type
REMARK                         _______ _______ _______ _____ _____    ______ ____
ROOT
ATOM      1  N   UNL     1      -1.864  -0.005  -0.930  0.00  0.00    -0.344 N 
ATOM      2  C   UNL     1      -1.376  -0.600  -2.050  0.00  0.00    +0.135 A 
ATOM      3  C   UNL     1      -2.074  -0.563  -3.210  0.00  0.00    +0.180 A 
ATOM      4  C   UNL     1      -3.324   0.105  -3.243  0.00  0.00    +0.223 A 
ATOM      5  O   UNL     1      -3.978   0.155  -4.276  0.00  0.00    -0.284 OA
ATOM      6  C   UNL     1      -3.800   0.712  -2.059  0.00  0.00    +0.074 A 
ATOM      7  C   UNL     1      -3.058   0.635  -0.932  0.00  0.00    +0.006 A 
ENDROOT
BRANCH   3   8
ATOM      8  O   UNL     1      -1.581  -1.159  -4.330  0.00  0.00    -0.502 OA
ATOM      9  H   UNL     1      -2.155  -1.076  -5.104  0.00  0.00    +0.292 HD
ENDBRANCH   3   8
BRANCH   1  10
ATOM     10  C   UNL     1      -1.084  -0.063   0.309  0.00  0.00    +0.112 C 
BRANCH  10  12
ATOM     11  C   UNL     1      -0.132   2.217  -0.058  0.00  0.00    +0.006 C 
ATOM     12  C   UNL     1       0.207   0.738   0.137  0.00  0.00    +0.024 C 
ENDBRANCH  10  12
BRANCH  10  13
ATOM     13  C   UNL     1      -0.742  -1.520   0.629  0.00  0.00    +0.180 C 
BRANCH  13  14
ATOM     14  O   UNL     1      -1.948  -2.257   0.839  0.00  0.00    -0.393 OA
ATOM     15  H   UNL     1      -1.806  -3.171   1.121  0.00  0.00    +0.209 HD
ENDBRANCH  13  14
ENDBRANCH  10  13
ENDBRANCH   1  10
BRANCH   7  16
ATOM     16  C   UNL     1      -3.562   1.275   0.336  0.00  0.00    -0.024 C 
BRANCH  16  17
ATOM     17  N   UNL     1      -4.066   0.234   1.242  0.00  0.00    +0.384 N 
ATOM     18  C   UNL     1      -5.257  -0.390   0.654  0.00  0.00    -0.075 C 
ATOM     19  C   UNL     1      -5.738  -1.529   1.555  0.00  0.00    -0.031 C 
ATOM     20  C   UNL     1      -6.085  -0.967   2.937  0.00  0.00    +0.003 C 
ATOM     21  C   UNL     1      -4.857  -0.254   3.510  0.00  0.00    -0.031 C 
ATOM     22  C   UNL     1      -4.407   0.838   2.536  0.00  0.00    -0.075 C 
ATOM     23  C   UNL     1      -5.214   0.377   4.857  0.00  0.00    +0.005 C 
ATOM     24  C   UNL     1      -4.631  -2.576   1.691  0.00  0.00    +0.005 C 
ATOM     25  H   UNL     1      -3.353  -0.467   1.377  0.00  0.00    -0.081 HD
ENDBRANCH  16  17
ENDBRANCH   7  16
TORSDOF 7
