REMARK  Name = ZINC26781303
REMARK  11 active torsions:
REMARK  status: ('A' for Active; 'I' for Inactive)
REMARK    1  A    between atoms: C_1  and  C_2
REMARK    2  A    between atoms: C_2  and  C_3
REMARK    3  A    between atoms: C_2  and  C_4
REMARK    4  A    between atoms: C_2  and  N_6
REMARK    5  A    between atoms: C_4  and  O_5
REMARK    6  A    between atoms: N_6  and  C_7
REMARK    7  A    between atoms: C_7  and  C_8
REMARK    8  A    between atoms: C_8  and  C_10
REMARK    9  A    between atoms: C_8  and  O_21
REMARK   10  A    between atoms: C_10  and  O_11
REMARK   11  A    between atoms: O_11  and  C_12
REMARK                            x       y       z     vdW  Elec       q    Type
REMARK                         _______ _______ _______ _____ _____    ______ ____
ROOT
ATOM      1  C   UNL     1       1.286   1.562  -0.002  0.00  0.00    +0.135 C 
ENDROOT
BRANCH   1   2
ATOM      2  O   UNL     1      -0.011   0.963   0.007  0.00  0.00    -0.390 OA
ATOM      3  H   UNL     1      -0.702   1.160   0.840  0.00  0.00    +0.210 HD
ENDBRANCH   1   2
BRANCH   1   4
ATOM      4  C   UNL     1       2.040   1.127  -1.261  0.00  0.00    -0.047 C 
BRANCH   4   5
ATOM      5  N   UNL     1       1.357   1.660  -2.448  0.00  0.00    +0.386 N 
ATOM      6  H   UNL     1       1.334   2.757  -2.378  0.00  0.00    -0.085 HD
ATOM      7  H   UNL     1       0.329   1.271  -2.467  0.00  0.00    -0.085 HD
BRANCH   5   9
ATOM      8  C   UNL     1       3.486   1.802  -3.651  0.00  0.00    -0.008 C 
ATOM      9  C   UNL     1       2.054   1.262  -3.678  0.00  0.00    -0.050 C 
ATOM     10  C   UNL     1       2.087  -0.265  -3.775  0.00  0.00    -0.008 C 
BRANCH   9  11
ATOM     11  C   UNL     1       1.316   1.834  -4.890  0.00  0.00    +0.143 C 
BRANCH  11  12
ATOM     12  O   UNL     1       1.994   1.447  -6.087  0.00  0.00    -0.396 OA
ATOM     13  H   UNL     1       1.608   1.766  -7.066  0.00  0.00    +0.209 HD
ENDBRANCH  11  12
ENDBRANCH   9  11
ENDBRANCH   5   9
ENDBRANCH   4   5
ENDBRANCH   1   4
BRANCH   1  14
ATOM     14  C   UNL     1       2.064   1.114   1.238  0.00  0.00    +0.258 C 
BRANCH  14  15
ATOM     15  O   UNL     1       1.422   1.619   2.410  0.00  0.00    -0.484 OA
BRANCH  15  16
ATOM     16  C   UNL     1       1.990   1.310   3.607  0.00  0.00    +0.191 A 
ATOM     17  C   UNL     1       1.605   0.160   4.283  0.00  0.00    +0.169 A 
ATOM     18  C   UNL     1       2.189  -0.155   5.497  0.00  0.00    +0.057 A 
ATOM     19  C   UNL     1       3.147   0.680   6.043  0.00  0.00    +0.024 A 
ATOM     20  C   UNL     1       3.528   1.829   5.374  0.00  0.00    +0.057 A 
ATOM     21  C   UNL     1       2.952   2.147   4.157  0.00  0.00    +0.169 A 
ATOM     22  F   UNL     1       3.325   3.269   3.504  0.00  0.00    -0.202 F 
ATOM     23 BR   UNL     1       3.937   0.250   7.707  0.00  0.00    -0.050 Br
ATOM     24  F   UNL     1       0.666  -0.653   3.753  0.00  0.00    -0.202 F 
ENDBRANCH  15  16
ENDBRANCH  14  15
ENDBRANCH   1  14
TORSDOF 9
