REMARK  Name = ZINC66340151
REMARK  6 active torsions:
REMARK  status: ('A' for Active; 'I' for Inactive)
REMARK    1  A    between atoms: C_1  and  C_2
REMARK    2  A    between atoms: N_4  and  C_5
REMARK    3  A    between atoms: C_5  and  C_6
REMARK    4  A    between atoms: N_8  and  C_9
REMARK    5  A    between atoms: C_9  and  C_10
REMARK    6  A    between atoms: C_18  and  C_20
REMARK                            x       y       z     vdW  Elec       q    Type
REMARK                         _______ _______ _______ _____ _____    ______ ____
ROOT
ATOM      1  C   UNL     1      -5.054  -6.194   1.936  0.00  0.00    +0.233 C 
ATOM      2  O   UNL     1      -4.120  -6.825   2.386  0.00  0.00    -0.274 OA
ATOM      3  N   UNL     1      -6.112  -6.842   1.407  0.00  0.00    -0.297 N 
ATOM      4  C   UNL     1      -7.247  -6.091   0.854  0.00  0.00    +0.127 C 
ATOM      5  C   UNL     1      -7.473  -6.542  -0.595  0.00  0.00    +0.126 C 
ATOM      6  N   UNL     1      -7.511  -8.011  -0.628  0.00  0.00    -0.298 N 
ATOM      7  C   UNL     1      -6.375  -8.762  -0.074  0.00  0.00    +0.126 C 
ATOM      8  C   UNL     1      -6.147  -8.310   1.369  0.00  0.00    +0.127 C 
ATOM      9  C   UNL     1      -8.569  -8.658  -1.157  0.00  0.00    +0.219 C 
ATOM     10  O   UNL     1      -9.534  -8.031  -1.540  0.00  0.00    -0.275 OA
ENDROOT
BRANCH   9  11
ATOM     11  C   UNL     1      -8.551 -10.161  -1.274  0.00  0.00    +0.075 C 
ATOM     12  C   UNL     1      -7.781 -10.566  -2.531  0.00  0.00    +0.013 C 
ATOM     13  C   UNL     1      -7.763 -12.092  -2.649  0.00  0.00    +0.001 C 
ATOM     14  C   UNL     1      -9.199 -12.612  -2.741  0.00  0.00    +0.000 C 
ATOM     15  C   UNL     1      -9.970 -12.207  -1.483  0.00  0.00    +0.001 C 
ATOM     16  C   UNL     1      -9.987 -10.681  -1.365  0.00  0.00    +0.013 C 
ENDBRANCH   9  11
BRANCH   1  17
ATOM     17  C   UNL     1      -5.032  -4.688   1.969  0.00  0.00    +0.200 C 
BRANCH  17  20
ATOM     18  C   UNL     1      -3.545  -2.912   2.726  0.00  0.00    +0.231 C 
ATOM     19  O   UNL     1      -4.361  -2.103   2.337  0.00  0.00    -0.274 OA
ATOM     20  N   UNL     1      -3.785  -4.231   2.588  0.00  0.00    -0.305 N 
ATOM     21  H   UNL     1      -3.133  -4.878   2.899  0.00  0.00    +0.149 HD
BRANCH  18  22
ATOM     22  C   UNL     1      -2.263  -2.442   3.363  0.00  0.00    +0.200 C 
BRANCH  22  26
ATOM     23  C   UNL     1      -1.162   1.176   3.956  0.00  0.00    +0.109 C 
ATOM     24  C   UNL     1      -1.184  -0.331   3.924  0.00  0.00    +0.210 C 
ATOM     25  O   UNL     1      -0.250  -0.961   4.373  0.00  0.00    -0.276 OA
ATOM     26  N   UNL     1      -2.241  -0.978   3.395  0.00  0.00    -0.307 N 
ATOM     27  H   UNL     1      -2.988  -0.474   3.035  0.00  0.00    +0.149 HD
ENDBRANCH  22  26
ENDBRANCH  18  22
ENDBRANCH  17  20
ENDBRANCH   1  17
TORSDOF 5
