REMARK  Name = ZINC35508606
REMARK  9 active torsions:
REMARK  status: ('A' for Active; 'I' for Inactive)
REMARK    1  A    between atoms: C_1  and  C_2
REMARK    2  A    between atoms: C_2  and  N_3
REMARK    3  A    between atoms: N_3  and  C_4
REMARK    4  A    between atoms: C_4  and  C_6
REMARK    5  A    between atoms: C_4  and  C_15
REMARK    6  A    between atoms: C_9  and  O_13
REMARK    7  A    between atoms: O_13  and  C_14
REMARK    8  A    between atoms: C_18  and  C_22
REMARK    9  A    between atoms: C_20  and  C_21
REMARK                            x       y       z     vdW  Elec       q    Type
REMARK                         _______ _______ _______ _____ _____    ______ ____
ROOT
ATOM      1  C   UNL     1       0.719  -1.991  -1.157  0.00  0.00    -0.010 C 
ENDROOT
BRANCH   1   2
ATOM      2  C   UNL     1      -0.717  -2.427  -1.293  0.00  0.00    -0.054 A 
ATOM      3  C   UNL     1      -1.605  -1.661  -2.024  0.00  0.00    +0.003 A 
ATOM      4  C   UNL     1      -2.922  -2.061  -2.149  0.00  0.00    +0.003 A 
ATOM      5  C   UNL     1      -3.351  -3.227  -1.544  0.00  0.00    -0.050 A 
ATOM      6  C   UNL     1      -2.462  -3.994  -0.814  0.00  0.00    +0.007 A 
ATOM      7  C   UNL     1      -1.144  -3.596  -0.693  0.00  0.00    -0.048 A 
ATOM      8  C   UNL     1      -0.174  -4.435   0.099  0.00  0.00    +0.044 C 
ATOM      9  C   UNL     1      -4.787  -3.663  -1.679  0.00  0.00    +0.044 C 
ENDBRANCH   1   2
BRANCH   1  10
ATOM     10  C   UNL     1       1.539  -2.611  -2.259  0.00  0.00    -0.056 A 
ATOM     11  C   UNL     1       1.408  -2.154  -3.558  0.00  0.00    +0.006 A 
ATOM     12  C   UNL     1       2.159  -2.721  -4.570  0.00  0.00    +0.047 A 
ATOM     13  C   UNL     1       3.044  -3.749  -4.283  0.00  0.00    +0.134 A 
ATOM     14  C   UNL     1       3.175  -4.206  -2.979  0.00  0.00    +0.060 A 
ATOM     15  C   UNL     1       2.425  -3.632  -1.969  0.00  0.00    +0.021 A 
ATOM     16 BR   UNL     1       4.380  -5.608  -2.583  0.00  0.00    -0.047 Br
BRANCH  13  17
ATOM     17  O   UNL     1       3.783  -4.309  -5.277  0.00  0.00    -0.494 OA
ATOM     18  C   UNL     1       3.597  -3.789  -6.595  0.00  0.00    +0.277 C 
ENDBRANCH  13  17
ENDBRANCH   1  10
BRANCH   1  19
ATOM     19  N   UNL     1       0.798  -0.527  -1.253  0.00  0.00    +0.386 N 
ATOM     20  H   UNL     1       0.365  -0.223  -2.112  0.00  0.00    -0.085 HD
ATOM     21  H   UNL     1       1.765  -0.241  -1.244  0.00  0.00    -0.085 HD
BRANCH  19  23
ATOM     22  C   UNL     1       0.180   1.601  -0.211  0.00  0.00    -0.017 C 
ATOM     23  C   UNL     1       0.098   0.077  -0.111  0.00  0.00    -0.085 C 
ENDBRANCH  19  23
ENDBRANCH   1  19
TORSDOF 5
