REMARK  Name = ZINC46569613
REMARK  10 active torsions:
REMARK  status: ('A' for Active; 'I' for Inactive)
REMARK    1  A    between atoms: C_1  and  C_2
REMARK    2  A    between atoms: C_2  and  O_3
REMARK    3  A    between atoms: O_3  and  C_4
REMARK    4  A    between atoms: C_4  and  C_6
REMARK    5  A    between atoms: C_7  and  C_13
REMARK    6  A    between atoms: C_13  and  N_14
REMARK    7  A    between atoms: N_14  and  C_15
REMARK    8  A    between atoms: N_14  and  C_25
REMARK    9  A    between atoms: C_15  and  C_16
REMARK   10  A    between atoms: C_19  and  C_22
REMARK                            x       y       z     vdW  Elec       q    Type
REMARK                         _______ _______ _______ _____ _____    ______ ____
ROOT
ATOM      1  N   UNL     1       1.820  -5.534   1.099  0.00  0.00    +0.388 N 
ATOM      2  H   UNL     1       2.207  -5.912   1.951  0.00  0.00    -0.080 HD
ENDROOT
BRANCH   1   3
ATOM      3  C   UNL     1       2.852  -4.763   0.393  0.00  0.00    -0.068 C 
ATOM      4  C   UNL     1       4.306  -4.973   0.820  0.00  0.00    -0.017 C 
ATOM      5  C   UNL     1       3.583  -3.674   1.181  0.00  0.00    -0.017 C 
ENDBRANCH   1   3
BRANCH   1   6
ATOM      6  C   UNL     1       0.688  -4.656   1.422  0.00  0.00    -0.026 C 
BRANCH   6   8
ATOM      7  C   UNL     1       1.107  -2.329   2.132  0.00  0.00    +0.069 C 
ATOM      8  C   UNL     1       1.117  -3.641   2.450  0.00  0.00    +0.007 C 
ATOM      9  N   UNL     1       1.509  -4.063   3.688  0.00  0.00    -0.274 N 
ATOM     10  C   UNL     1       1.905  -3.236   4.664  0.00  0.00    +0.304 C 
ATOM     11  O   UNL     1       2.236  -3.706   5.735  0.00  0.00    -0.253 OA
ATOM     12  N   UNL     1       1.948  -1.899   4.497  0.00  0.00    -0.295 N 
ATOM     13  C   UNL     1       1.550  -1.342   3.193  0.00  0.00    +0.149 C 
ATOM     14  H   UNL     1       1.500  -5.016   3.871  0.00  0.00    +0.156 HD
ATOM     15  H   UNL     1       2.238  -1.318   5.218  0.00  0.00    +0.151 HD
BRANCH   7  16
ATOM     16  C   UNL     1       0.701  -1.890   0.850  0.00  0.00    +0.338 C 
ATOM     17  O   UNL     1       1.532  -1.520   0.042  0.00  0.00    -0.245 OA
BRANCH  16  18
ATOM     18  O   UNL     1      -0.608  -1.882   0.522  0.00  0.00    -0.462 OA
BRANCH  18  20
ATOM     19  C   UNL     1      -2.463  -1.489  -0.976  0.00  0.00    +0.048 C 
ATOM     20  C   UNL     1      -0.946  -1.427  -0.789  0.00  0.00    +0.229 C 
ENDBRANCH  18  20
ENDBRANCH  16  18
ENDBRANCH   7  16
ENDBRANCH   6   8
ENDBRANCH   1   6
BRANCH   1  21
ATOM     21  C   UNL     1       1.358  -6.634   0.241  0.00  0.00    -0.042 C 
BRANCH  21  22
ATOM     22  C   UNL     1       2.491  -7.601   0.011  0.00  0.00    -0.064 A 
ATOM     23  C   UNL     1       3.343  -7.420  -1.065  0.00  0.00    +0.002 A 
ATOM     24  C   UNL     1       4.381  -8.301  -1.282  0.00  0.00    +0.013 A 
ATOM     25  C   UNL     1       4.572  -9.378  -0.414  0.00  0.00    +0.037 A 
ATOM     26  C   UNL     1       3.709  -9.555   0.669  0.00  0.00    +0.013 A 
ATOM     27  C   UNL     1       2.677  -8.663   0.878  0.00  0.00    +0.002 A 
BRANCH  25  28
ATOM     28  C   UNL     1       5.683 -10.327  -0.641  0.00  0.00    +0.242 C 
ATOM     29  O   UNL     1       6.432 -10.171  -1.585  0.00  0.00    -0.270 OA
ATOM     30  N   UNL     1       5.864 -11.365   0.199  0.00  0.00    -0.325 N 
ATOM     31  H   UNL     1       5.266 -11.490   0.952  0.00  0.00    +0.145 HD
ATOM     32  H   UNL     1       6.593 -11.988   0.050  0.00  0.00    +0.145 HD
ENDBRANCH  25  28
ENDBRANCH  21  22
ENDBRANCH   1  21
TORSDOF 9
