REMARK  Name = ZINC62247690
REMARK  7 active torsions:
REMARK  status: ('A' for Active; 'I' for Inactive)
REMARK    1  A    between atoms: C_1  and  O_2
REMARK    2  A    between atoms: O_2  and  C_3
REMARK    3  A    between atoms: C_8  and  N_9
REMARK    4  A    between atoms: C_10  and  C_16
REMARK    5  A    between atoms: C_11  and  C_14
REMARK    6  A    between atoms: C_14  and  N_15
REMARK    7  A    between atoms: C_16  and  C_17
REMARK                            x       y       z     vdW  Elec       q    Type
REMARK                         _______ _______ _______ _____ _____    ______ ____
ROOT
ATOM      1  N   UNL     1      -0.105  -2.808   0.015  0.00  0.00    -0.213 N 
ATOM      2  C   UNL     1       0.030  -4.161   0.074  0.00  0.00    +0.071 A 
ATOM      3  C   UNL     1       1.360  -4.407   0.011  0.00  0.00    +0.069 A 
ATOM      4  N   UNL     1       1.963  -3.217  -0.082  0.00  0.00    -0.136 NA
ATOM      5  N   UNL     1       1.070  -2.292  -0.081  0.00  0.00    -0.060 NA
ENDROOT
BRANCH   1  11
ATOM      6  C   UNL     1      -1.474  -1.028   0.924  0.00  0.00    +0.145 A 
ATOM      7  C   UNL     1      -2.670  -0.328   0.948  0.00  0.00    +0.048 A 
ATOM      8  C   UNL     1      -3.704  -0.697   0.109  0.00  0.00    +0.004 A 
ATOM      9  C   UNL     1      -3.550  -1.764  -0.757  0.00  0.00    +0.002 A 
ATOM     10  C   UNL     1      -2.361  -2.467  -0.787  0.00  0.00    +0.031 A 
ATOM     11  C   UNL     1      -1.316  -2.099   0.048  0.00  0.00    +0.109 A 
BRANCH   6  13
ATOM     12  C   UNL     1      -0.690   0.443   2.619  0.00  0.00    +0.277 C 
ATOM     13  O   UNL     1      -0.456  -0.666   1.748  0.00  0.00    -0.493 OA
ENDBRANCH   6  13
ENDBRANCH   1  11
BRANCH   3  14
ATOM     14  C   UNL     1       2.029  -5.757   0.040  0.00  0.00    -0.026 C 
BRANCH  14  15
ATOM     15  N   UNL     1       2.278  -6.210  -1.336  0.00  0.00    +0.382 N 
ATOM     16  H   UNL     1       2.798  -7.074  -1.316  0.00  0.00    -0.090 HD
ATOM     17  H   UNL     1       1.397  -6.358  -1.806  0.00  0.00    -0.090 HD
ATOM     18  H   UNL     1       2.809  -5.508  -1.829  0.00  0.00    -0.090 HD
ENDBRANCH  14  15
ENDBRANCH   3  14
BRANCH   2  19
ATOM     19  C   UNL     1      -1.076  -5.178   0.186  0.00  0.00    +0.092 C 
BRANCH  19  20
ATOM     20  C   UNL     1      -1.455  -5.351   1.634  0.00  0.00    -0.042 A 
ATOM     21  C   UNL     1      -0.744  -6.226   2.435  0.00  0.00    +0.004 A 
ATOM     22  C   UNL     1      -1.091  -6.384   3.764  0.00  0.00    +0.000 A 
ATOM     23  C   UNL     1      -2.149  -5.668   4.292  0.00  0.00    +0.000 A 
ATOM     24  C   UNL     1      -2.859  -4.793   3.491  0.00  0.00    +0.000 A 
ATOM     25  C   UNL     1      -2.509  -4.631   2.164  0.00  0.00    +0.004 A 
ENDBRANCH  19  20
ENDBRANCH   2  19
TORSDOF 6
