REMARK  Name = ZINC43974722
REMARK  11 active torsions:
REMARK  status: ('A' for Active; 'I' for Inactive)
REMARK    1  A    between atoms: C_1  and  C_2
REMARK    2  A    between atoms: C_2  and  C_3
REMARK    3  A    between atoms: C_7  and  N_20
REMARK    4  A    between atoms: C_9  and  N_12
REMARK    5  A    between atoms: N_12  and  C_13
REMARK    6  A    between atoms: N_12  and  C_17
REMARK    7  A    between atoms: C_13  and  C_14
REMARK    8  A    between atoms: C_17  and  C_18
REMARK    9  A    between atoms: C_17  and  C_19
REMARK   10  A    between atoms: N_20  and  C_21
REMARK   11  A    between atoms: C_21  and  C_22
REMARK                            x       y       z     vdW  Elec       q    Type
REMARK                         _______ _______ _______ _____ _____    ______ ____
ROOT
ATOM      1  C   UNL     1      -1.840  -0.719   1.885  0.00  0.00    -0.013 C 
ATOM      2  C   UNL     1      -3.223  -1.244   2.277  0.00  0.00    +0.002 C 
ATOM      3  C   UNL     1      -3.740  -2.183   1.185  0.00  0.00    -0.017 C 
ATOM      4  C   UNL     1      -2.774  -3.359   1.024  0.00  0.00    -0.086 C 
ATOM      5  C   UNL     1      -1.392  -2.833   0.632  0.00  0.00    -0.082 C 
ATOM      6  C   UNL     1      -0.875  -1.895   1.724  0.00  0.00    -0.013 C 
ENDROOT
BRANCH   4   7
ATOM      7  N   UNL     1      -3.271  -4.260  -0.025  0.00  0.00    +0.380 N 
ATOM      8  H   UNL     1      -3.405  -3.740  -0.879  0.00  0.00    -0.086 HD
ATOM      9  H   UNL     1      -2.599  -4.996  -0.181  0.00  0.00    -0.086 HD
BRANCH   7  10
ATOM     10  C   UNL     1      -4.550  -4.845   0.398  0.00  0.00    -0.086 C 
ATOM     11  C   UNL     1      -5.067  -5.784  -0.694  0.00  0.00    -0.017 C 
ENDBRANCH   7  10
ENDBRANCH   4   7
BRANCH   1  13
ATOM     12  C   UNL     1      -2.807   1.290   0.756  0.00  0.00    +0.004 C 
ATOM     13  C   UNL     1      -1.940   0.044   0.562  0.00  0.00    -0.000 C 
ENDBRANCH   1  13
BRANCH   5  14
ATOM     14  N   UNL     1      -0.465  -3.962   0.478  0.00  0.00    +0.382 N 
ATOM     15  H   UNL     1      -0.863  -4.641  -0.154  0.00  0.00    -0.081 HD
BRANCH  14  16
ATOM     16  C   UNL     1       0.811  -3.477  -0.066  0.00  0.00    -0.075 C 
ATOM     17  C   UNL     1       1.809  -4.635  -0.135  0.00  0.00    -0.014 C 
ATOM     18  C   UNL     1       0.586  -2.914  -1.470  0.00  0.00    -0.014 C 
ENDBRANCH  14  16
BRANCH  14  19
ATOM     19  C   UNL     1      -0.233  -4.588   1.786  0.00  0.00    -0.075 C 
BRANCH  19  20
ATOM     20  C   UNL     1       0.108  -6.067   1.591  0.00  0.00    -0.028 C 
ATOM     21  C   UNL     1      -0.863  -7.098   2.171  0.00  0.00    +0.002 C 
ATOM     22  C   UNL     1       0.499  -6.872   2.832  0.00  0.00    +0.002 C 
ENDBRANCH  19  20
ENDBRANCH  14  19
ENDBRANCH   5  14
TORSDOF 7
