REMARK  Name = ZINC42950792
REMARK  6 active torsions:
REMARK  status: ('A' for Active; 'I' for Inactive)
REMARK    1  A    between atoms: C_1  and  C_2
REMARK    2  A    between atoms: C_2  and  C_4
REMARK    3  A    between atoms: C_2  and  N_21
REMARK    4  A    between atoms: C_4  and  C_6
REMARK    5  A    between atoms: C_4  and  S_13
REMARK    6  A    between atoms: S_13  and  C_14
REMARK                            x       y       z     vdW  Elec       q    Type
REMARK                         _______ _______ _______ _____ _____    ______ ____
ROOT
ATOM      1  C   UNL     1       0.852  -0.500   1.318  0.00  0.00    +0.069 C 
ENDROOT
BRANCH   1   2
ATOM      2  C   UNL     1       2.255   0.050   1.284  0.00  0.00    -0.036 A 
ATOM      3  C   UNL     1       3.115  -0.312   0.263  0.00  0.00    +0.006 A 
ATOM      4  C   UNL     1       4.401   0.191   0.232  0.00  0.00    +0.020 A 
ATOM      5  C   UNL     1       4.829   1.058   1.221  0.00  0.00    +0.041 A 
ATOM      6  C   UNL     1       3.969   1.420   2.242  0.00  0.00    +0.020 A 
ATOM      7  C   UNL     1       2.680   0.920   2.270  0.00  0.00    +0.006 A 
ATOM      8 CL   UNL     1       6.445   1.691   1.183  0.00  0.00    -0.084 Cl
ENDBRANCH   1   2
BRANCH   1  10
ATOM      9  C   UNL     1      -0.029   1.432   0.001  0.00  0.00    -0.013 C 
ATOM     10  C   UNL     1       0.113  -0.091   0.042  0.00  0.00    -0.060 C 
BRANCH  10  11
ATOM     11  N   UNL     1      -1.220  -0.708   0.030  0.00  0.00    +0.381 N 
ATOM     12  H   UNL     1      -1.683  -0.490  -0.840  0.00  0.00    -0.090 HD
ATOM     13  H   UNL     1      -1.128  -1.709   0.120  0.00  0.00    -0.090 HD
ATOM     14  H   UNL     1      -1.764  -0.349   0.800  0.00  0.00    -0.090 HD
ENDBRANCH  10  11
ENDBRANCH   1  10
BRANCH   1  15
ATOM     15  S   UNL     1       0.915  -2.310   1.427  0.00  0.00    -0.081 S 
BRANCH  15  16
ATOM     16  C   UNL     1       1.570  -2.618   3.033  0.00  0.00    +0.169 A 
ATOM     17  N   UNL     1       1.957  -1.603   3.781  0.00  0.00    -0.232 NA
ATOM     18  C   UNL     1       2.457  -1.792   5.000  0.00  0.00    +0.119 A 
ATOM     19  C   UNL     1       2.579  -3.055   5.502  0.00  0.00    +0.090 A 
ATOM     20  C   UNL     1       2.169  -4.144   4.711  0.00  0.00    +0.252 A 
ATOM     21  N   UNL     1       1.663  -3.900   3.483  0.00  0.00    -0.302 N 
ATOM     22  O   UNL     1       2.264  -5.286   5.129  0.00  0.00    -0.268 OA
ATOM     23  H   UNL     1       1.371  -4.635   2.923  0.00  0.00    +0.171 HD
ENDBRANCH  15  16
ENDBRANCH   1  15
TORSDOF 5
