REMARK  Name = ZINC44295862
REMARK  6 active torsions:
REMARK  status: ('A' for Active; 'I' for Inactive)
REMARK    1  A    between atoms: C_1  and  C_2
REMARK    2  A    between atoms: C_4  and  C_7
REMARK    3  A    between atoms: C_7  and  N_8
REMARK    4  A    between atoms: N_8  and  C_9
REMARK    5  A    between atoms: C_9  and  C_11
REMARK    6  A    between atoms: C_9  and  C_12
REMARK                            x       y       z     vdW  Elec       q    Type
REMARK                         _______ _______ _______ _____ _____    ______ ____
ROOT
ATOM      1  C   UNL     1      -2.542  -5.031  -1.393  0.00  0.00    -0.068 C 
ATOM      2  C   UNL     1      -1.815  -6.174  -0.682  0.00  0.00    -0.013 C 
ENDROOT
BRANCH   1   3
ATOM      3  C   UNL     1      -2.845  -5.438  -2.837  0.00  0.00    -0.041 C 
ATOM      4  C   UNL     1      -1.535  -5.742  -3.566  0.00  0.00    +0.009 C 
ATOM      5  C   UNL     1      -1.838  -6.149  -5.010  0.00  0.00    -0.010 C 
ATOM      6  C   UNL     1      -2.724  -7.397  -5.012  0.00  0.00    +0.007 C 
ATOM      7  C   UNL     1      -4.034  -7.093  -4.282  0.00  0.00    -0.010 C 
ATOM      8  C   UNL     1      -3.731  -6.686  -2.839  0.00  0.00    +0.009 C 
ATOM      9  C   UNL     1      -4.761  -5.950  -4.994  0.00  0.00    +0.007 C 
ATOM     10  C   UNL     1      -3.875  -4.703  -4.991  0.00  0.00    -0.010 C 
ATOM     11  C   UNL     1      -2.565  -5.006  -5.721  0.00  0.00    +0.007 C 
ATOM     12  C   UNL     1      -3.572  -4.295  -3.548  0.00  0.00    +0.009 C 
ENDBRANCH   1   3
BRANCH   1  13
ATOM     13  N   UNL     1      -1.692  -3.833  -1.391  0.00  0.00    +0.385 N 
ATOM     14  H   UNL     1      -2.135  -3.104  -1.930  0.00  0.00    -0.085 HD
ATOM     15  H   UNL     1      -0.796  -4.056  -1.799  0.00  0.00    -0.085 HD
BRANCH  13  16
ATOM     16  C   UNL     1      -1.500  -3.372  -0.010  0.00  0.00    -0.022 C 
BRANCH  16  20
ATOM     17  C   UNL     1      -0.018   1.503   0.010  0.00  0.00    +0.089 C 
ATOM     18  C   UNL     1       0.002  -0.004   0.002  0.00  0.00    +0.134 A 
ATOM     19  C   UNL     1      -1.077  -0.810   0.003  0.00  0.00    +0.068 A 
ATOM     20  C   UNL     1      -0.627  -2.143  -0.007  0.00  0.00    +0.067 A 
ATOM     21  N   UNL     1       0.676  -2.130  -0.013  0.00  0.00    -0.085 NA
ATOM     22  O   UNL     1       1.098  -0.778  -0.013  0.00  0.00    -0.360 OA
ENDBRANCH  16  20
ENDBRANCH  13  16
ENDBRANCH   1  13
TORSDOF 4
