REMARK  Name = ZINC50816857
REMARK  7 active torsions:
REMARK  status: ('A' for Active; 'I' for Inactive)
REMARK    1  A    between atoms: C_1  and  C_2
REMARK    2  A    between atoms: C_8  and  N_10
REMARK    3  A    between atoms: N_10  and  C_11
REMARK    4  A    between atoms: N_10  and  C_12
REMARK    5  A    between atoms: C_12  and  C_13
REMARK    6  A    between atoms: C_15  and  N_20
REMARK    7  A    between atoms: C_18  and  N_19
REMARK                            x       y       z     vdW  Elec       q    Type
REMARK                         _______ _______ _______ _____ _____    ______ ____
ROOT
ATOM      1  C   UNL     1       4.204   0.130   2.475  0.00  0.00    -0.041 A 
ATOM      2  C   UNL     1       5.303  -0.587   2.045  0.00  0.00    +0.036 A 
ATOM      3  C   UNL     1       6.563  -0.020   2.094  0.00  0.00    +0.126 A 
ATOM      4  C   UNL     1       6.727   1.267   2.573  0.00  0.00    +0.034 A 
ATOM      5  C   UNL     1       5.632   1.990   3.005  0.00  0.00    +0.025 A 
ATOM      6  C   UNL     1       4.364   1.425   2.951  0.00  0.00    +0.026 A 
ENDROOT
BRANCH   6   7
ATOM      7  N   UNL     1       3.254   2.155   3.382  0.00  0.00    -0.358 N 
ATOM      8  H   UNL     1       2.369   1.758   3.348  0.00  0.00    +0.142 HD
ATOM      9  H   UNL     1       3.367   3.059   3.715  0.00  0.00    +0.142 HD
ENDBRANCH   6   7
BRANCH   3  10
ATOM     10  N   UNL     1       7.739  -0.791   1.633  0.00  0.00    +0.056 N 
ATOM     11  O   UNL     1       7.597  -1.916   1.214  0.00  0.00    -0.126 OA
ATOM     12  O   UNL     1       8.841  -0.296   1.675  0.00  0.00    -0.126 OA
ENDBRANCH   3  10
BRANCH   1  13
ATOM     13  C   UNL     1       2.831  -0.489   2.421  0.00  0.00    -0.041 C 
BRANCH  13  14
ATOM     14  N   UNL     1       2.120  -0.002   1.231  0.00  0.00    +0.383 N 
ATOM     15  C   UNL     1       2.808  -0.476   0.022  0.00  0.00    -0.095 C 
ATOM     16  H   UNL     1       2.107   1.006   1.237  0.00  0.00    -0.081 HD
BRANCH  14  23
ATOM     17  C   UNL     1      -0.019   1.526   0.010  0.00  0.00    +0.006 C 
ATOM     18  C   UNL     1       0.002  -0.004   0.002  0.00  0.00    -0.028 C 
ATOM     19  C   UNL     1      -1.433  -0.534   0.013  0.00  0.00    +0.002 C 
ATOM     20  C   UNL     1      -2.149  -0.040   1.272  0.00  0.00    +0.000 C 
ATOM     21  C   UNL     1      -1.409  -0.547   2.511  0.00  0.00    -0.002 C 
ATOM     22  C   UNL     1       0.026  -0.018   2.500  0.00  0.00    -0.015 C 
ATOM     23  C   UNL     1       0.742  -0.511   1.242  0.00  0.00    -0.066 C 
ENDBRANCH  14  23
ENDBRANCH  13  14
ENDBRANCH   1  13
TORSDOF 5
