REMARK  Name = ZINC37965813
REMARK  8 active torsions:
REMARK  status: ('A' for Active; 'I' for Inactive)
REMARK    1  A    between atoms: C_1  and  C_2
REMARK    2  A    between atoms: C_2  and  C_3
REMARK    3  A    between atoms: C_2  and  C_4
REMARK    4  A    between atoms: C_4  and  N_5
REMARK    5  A    between atoms: N_5  and  C_6
REMARK    6  A    between atoms: C_6  and  C_17
REMARK    7  A    between atoms: C_17  and  O_19
REMARK    8  A    between atoms: O_19  and  C_20
REMARK                            x       y       z     vdW  Elec       q    Type
REMARK                         _______ _______ _______ _____ _____    ______ ____
ROOT
ATOM      1  C   UNL     1      -2.828  -2.400  -0.154  0.00  0.00    +0.057 C 
ATOM      2  C   UNL     1      -2.599  -3.903  -0.005  0.00  0.00    +0.003 C 
ATOM      3  C   UNL     1      -3.703  -4.471   0.890  0.00  0.00    -0.000 C 
ATOM      4  C   UNL     1      -5.064  -4.232   0.243  0.00  0.00    +0.005 C 
ATOM      5  C   UNL     1      -4.877  -4.308  -1.275  0.00  0.00    +0.035 C 
ATOM      6  C   UNL     1      -4.630  -2.942  -1.859  0.00  0.00    -0.045 A 
ATOM      7  C   UNL     1      -3.676  -2.086  -1.362  0.00  0.00    -0.045 A 
ATOM      8  C   UNL     1      -3.468  -0.858  -1.981  0.00  0.00    +0.003 A 
ATOM      9  C   UNL     1      -4.226  -0.483  -3.070  0.00  0.00    +0.000 A 
ATOM     10  C   UNL     1      -5.204  -1.333  -3.551  0.00  0.00    +0.000 A 
ATOM     11  C   UNL     1      -5.403  -2.558  -2.948  0.00  0.00    +0.004 A 
ENDROOT
BRANCH   1  12
ATOM     12  N   UNL     1      -1.529  -1.728  -0.291  0.00  0.00    +0.393 N 
ATOM     13  H   UNL     1      -0.969  -1.909   0.528  0.00  0.00    -0.084 HD
ATOM     14  H   UNL     1      -1.673  -0.734  -0.388  0.00  0.00    -0.084 HD
BRANCH  12  15
ATOM     15  C   UNL     1      -0.837  -2.240  -1.481  0.00  0.00    -0.078 C 
BRANCH  15  17
ATOM     16  C   UNL     1       1.333  -2.264  -2.721  0.00  0.00    +0.005 C 
ATOM     17  C   UNL     1       0.567  -1.637  -1.554  0.00  0.00    -0.034 C 
ATOM     18  C   UNL     1       0.462  -0.125  -1.766  0.00  0.00    +0.005 C 
ENDBRANCH  15  17
ENDBRANCH  12  15
ENDBRANCH   1  12
BRANCH   1  19
ATOM     19  C   UNL     1      -3.521  -1.884   1.081  0.00  0.00    +0.300 C 
ATOM     20  O   UNL     1      -4.696  -1.605   1.043  0.00  0.00    -0.252 OA
BRANCH  19  21
ATOM     21  O   UNL     1      -2.832  -1.734   2.224  0.00  0.00    -0.469 OA
ATOM     22  C   UNL     1      -3.552  -1.241   3.355  0.00  0.00    +0.280 C 
ENDBRANCH  19  21
ENDBRANCH   1  19
TORSDOF 5
