REMARK  Name = ZINC39610985
REMARK  8 active torsions:
REMARK  status: ('A' for Active; 'I' for Inactive)
REMARK    1  A    between atoms: C_1  and  N_2
REMARK    2  A    between atoms: C_3  and  N_29
REMARK    3  A    between atoms: C_5  and  C_12
REMARK    4  A    between atoms: N_8  and  C_11
REMARK    5  A    between atoms: C_12  and  C_14
REMARK    6  A    between atoms: C_14  and  O_15
REMARK    7  A    between atoms: O_15  and  C_16
REMARK    8  A    between atoms: C_16  and  C_18
REMARK                            x       y       z     vdW  Elec       q    Type
REMARK                         _______ _______ _______ _____ _____    ______ ____
ROOT
ATOM      1  C   UNL     1      -2.177  -2.724   0.350  0.00  0.00    +0.201 C 
ATOM      2  O   UNL     1      -2.204  -3.928   0.519  0.00  0.00    -0.289 OA
ENDROOT
BRANCH   1   6
ATOM      3  C   UNL     1       2.901  -2.676   0.131  0.00  0.00    +0.132 C 
ATOM      4  N   UNL     1       1.584  -2.041   0.030  0.00  0.00    -0.298 N 
ATOM      5  C   UNL     1       0.357  -2.817   0.269  0.00  0.00    +0.056 C 
ATOM      6  C   UNL     1      -0.960  -2.077   0.143  0.00  0.00    +0.063 C 
ATOM      7  C   UNL     1      -0.907  -0.737  -0.185  0.00  0.00    +0.253 C 
ATOM      8  O   UNL     1      -2.052  -0.035  -0.308  0.00  0.00    -0.270 OA
ATOM      9  N   UNL     1       0.293  -0.116  -0.386  0.00  0.00    -0.225 N 
ATOM     10  C   UNL     1       1.475  -0.735  -0.278  0.00  0.00    +0.310 C 
ATOM     11  O   UNL     1       2.490  -0.093  -0.471  0.00  0.00    -0.252 OA
ATOM     12  C   UNL     1       0.286   1.307  -0.732  0.00  0.00    +0.143 C 
BRANCH   5  13
ATOM     13  N   UNL     1       0.433  -3.377   1.625  0.00  0.00    +0.393 N 
ATOM     14  H   UNL     1       0.416  -2.628   2.300  0.00  0.00    -0.087 HD
ATOM     15  H   UNL     1      -0.355  -3.988   1.781  0.00  0.00    -0.087 HD
ATOM     16  H   UNL     1       1.289  -3.901   1.726  0.00  0.00    -0.087 HD
ENDBRANCH   5  13
ENDBRANCH   1   6
BRANCH   1  17
ATOM     17  C   UNL     1      -3.459  -1.932   0.366  0.00  0.00    +0.311 C 
BRANCH  17  18
ATOM     18  O   UNL     1      -4.551  -2.799   0.678  0.00  0.00    -0.453 OA
BRANCH  18  19
ATOM     19  C   UNL     1      -5.777  -2.243   0.733  0.00  0.00    +0.337 C 
ATOM     20  O   UNL     1      -5.916  -1.055   0.520  0.00  0.00    -0.245 OA
BRANCH  19  21
ATOM     21  C   UNL     1      -6.953  -3.077   1.050  0.00  0.00    +0.054 C 
ATOM     22  C   UNL     1      -6.850  -4.447   1.178  0.00  0.00    +0.007 A 
ATOM     23  C   UNL     1      -5.566  -5.126   1.004  0.00  0.00    +0.010 A 
ATOM     24  C   UNL     1      -5.516  -6.474   1.141  0.00  0.00    +0.001 A 
ATOM     25  C   UNL     1      -6.661  -7.222   1.442  0.00  0.00    +0.002 A 
ATOM     26  C   UNL     1      -7.880  -6.657   1.616  0.00  0.00    +0.024 A 
ATOM     27  C   UNL     1      -8.044  -5.259   1.496  0.00  0.00    +0.041 A 
ATOM     28  N   UNL     1      -9.239  -4.713   1.667  0.00  0.00    -0.285 N 
ATOM     29  C   UNL     1      -9.466  -3.409   1.568  0.00  0.00    +0.222 C 
ATOM     30  O   UNL     1     -10.588  -2.972   1.736  0.00  0.00    -0.275 OA
ATOM     31  C   UNL     1      -8.326  -2.466   1.255  0.00  0.00    +0.139 C 
ATOM     32  H   UNL     1      -9.986  -5.296   1.873  0.00  0.00    +0.155 HD
ENDBRANCH  19  21
ENDBRANCH  18  19
ENDBRANCH  17  18
ENDBRANCH   1  17
TORSDOF 6
