REMARK  Name = ZINC40521163
REMARK  5 active torsions:
REMARK  status: ('A' for Active; 'I' for Inactive)
REMARK    1  A    between atoms: C_1  and  N_2
REMARK    2  A    between atoms: N_11  and  CA_12
REMARK    3  A    between atoms: CA_12  and  CB_14
REMARK    4  A    between atoms: CA_12  and  C_21
REMARK    5  A    between atoms: CB_14  and  CG_15
REMARK                            x       y       z     vdW  Elec       q    Type
REMARK                         _______ _______ _______ _____ _____    ______ ____
ROOT
ATOM      1  C   UNK A   0       0.002   1.459   0.006  0.00  0.00    -0.096 C 
ATOM      2  N   UNK A   0       0.015  -0.010  -0.001  0.00  0.00    +0.379 N 
ATOM      3  C   UNK A   0      -1.363  -0.483  -0.119  0.00  0.00    -0.078 C 
ATOM      4  C   UNK A   0      -1.373  -1.819  -0.828  0.00  0.00    +0.000 C 
ATOM      5  C   UNK A   0      -1.340  -2.952   0.213  0.00  0.00    +0.107 C 
ATOM      6  N   UNK A   0      -0.432  -2.622   1.330  0.00  0.00    -0.287 N 
ATOM      7  C   UNK A   0       0.856  -1.993   1.121  0.00  0.00    +0.091 C 
ATOM      8  C   UNK A   0       0.700  -0.455   1.151  0.00  0.00    -0.060 C 
ATOM      9  C   UNK A   0      -0.815  -2.916   2.588  0.00  0.00    +0.303 C 
ATOM     10  O   UNK A   0      -1.926  -3.362   2.796  0.00  0.00    -0.253 OA
ATOM     11  N   HIS A   1       0.035  -2.715   3.615  0.00  0.00    -0.286 N 
ATOM     12  H   HIS A   1       0.892  -2.290   3.459  0.00  0.00    +0.151 HD
ATOM     13  H   UNK A   0       0.526  -0.319  -0.814  0.00  0.00    -0.082 HD
ENDROOT
BRANCH  11  14
ATOM     14  CA  HIS A   1      -0.338  -3.139   4.967  0.00  0.00    +0.193 C 
BRANCH  14  15
ATOM     15  C   HIS A   1       0.011  -4.593   5.152  0.00  0.00    +0.376 C 
ATOM     16  O   HIS A   1       0.684  -5.170   4.314  0.00  0.00    -0.244 OA
ATOM     17  OXT HIS A   1      -0.380  -5.193   6.138  0.00  0.00    -0.244 OA
ENDBRANCH  14  15
BRANCH  14  18
ATOM     18  CB  HIS A   1       0.424  -2.297   5.993  0.00  0.00    +0.088 C 
BRANCH  18  19
ATOM     19  CG  HIS A   1      -0.017  -0.860   5.890  0.00  0.00    +0.035 A 
ATOM     20  CD2 HIS A   1       0.459   0.066   5.036  0.00  0.00    +0.105 A 
ATOM     21  NE2 HIS A   1      -0.193   1.216   5.265  0.00  0.00    -0.352 N 
ATOM     22  HD1 HIS A   1      -1.511  -0.656   7.345  0.00  0.00    +0.166 HD
ATOM     23  CE1 HIS A   1      -1.055   1.037   6.229  0.00  0.00    +0.171 A 
ATOM     24  ND1 HIS A   1      -0.981  -0.246   6.643  0.00  0.00    -0.350 N 
ATOM     25  HE2 HIS A   1      -0.047   2.049   4.790  0.00  0.00    +0.166 HD
ENDBRANCH  18  19
ENDBRANCH  14  18
ENDBRANCH  11  14
TORSDOF 4
