REMARK  Name = ZINC43974550
REMARK  11 active torsions:
REMARK  status: ('A' for Active; 'I' for Inactive)
REMARK    1  A    between atoms: C_1  and  C_2
REMARK    2  A    between atoms: C_2  and  C_3
REMARK    3  A    between atoms: C_3  and  C_4
REMARK    4  A    between atoms: C_8  and  N_21
REMARK    5  A    between atoms: C_10  and  N_13
REMARK    6  A    between atoms: N_13  and  C_14
REMARK    7  A    between atoms: N_13  and  C_18
REMARK    8  A    between atoms: C_14  and  C_15
REMARK    9  A    between atoms: C_18  and  C_19
REMARK   10  A    between atoms: C_18  and  C_20
REMARK   11  A    between atoms: N_21  and  C_22
REMARK                            x       y       z     vdW  Elec       q    Type
REMARK                         _______ _______ _______ _____ _____    ______ ____
ROOT
ATOM      1  C   UNL     1       1.434  -0.978  -1.067  0.00  0.00    -0.013 C 
ATOM      2  C   UNL     1       0.753  -2.338  -0.897  0.00  0.00    +0.002 C 
ATOM      3  C   UNL     1      -0.074  -2.653  -2.145  0.00  0.00    -0.017 C 
ATOM      4  C   UNL     1       0.843  -2.691  -3.369  0.00  0.00    -0.086 C 
ATOM      5  C   UNL     1       1.524  -1.331  -3.539  0.00  0.00    -0.082 C 
ATOM      6  C   UNL     1       2.351  -1.016  -2.291  0.00  0.00    -0.013 C 
ENDROOT
BRANCH   4   7
ATOM      7  N   UNL     1       0.049  -2.994  -4.567  0.00  0.00    +0.378 N 
ATOM      8  C   UNL     1      -0.659  -4.267  -4.376  0.00  0.00    -0.100 C 
ATOM      9  H   UNL     1      -0.622  -2.256  -4.721  0.00  0.00    -0.086 HD
ATOM     10  H   UNL     1       0.660  -3.066  -5.367  0.00  0.00    -0.086 HD
ENDBRANCH   4   7
BRANCH   5  11
ATOM     11  N   UNL     1       2.404  -1.368  -4.714  0.00  0.00    +0.382 N 
ATOM     12  H   UNL     1       3.153  -0.703  -4.594  0.00  0.00    -0.081 HD
BRANCH  11  13
ATOM     13  C   UNL     1       1.632  -1.024  -5.915  0.00  0.00    -0.075 C 
ATOM     14  C   UNL     1       0.877   0.286  -5.679  0.00  0.00    -0.014 C 
ATOM     15  C   UNL     1       2.583  -0.857  -7.102  0.00  0.00    -0.014 C 
ENDBRANCH  11  13
BRANCH  11  16
ATOM     16  C   UNL     1       2.966  -2.717  -4.863  0.00  0.00    -0.075 C 
BRANCH  16  17
ATOM     17  C   UNL     1       4.050  -2.701  -5.943  0.00  0.00    -0.028 C 
ATOM     18  C   UNL     1       3.831  -3.579  -7.177  0.00  0.00    +0.002 C 
ATOM     19  C   UNL     1       4.876  -3.975  -6.133  0.00  0.00    +0.002 C 
ENDBRANCH  16  17
ENDBRANCH  11  16
ENDBRANCH   5  11
BRANCH   1  20
ATOM     20  C   UNL     1       0.369   0.104  -1.261  0.00  0.00    +0.003 C 
BRANCH  20  22
ATOM     21  C   UNL     1      -1.534   1.310  -0.181  0.00  0.00    +0.004 C 
ATOM     22  C   UNL     1      -0.470   0.228   0.013  0.00  0.00    -0.003 C 
ENDBRANCH  20  22
ENDBRANCH   1  20
TORSDOF 7
