REMARK  Name = ZINC27642398
REMARK  7 active torsions:
REMARK  status: ('A' for Active; 'I' for Inactive)
REMARK    1  A    between atoms: C_1  and  O_2
REMARK    2  A    between atoms: O_2  and  C_3
REMARK    3  A    between atoms: C_7  and  C_10
REMARK    4  A    between atoms: C_8  and  O_9
REMARK    5  A    between atoms: C_20  and  C_33
REMARK    6  A    between atoms: C_22  and  C_24
REMARK    7  A    between atoms: C_24  and  C_26
REMARK                            x       y       z     vdW  Elec       q    Type
REMARK                         _______ _______ _______ _____ _____    ______ ____
ROOT
ATOM      1  C   UNL     1       2.678   2.474   0.248  0.00  0.00    +0.074 C 
ATOM      2  C   UNL     1       2.416   3.861   0.726  0.00  0.00    +0.033 A 
ATOM      3  C   UNL     1       1.241   4.510   0.866  0.00  0.00    +0.088 A 
ATOM      4  N   UNL     1       1.314   5.800   1.335  0.00  0.00    -0.311 N 
ATOM      5  H   UNL     1       0.394   6.386   1.478  0.00  0.00    +0.170 HD
ATOM      6  C   UNL     1       2.509   6.354   1.622  0.00  0.00    +0.289 A 
ATOM      7  O   UNL     1       2.753   7.472   2.040  0.00  0.00    -0.260 OA
ATOM      8  S   UNL     1       3.611   5.066   1.251  0.00  0.00    -0.030 S 
ATOM      9  S   UNL     1      -0.293   3.700   0.460  0.00  0.00    -0.091 S 
ATOM     10  C   UNL     1       0.283   2.230  -0.444  0.00  0.00    +0.177 C 
ATOM     11  C   UNL     1       1.432   1.598   0.351  0.00  0.00    +0.097 C 
ENDROOT
BRANCH   1  16
ATOM     12  C   UNL     1       4.626   1.823  -2.931  0.00  0.00    +0.162 A 
ATOM     13  C   UNL     1       3.945   2.623  -3.835  0.00  0.00    +0.049 A 
ATOM     14  C   UNL     1       2.860   3.369  -3.416  0.00  0.00    +0.004 A 
ATOM     15  C   UNL     1       2.448   3.316  -2.097  0.00  0.00    +0.008 A 
ATOM     16  C   UNL     1       3.126   2.525  -1.189  0.00  0.00    +0.006 A 
ATOM     17  C   UNL     1       4.215   1.774  -1.602  0.00  0.00    +0.162 A 
BRANCH  12  19
ATOM     18  C   UNL     1       6.060   1.188  -4.719  0.00  0.00    +0.277 C 
ATOM     19  O   UNL     1       5.694   1.088  -3.341  0.00  0.00    -0.491 OA
ENDBRANCH  12  19
BRANCH  17  20
ATOM     20  O   UNL     1       4.881   0.992  -0.711  0.00  0.00    -0.503 OA
ATOM     21  H   UNL     1       4.554   0.954   0.338  0.00  0.00    +0.292 HD
ENDBRANCH  17  20
ENDBRANCH   1  16
BRANCH  10  22
ATOM     22  C   UNL     1      -0.847   1.242  -0.580  0.00  0.00    +0.370 C 
ATOM     23  O   UNL     1      -1.039   0.421   0.285  0.00  0.00    -0.245 OA
ATOM     24  O   UNL     1      -1.639   1.274  -1.663  0.00  0.00    -0.245 OA
ENDBRANCH  10  22
BRANCH  11  25
ATOM     25  C   UNL     1       1.028   1.468   1.797  0.00  0.00    +0.169 C 
ATOM     26  O   UNL     1       0.133   2.155   2.240  0.00  0.00    -0.292 OA
BRANCH  25  27
ATOM     27  C   UNL     1       1.720   0.508   2.670  0.00  0.00    +0.018 A 
ATOM     28  C   UNL     1       2.768  -0.271   2.166  0.00  0.00    +0.014 A 
ATOM     29  C   UNL     1       3.415  -1.164   2.991  0.00  0.00    +0.039 A 
ATOM     30  C   UNL     1       3.023  -1.300   4.315  0.00  0.00    +0.123 A 
ATOM     31  C   UNL     1       1.982  -0.535   4.819  0.00  0.00    +0.039 A 
ATOM     32  C   UNL     1       1.329   0.366   4.006  0.00  0.00    +0.014 A 
ATOM     33  F   UNL     1       3.659  -2.182   5.117  0.00  0.00    -0.205 F 
ENDBRANCH  25  27
ENDBRANCH  11  25
TORSDOF 6
