REMARK  Name = ZINC37338055
REMARK  5 active torsions:
REMARK  status: ('A' for Active; 'I' for Inactive)
REMARK    1  A    between atoms: C_1  and  C_2
REMARK    2  A    between atoms: N_11  and  S_12
REMARK    3  A    between atoms: S_12  and  C_15
REMARK    4  A    between atoms: C_18  and  C_20
REMARK    5  A    between atoms: C_20  and  N_21
REMARK                            x       y       z     vdW  Elec       q    Type
REMARK                         _______ _______ _______ _____ _____    ______ ____
ROOT
ATOM      1  S   UNL     1       0.314  -0.237   2.744  0.00  0.00    +0.081 S 
ATOM      2  O   UNL     1       1.501  -0.380   3.512  0.00  0.00    -0.149 OA
ATOM      3  O   UNL     1      -0.463   0.953   2.758  0.00  0.00    -0.149 OA
ENDROOT
BRANCH   1  13
ATOM      4  C   UNL     1      -0.019   1.526   0.010  0.00  0.00    +0.030 C 
ATOM      5  C   UNL     1       0.002  -0.004   0.002  0.00  0.00    +0.099 C 
ATOM      6  C   UNL     1       0.778  -0.520  -1.221  0.00  0.00    +0.061 C 
ATOM      7  C   UNL     1       1.931  -1.304  -0.635  0.00  0.00    -0.023 A 
ATOM      8  C   UNL     1       2.960  -1.995  -1.246  0.00  0.00    +0.005 A 
ATOM      9  C   UNL     1       3.911  -2.644  -0.481  0.00  0.00    +0.000 A 
ATOM     10  C   UNL     1       3.831  -2.599   0.899  0.00  0.00    +0.002 A 
ATOM     11  C   UNL     1       2.807  -1.911   1.513  0.00  0.00    +0.025 A 
ATOM     12  C   UNL     1       1.842  -1.253   0.747  0.00  0.00    +0.055 A 
ATOM     13  N   UNL     1       0.735  -0.509   1.166  0.00  0.00    -0.199 N 
ENDBRANCH   1  13
BRANCH   1  14
ATOM     14  C   UNL     1      -0.761  -1.546   3.229  0.00  0.00    +0.146 A 
ATOM     15  C   UNL     1      -0.452  -2.741   3.789  0.00  0.00    +0.037 A 
ATOM     16  C   UNL     1      -1.472  -3.624   4.090  0.00  0.00    +0.011 A 
ATOM     17  C   UNL     1      -2.751  -3.268   3.818  0.00  0.00    -0.026 A 
ATOM     18  S   UNL     1      -2.541  -1.638   3.120  0.00  0.00    -0.075 S 
BRANCH  17  19
ATOM     19  C   UNL     1      -4.022  -4.044   4.050  0.00  0.00    -0.043 C 
BRANCH  19  20
ATOM     20  N   UNL     1      -4.548  -3.735   5.387  0.00  0.00    +0.381 N 
ATOM     21  H   UNL     1      -5.398  -4.254   5.542  0.00  0.00    -0.090 HD
ATOM     22  H   UNL     1      -3.865  -3.991   6.084  0.00  0.00    -0.090 HD
ATOM     23  H   UNL     1      -4.740  -2.747   5.452  0.00  0.00    -0.090 HD
ENDBRANCH  19  20
ENDBRANCH  17  19
ENDBRANCH   1  14
TORSDOF 4
