REMARK  Name = ZINC51250153
REMARK  12 active torsions:
REMARK  status: ('A' for Active; 'I' for Inactive)
REMARK    1  A    between atoms: C_1  and  C_2
REMARK    2  A    between atoms: C_2  and  C_3
REMARK    3  A    between atoms: C_2  and  C_4
REMARK    4  A    between atoms: C_4  and  N_5
REMARK    5  A    between atoms: N_5  and  C_6
REMARK    6  A    between atoms: N_5  and  C_10
REMARK    7  A    between atoms: C_6  and  C_7
REMARK    8  A    between atoms: C_7  and  C_8
REMARK    9  A    between atoms: C_7  and  C_9
REMARK   10  A    between atoms: C_10  and  C_11
REMARK   11  A    between atoms: C_11  and  C_17
REMARK   12  A    between atoms: C_17  and  N_18
REMARK                            x       y       z     vdW  Elec       q    Type
REMARK                         _______ _______ _______ _____ _____    ______ ____
ROOT
ATOM      1  C   UNL     1      -3.330  -2.176   0.896  0.00  0.00    -0.074 C 
ENDROOT
BRANCH   1   2
ATOM      2  C   UNL     1      -4.079  -1.943  -0.417  0.00  0.00    -0.060 C 
ATOM      3  C   UNL     1      -3.938  -3.177  -1.311  0.00  0.00    +0.003 C 
ATOM      4  C   UNL     1      -4.687  -2.943  -2.624  0.00  0.00    +0.000 C 
ATOM      5  C   UNL     1      -6.167  -2.692  -2.330  0.00  0.00    +0.000 C 
ATOM      6  C   UNL     1      -6.307  -1.458  -1.437  0.00  0.00    +0.000 C 
ATOM      7  C   UNL     1      -5.559  -1.692  -0.123  0.00  0.00    +0.003 C 
BRANCH   2   8
ATOM      8  C   UNL     1      -3.487  -0.726  -1.132  0.00  0.00    -0.081 C 
BRANCH   8   9
ATOM      9  N   UNL     1      -3.578   0.449  -0.255  0.00  0.00    +0.378 N 
ATOM     10  H   UNL     1      -3.196   1.253  -0.730  0.00  0.00    -0.090 HD
ATOM     11  H   UNL     1      -4.544   0.622  -0.023  0.00  0.00    -0.090 HD
ATOM     12  H   UNL     1      -3.054   0.278   0.591  0.00  0.00    -0.090 HD
ENDBRANCH   8   9
ENDBRANCH   2   8
ENDBRANCH   1   2
BRANCH   1  13
ATOM     13  N   UNL     1      -1.951  -2.593   0.607  0.00  0.00    +0.380 N 
ATOM     14  H   UNL     1      -1.938  -3.153  -0.232  0.00  0.00    -0.082 HD
BRANCH  13  15
ATOM     15  C   UNL     1      -1.111  -1.403   0.414  0.00  0.00    -0.076 C 
BRANCH  15  17
ATOM     16  C   UNL     1       0.885  -0.490  -0.779  0.00  0.00    +0.005 C 
ATOM     17  C   UNL     1       0.056  -1.748  -0.513  0.00  0.00    -0.034 C 
ATOM     18  C   UNL     1       0.938  -2.808   0.150  0.00  0.00    +0.005 C 
ENDBRANCH  15  17
ENDBRANCH  13  15
BRANCH  13  19
ATOM     19  C   UNL     1      -1.432  -3.382   1.732  0.00  0.00    -0.076 C 
BRANCH  19  20
ATOM     20  C   UNL     1      -1.469  -2.538   3.008  0.00  0.00    -0.034 C 
ATOM     21  C   UNL     1      -2.869  -2.605   3.622  0.00  0.00    +0.005 C 
ATOM     22  C   UNL     1      -0.447  -3.080   4.008  0.00  0.00    +0.005 C 
ENDBRANCH  19  20
ENDBRANCH  13  19
ENDBRANCH   1  13
TORSDOF 8
