REMARK  Name = ZINC43899882
REMARK  5 active torsions:
REMARK  status: ('A' for Active; 'I' for Inactive)
REMARK    1  A    between atoms: C_1  and  C_2
REMARK    2  A    between atoms: C_2  and  C_3
REMARK    3  A    between atoms: C_7  and  N_24
REMARK    4  A    between atoms: C_9  and  N_12
REMARK    5  A    between atoms: N_24  and  C_25
REMARK                            x       y       z     vdW  Elec       q    Type
REMARK                         _______ _______ _______ _____ _____    ______ ____
ROOT
ATOM      1  C   UNL     1      -1.439  -0.545   0.323  0.00  0.00    -0.013 C 
ATOM      2  C   UNL     1      -2.281  -0.198   1.553  0.00  0.00    +0.002 C 
ATOM      3  C   UNL     1      -3.726  -0.646   1.325  0.00  0.00    -0.017 C 
ATOM      4  C   UNL     1      -3.760  -2.159   1.094  0.00  0.00    -0.086 C 
ATOM      5  C   UNL     1      -2.919  -2.506  -0.136  0.00  0.00    -0.083 C 
ATOM      6  C   UNL     1      -1.474  -2.057   0.092  0.00  0.00    -0.013 C 
ENDROOT
BRANCH   5   7
ATOM      7  N   UNL     1      -2.952  -3.957  -0.358  0.00  0.00    +0.381 N 
ATOM      8  C   UNL     1      -2.295  -4.637   0.765  0.00  0.00    -0.078 C 
ATOM      9  C   UNL     1      -2.391  -6.153   0.579  0.00  0.00    -0.015 C 
ATOM     10  C   UNL     1      -1.696  -6.542  -0.731  0.00  0.00    -0.011 C 
ATOM     11  C   UNL     1      -0.213  -6.177  -0.635  0.00  0.00    +0.004 C 
ATOM     12  C   UNL     1       0.487  -6.524  -1.950  0.00  0.00    +0.000 C 
ATOM     13  C   UNL     1      -0.154  -5.732  -3.092  0.00  0.00    +0.000 C 
ATOM     14  C   UNL     1      -1.635  -6.100  -3.194  0.00  0.00    +0.002 C 
ATOM     15  C   UNL     1      -2.352  -5.777  -1.883  0.00  0.00    -0.025 C 
ATOM     16  C   UNL     1      -2.256  -4.275  -1.611  0.00  0.00    -0.075 C 
ATOM     17  H   UNL     1      -3.911  -4.265  -0.420  0.00  0.00    -0.082 HD
ENDBRANCH   5   7
BRANCH   4  18
ATOM     18  N   UNL     1      -5.147  -2.589   0.876  0.00  0.00    +0.378 N 
ATOM     19  C   UNL     1      -5.924  -2.382   2.106  0.00  0.00    -0.100 C 
ATOM     20  H   UNL     1      -5.553  -2.049   0.127  0.00  0.00    -0.086 HD
ATOM     21  H   UNL     1      -5.161  -3.568   0.630  0.00  0.00    -0.086 HD
ENDBRANCH   4  18
BRANCH   1  23
ATOM     22  C   UNL     1       0.055   1.429   0.657  0.00  0.00    +0.004 C 
ATOM     23  C   UNL     1       0.006  -0.097   0.550  0.00  0.00    -0.000 C 
ENDBRANCH   1  23
TORSDOF 3
