REMARK  Name = ZINC62959015
REMARK  8 active torsions:
REMARK  status: ('A' for Active; 'I' for Inactive)
REMARK    1  A    between atoms: C_1  and  C_2
REMARK    2  A    between atoms: C_2  and  C_3
REMARK    3  A    between atoms: C_3  and  C_4
REMARK    4  A    between atoms: C_3  and  C_5
REMARK    5  A    between atoms: C_3  and  N_6
REMARK    6  A    between atoms: N_6  and  C_7
REMARK    7  A    between atoms: C_7  and  C_8
REMARK    8  A    between atoms: C_8  and  N_9
REMARK                            x       y       z     vdW  Elec       q    Type
REMARK                         _______ _______ _______ _____ _____    ______ ____
ROOT
ATOM      1  N   UNL     1       2.134  -4.444  -3.691  0.00  0.00    +0.379 N 
ATOM      2  C   UNL     1       3.541  -4.026  -3.647  0.00  0.00    -0.078 C 
ATOM      3  C   UNL     1       4.239  -4.440  -4.944  0.00  0.00    -0.012 C 
ATOM      4  C   UNL     1       4.147  -5.956  -5.106  0.00  0.00    -0.033 C 
ATOM      5  C   UNL     1       4.938  -6.649  -3.981  0.00  0.00    +0.007 C 
ATOM      6  C   UNL     1       5.578  -7.879  -4.673  0.00  0.00    +0.001 C 
ATOM      7  C   UNL     1       5.953  -7.329  -6.072  0.00  0.00    +0.001 C 
ATOM      8  C   UNL     1       4.787  -6.385  -6.433  0.00  0.00    +0.007 C 
ATOM      9  C   UNL     1       2.686  -6.399  -5.060  0.00  0.00    -0.012 C 
ATOM     10  C   UNL     1       2.049  -5.907  -3.758  0.00  0.00    -0.078 C 
ATOM     11  H   UNL     1       1.693  -4.045  -4.505  0.00  0.00    -0.082 HD
ENDROOT
BRANCH   1  12
ATOM     12  C   UNL     1       1.446  -3.970  -2.482  0.00  0.00    -0.098 C 
BRANCH  12  13
ATOM     13  C   UNL     1       1.426  -2.440  -2.474  0.00  0.00    -0.101 C 
BRANCH  13  14
ATOM     14  N   UNL     1       0.738  -1.966  -1.265  0.00  0.00    +0.381 N 
ATOM     15  H   UNL     1       1.226  -2.301  -0.447  0.00  0.00    -0.085 HD
ATOM     16  H   UNL     1      -0.208  -2.316  -1.258  0.00  0.00    -0.085 HD
BRANCH  14  17
ATOM     17  C   UNL     1       0.718  -0.497  -1.257  0.00  0.00    -0.074 C 
ATOM     18  C   UNL     1      -0.022   0.009  -2.496  0.00  0.00    -0.010 C 
ATOM     19  C   UNL     1       2.154   0.032  -1.268  0.00  0.00    -0.010 C 
BRANCH  17  21
ATOM     20  C   UNL     1      -0.019   1.526   0.010  0.00  0.00    +0.002 C 
ATOM     21  C   UNL     1       0.002  -0.004   0.002  0.00  0.00    -0.016 C 
ENDBRANCH  17  21
ENDBRANCH  14  17
ENDBRANCH  13  14
ENDBRANCH  12  13
ENDBRANCH   1  12
TORSDOF 5
