REMARK  Name = ZINC41619891
REMARK  4 active torsions:
REMARK  status: ('A' for Active; 'I' for Inactive)
REMARK    1  A    between atoms: C_1  and  C_2
REMARK    2  A    between atoms: C_2  and  C_4
REMARK    3  A    between atoms: C_2  and  N_15
REMARK    4  A    between atoms: C_4  and  C_6
REMARK                            x       y       z     vdW  Elec       q    Type
REMARK                         _______ _______ _______ _____ _____    ______ ____
ROOT
ATOM      1  C   UNL     1       0.707  -0.490  -1.238  0.00  0.00    +0.180 C 
ATOM      2  O   UNL     1       1.834  -0.934  -1.160  0.00  0.00    -0.290 OA
ENDROOT
BRANCH   1   3
ATOM      3  C   UNL     1       0.032  -0.426  -2.539  0.00  0.00    +0.019 A 
ATOM      4  C   UNL     1      -1.267   0.090  -2.636  0.00  0.00    +0.013 A 
ATOM      5  C   UNL     1      -1.891   0.147  -3.846  0.00  0.00    +0.024 A 
ATOM      6  C   UNL     1      -1.243  -0.309  -5.002  0.00  0.00    +0.030 A 
ATOM      7  C   UNL     1       0.046  -0.821  -4.902  0.00  0.00    -0.024 A 
ATOM      8  C   UNL     1       0.682  -0.877  -3.695  0.00  0.00    +0.017 A 
ATOM      9  C   UNL     1       0.504  -1.236  -6.283  0.00  0.00    +0.055 C 
ATOM     10  C   UNL     1      -0.685  -0.900  -7.198  0.00  0.00    +0.106 C 
ATOM     11  N   UNL     1      -1.705  -0.336  -6.311  0.00  0.00    -0.343 N 
ATOM     12  H   UNL     1      -2.578  -0.025  -6.597  0.00  0.00    +0.146 HD
ENDBRANCH   1   3
BRANCH   1  14
ATOM     13  C   UNL     1      -0.019   1.526   0.010  0.00  0.00    +0.032 C 
ATOM     14  C   UNL     1       0.002  -0.004   0.002  0.00  0.00    +0.125 C 
BRANCH  14  15
ATOM     15  N   UNL     1       0.713  -0.491   1.192  0.00  0.00    -0.290 NA
ATOM     16  C   UNL     1       0.842  -1.954   1.167  0.00  0.00    +0.104 C 
ATOM     17  C   UNL     1       1.740  -2.404   2.324  0.00  0.00    +0.123 C 
ATOM     18  N   UNL     1       1.203  -1.849   3.575  0.00  0.00    -0.302 N 
ATOM     19  C   UNL     1       0.918  -0.407   3.631  0.00  0.00    +0.123 C 
ATOM     20  C   UNL     1       0.052  -0.035   2.423  0.00  0.00    +0.104 C 
ATOM     21  C   UNL     1       0.979  -2.640   4.643  0.00  0.00    +0.328 C 
ATOM     22  O   UNL     1       0.536  -2.165   5.668  0.00  0.00    -0.279 OA
ENDBRANCH  14  15
ENDBRANCH   1  14
TORSDOF 3
