REMARK  Name = ZINC44198444
REMARK  5 active torsions:
REMARK  status: ('A' for Active; 'I' for Inactive)
REMARK    1  A    between atoms: C_2  and  N_12
REMARK    2  A    between atoms: C_4  and  C_10
REMARK    3  A    between atoms: C_5  and  O_9
REMARK    4  A    between atoms: C_6  and  C_7
REMARK    5  A    between atoms: C_7  and  O_8
REMARK                            x       y       z     vdW  Elec       q    Type
REMARK                         _______ _______ _______ _____ _____    ______ ____
ROOT
ATOM      1  C   UNL     1      -0.017   1.377   0.010  0.00  0.00    +0.042 A 
ATOM      2  C   UNL     1       1.171   2.086   0.002  0.00  0.00    +0.127 A 
ATOM      3  C   UNL     1       2.379   1.415  -0.013  0.00  0.00    +0.041 A 
ATOM      4  C   UNL     1       2.403   0.033  -0.021  0.00  0.00    +0.011 A 
ATOM      5  C   UNL     1       1.214  -0.680  -0.014  0.00  0.00    +0.127 A 
ATOM      6  C   UNL     1       0.002  -0.004   0.002  0.00  0.00    +0.022 A 
ENDROOT
BRANCH   2   7
ATOM      7  N   UNL     1       1.148   3.566   0.010  0.00  0.00    +0.056 N 
ATOM      8  O   UNL     1       0.091   4.154   0.023  0.00  0.00    -0.126 OA
ATOM      9  O   UNL     1       2.185   4.186   0.003  0.00  0.00    -0.126 OA
ENDBRANCH   2   7
BRANCH   5  10
ATOM     10  O   UNL     1       1.235  -2.039  -0.022  0.00  0.00    -0.506 OA
ATOM     11  H   UNL     1       1.250  -2.438   0.859  0.00  0.00    +0.292 HD
ENDBRANCH   5  10
BRANCH   4  12
ATOM     12  C   UNL     1       3.721  -0.698  -0.039  0.00  0.00    +0.147 C 
ATOM     13 CL   UNL     1       4.264  -0.999   1.654  0.00  0.00    -0.120 Cl
ENDBRANCH   4  12
BRANCH   6  14
ATOM     14  C   UNL     1      -1.292  -0.776   0.011  0.00  0.00    +0.194 C 
BRANCH  14  15
ATOM     15  O   UNL     1      -2.391   0.137   0.027  0.00  0.00    -0.390 OA
ATOM     16  H   UNL     1      -3.258  -0.291   0.033  0.00  0.00    +0.210 HD
ENDBRANCH  14  15
ENDBRANCH   6  14
TORSDOF 5
