REMARK  Name = ZINC37868930
REMARK  6 active torsions:
REMARK  status: ('A' for Active; 'I' for Inactive)
REMARK    1  A    between atoms: C_1  and  C_2
REMARK    2  A    between atoms: C_8  and  C_10
REMARK    3  A    between atoms: C_10  and  S_11
REMARK    4  A    between atoms: S_11  and  C_12
REMARK    5  A    between atoms: C_17  and  N_26
REMARK    6  A    between atoms: N_18  and  C_19
REMARK                            x       y       z     vdW  Elec       q    Type
REMARK                         _______ _______ _______ _____ _____    ______ ____
ROOT
ATOM      1  C   UNL     1      -6.257  -5.433  -0.116  0.00  0.00    +0.156 A 
ATOM      2  N   UNL     1      -5.575  -6.611  -0.098  0.00  0.00    -0.303 N 
ATOM      3  C   UNL     1      -6.240  -7.779   0.015  0.00  0.00    +0.254 A 
ATOM      4  O   UNL     1      -5.633  -8.838   0.031  0.00  0.00    -0.268 OA
ATOM      5  C   UNL     1      -7.636  -7.759   0.113  0.00  0.00    +0.112 A 
ATOM      6  C   UNL     1      -8.290  -6.538   0.091  0.00  0.00    +0.108 A 
ATOM      7  N   UNL     1      -7.578  -5.403  -0.018  0.00  0.00    -0.278 N 
ATOM      8  H   UNL     1      -4.607  -6.610  -0.167  0.00  0.00    +0.171 HD
ENDROOT
BRANCH   7   9
ATOM      9  C   UNL     1      -8.233  -4.189  -0.034  0.00  0.00    +0.050 A 
ATOM     10  C   UNL     1      -8.463  -3.503   1.157  0.00  0.00    +0.028 A 
ATOM     11  C   UNL     1      -9.119  -2.289   1.136  0.00  0.00    +0.022 A 
ATOM     12  C   UNL     1      -9.548  -1.752  -0.066  0.00  0.00    +0.041 A 
ATOM     13  C   UNL     1      -9.322  -2.430  -1.252  0.00  0.00    +0.022 A 
ATOM     14  C   UNL     1      -8.662  -3.642  -1.242  0.00  0.00    +0.028 A 
ATOM     15 CL   UNL     1     -10.373  -0.225  -0.085  0.00  0.00    -0.084 Cl
ENDBRANCH   7   9
BRANCH   6  16
ATOM     16  N   UNL     1      -9.666  -6.487   0.186  0.00  0.00    -0.344 N 
ATOM     17  H   UNL     1     -10.183  -7.308   0.179  0.00  0.00    +0.144 HD
ATOM     18  H   UNL     1     -10.116  -5.631   0.259  0.00  0.00    +0.144 HD
ENDBRANCH   6  16
BRANCH   1  19
ATOM     19  S   UNL     1      -5.367  -3.920  -0.265  0.00  0.00    -0.080 S 
BRANCH  19  20
ATOM     20  C   UNL     1      -3.632  -4.440  -0.367  0.00  0.00    +0.173 C 
BRANCH  20  28
ATOM     21  C   UNL     1       0.046   1.390  -0.959  0.00  0.00    +0.089 C 
ATOM     22  C   UNL     1       0.051  -0.115  -0.877  0.00  0.00    +0.136 A 
ATOM     23  C   UNL     1      -1.033  -0.901  -0.754  0.00  0.00    +0.091 A 
ATOM     24  C   UNL     1      -0.597  -2.245  -0.714  0.00  0.00    +0.168 A 
ATOM     25  N   UNL     1       0.708  -2.247  -0.812  0.00  0.00    -0.063 NA
ATOM     26  O   UNL     1       1.137  -0.902  -0.922  0.00  0.00    -0.358 OA
ATOM     27  N   UNL     1      -1.413  -3.370  -0.592  0.00  0.00    -0.267 N 
ATOM     28  C   UNL     1      -2.750  -3.225  -0.499  0.00  0.00    +0.229 C 
ATOM     29  O   UNL     1      -3.243  -2.118  -0.522  0.00  0.00    -0.275 OA
ATOM     30  H   UNL     1      -1.019  -4.256  -0.574  0.00  0.00    +0.156 HD
ENDBRANCH  20  28
ENDBRANCH  19  20
ENDBRANCH   1  19
TORSDOF 5
