REMARK  Name = ZINC40569568
REMARK  9 active torsions:
REMARK  status: ('A' for Active; 'I' for Inactive)
REMARK    1  A    between atoms: C_1  and  C_2
REMARK    2  A    between atoms: C_2  and  C_3
REMARK    3  A    between atoms: C_3  and  C_4
REMARK    4  A    between atoms: C_12  and  C_22
REMARK    5  A    between atoms: C_14  and  C_18
REMARK    6  A    between atoms: C_15  and  N_17
REMARK    7  A    between atoms: C_18  and  O_20
REMARK    8  A    between atoms: O_20  and  C_21
REMARK    9  A    between atoms: C_26  and  N_28
REMARK                            x       y       z     vdW  Elec       q    Type
REMARK                         _______ _______ _______ _____ _____    ______ ____
ROOT
ATOM      1  C   UNL     1       0.860  -2.058  -1.173  0.00  0.00    +0.023 A 
ATOM      2  C   UNL     1      -0.150  -2.683  -1.817  0.00  0.00    +0.068 A 
ATOM      3  C   UNL     1      -0.169  -4.091  -1.889  0.00  0.00    +0.141 A 
ATOM      4  C   UNL     1       0.851  -4.804  -1.296  0.00  0.00    +0.071 A 
ATOM      5  C   UNL     1       1.877  -4.113  -0.639  0.00  0.00    +0.257 A 
ATOM      6  O   UNL     1       2.787  -4.732  -0.109  0.00  0.00    -0.267 OA
ATOM      7  N   UNL     1       1.864  -2.768  -0.596  0.00  0.00    -0.326 N 
ATOM      8  H   UNL     1       2.581  -2.298  -0.142  0.00  0.00    +0.169 HD
ATOM      9  C   UNL     1       0.871  -6.307  -1.349  0.00  0.00    +0.100 C 
ATOM     10  C   UNL     1      -0.485  -6.830  -1.735  0.00  0.00    +0.105 C 
ATOM     11  C   UNL     1      -1.418  -6.018  -2.296  0.00  0.00    +0.195 C 
ATOM     12  O   UNL     1      -1.177  -4.718  -2.532  0.00  0.00    -0.441 OA
ENDROOT
BRANCH   9  13
ATOM     13  C   UNL     1       1.885  -6.757  -2.369  0.00  0.00    -0.033 A 
ATOM     14  C   UNL     1       1.755  -6.372  -3.690  0.00  0.00    +0.005 A 
ATOM     15  C   UNL     1       2.685  -6.784  -4.626  0.00  0.00    +0.003 A 
ATOM     16  C   UNL     1       3.746  -7.583  -4.240  0.00  0.00    +0.033 A 
ATOM     17  C   UNL     1       3.876  -7.968  -2.919  0.00  0.00    +0.126 A 
ATOM     18  C   UNL     1       2.948  -7.551  -1.983  0.00  0.00    +0.037 A 
BRANCH  17  19
ATOM     19  N   UNL     1       5.012  -8.823  -2.506  0.00  0.00    +0.056 N 
ATOM     20  O   UNL     1       5.825  -9.185  -3.325  0.00  0.00    -0.126 OA
ATOM     21  O   UNL     1       5.126  -9.160  -1.351  0.00  0.00    -0.126 OA
ENDBRANCH  17  19
ENDBRANCH   9  13
BRANCH  11  22
ATOM     22  N   UNL     1      -2.638  -6.540  -2.631  0.00  0.00    -0.329 N 
ATOM     23  H   UNL     1      -2.860  -7.452  -2.384  0.00  0.00    +0.145 HD
ATOM     24  H   UNL     1      -3.281  -5.999  -3.115  0.00  0.00    +0.145 HD
ENDBRANCH  11  22
BRANCH  10  25
ATOM     25  C   UNL     1      -0.792  -8.180  -1.511  0.00  0.00    +0.341 C 
ATOM     26  O   UNL     1      -1.089  -8.560  -0.393  0.00  0.00    -0.245 OA
BRANCH  25  27
ATOM     27  O   UNL     1      -0.759  -9.059  -2.536  0.00  0.00    -0.465 OA
ATOM     28  C   UNL     1      -1.083 -10.418  -2.237  0.00  0.00    +0.280 C 
ENDBRANCH  25  27
ENDBRANCH  10  25
BRANCH   1  29
ATOM     29  C   UNL     1       0.876  -0.553  -1.100  0.00  0.00    +0.053 C 
BRANCH  29  31
ATOM     30  C   UNL     1       0.262   1.428   0.293  0.00  0.00    +0.004 C 
ATOM     31  C   UNL     1       0.246  -0.100   0.219  0.00  0.00    +0.003 C 
ENDBRANCH  29  31
ENDBRANCH   1  29
TORSDOF 7
