REMARK  Name = ZINC26328043
REMARK  9 active torsions:
REMARK  status: ('A' for Active; 'I' for Inactive)
REMARK    1  A    between atoms: C_1  and  N_2
REMARK    2  A    between atoms: N_2  and  C_3
REMARK    3  A    between atoms: N_2  and  C_12
REMARK    4  A    between atoms: C_3  and  C_4
REMARK    5  A    between atoms: C_8  and  C_10
REMARK    6  A    between atoms: C_12  and  C_13
REMARK    7  A    between atoms: N_19  and  C_20
REMARK    8  A    between atoms: C_25  and  O_26
REMARK    9  A    between atoms: O_26  and  C_27
REMARK                            x       y       z     vdW  Elec       q    Type
REMARK                         _______ _______ _______ _____ _____    ______ ____
ROOT
ATOM      1  C   UNL     1       2.167  -0.160   1.127  0.00  0.00    +0.120 A 
ATOM      2  N   UNL     1       3.025  -0.963   0.522  0.00  0.00    -0.202 NA
ATOM      3  C   UNL     1       4.309  -0.622   0.433  0.00  0.00    +0.217 A 
ATOM      4  N   UNL     1       4.728   0.522   0.963  0.00  0.00    -0.181 NA
ATOM      5  C   UNL     1       3.863   1.324   1.575  0.00  0.00    +0.224 A 
ATOM      6  N   UNL     1       2.580   0.978   1.655  0.00  0.00    -0.201 NA
ATOM      7  N   UNL     1       4.294   2.514   2.127  0.00  0.00    -0.281 N 
ATOM      8  N   UNL     1       5.203  -1.457  -0.203  0.00  0.00    -0.327 N 
ATOM      9  H   UNL     1       3.564   3.222   2.547  0.00  0.00    +0.155 HD
ATOM     10  H   UNL     1       6.264  -1.175  -0.276  0.00  0.00    +0.145 HD
ATOM     11  H   UNL     1       4.856  -2.406  -0.638  0.00  0.00    +0.145 HD
ENDROOT
BRANCH   7  12
ATOM     12  C   UNL     1       5.661   2.820   2.151  0.00  0.00    +0.076 A 
ATOM     13  C   UNL     1       6.603   1.802   2.121  0.00  0.00    +0.027 A 
ATOM     14  C   UNL     1       7.950   2.107   2.141  0.00  0.00    +0.002 A 
ATOM     15  C   UNL     1       8.364   3.425   2.201  0.00  0.00    +0.004 A 
ATOM     16  C   UNL     1       7.431   4.445   2.236  0.00  0.00    +0.047 A 
ATOM     17  C   UNL     1       6.078   4.148   2.212  0.00  0.00    +0.141 A 
BRANCH  17  18
ATOM     18  O   UNL     1       5.160   5.150   2.247  0.00  0.00    -0.493 OA
ATOM     19  C   UNL     1       5.661   6.487   2.309  0.00  0.00    +0.277 C 
ENDBRANCH  17  18
ENDBRANCH   7  12
BRANCH   1  20
ATOM     20  C   UNL     1       0.713  -0.548   1.221  0.00  0.00    -0.001 C 
BRANCH  20  22
ATOM     21  C   UNL     1      -0.038   1.441   0.063  0.00  0.00    -0.095 C 
ATOM     22  N   UNL     1      -0.009  -0.028   0.052  0.00  0.00    +0.385 N 
ATOM     23  H   UNL     1       0.532  -0.349  -0.850  0.00  0.00    -0.081 HD
BRANCH  22  24
ATOM     24  C   UNL     1      -1.368  -0.580  -0.016  0.00  0.00    -0.043 C 
BRANCH  24  25
ATOM     25  C   UNL     1      -1.989  -0.224  -1.342  0.00  0.00    -0.063 A 
ATOM     26  C   UNL     1      -2.714   0.947  -1.473  0.00  0.00    +0.002 A 
ATOM     27  C   UNL     1      -3.283   1.284  -2.688  0.00  0.00    +0.001 A 
ATOM     28  C   UNL     1      -3.141   0.447  -3.776  0.00  0.00    +0.019 A 
ATOM     29  C   UNL     1      -2.416  -0.739  -3.649  0.00  0.00    +0.052 A 
ATOM     30  C   UNL     1      -1.839  -1.070  -2.421  0.00  0.00    +0.020 A 
BRANCH  29  31
ATOM     31  C   UNL     1      -2.264  -1.613  -4.774  0.00  0.00    +0.099 C 
ATOM     32  N   UNL     1      -2.144  -2.305  -5.666  0.00  0.00    -0.191 NA
ENDBRANCH  29  31
ENDBRANCH  24  25
ENDBRANCH  22  24
ENDBRANCH  20  22
ENDBRANCH   1  20
TORSDOF 7
