REMARK  Name = ZINC63695454
REMARK  5 active torsions:
REMARK  status: ('A' for Active; 'I' for Inactive)
REMARK    1  A    between atoms: C_5  and  N_12
REMARK    2  A    between atoms: C_15  and  C_18
REMARK    3  A    between atoms: N_20  and  C_21
REMARK    4  A    between atoms: C_21  and  C_22
REMARK    5  A    between atoms: C_22  and  C_23
REMARK                            x       y       z     vdW  Elec       q    Type
REMARK                         _______ _______ _______ _____ _____    ______ ____
ROOT
ATOM      1  N   UNL     1       5.365   0.781  -1.250  0.00  0.00    -0.266 NA
ATOM      2  C   UNL     1       4.532   0.759  -2.459  0.00  0.00    +0.089 C 
ATOM      3  C   UNL     1       5.427   0.633  -3.694  0.00  0.00    +0.028 C 
ATOM      4  C   UNL     1       6.395   1.818  -3.740  0.00  0.00    +0.077 C 
ATOM      5  C   UNL     1       7.217   1.847  -2.449  0.00  0.00    +0.028 C 
ATOM      6  C   UNL     1       6.270   1.938  -1.250  0.00  0.00    +0.089 C 
ENDROOT
BRANCH   1  11
ATOM      7  C   UNL     1      -0.017   1.404   0.010  0.00  0.00    +0.022 A 
ATOM      8  C   UNL     1       1.108   2.145   0.003  0.00  0.00    +0.029 A 
ATOM      9  C   UNL     1       2.417   1.477  -0.013  0.00  0.00    +0.061 A 
ATOM     10  N   UNL     1       3.639   1.925  -0.023  0.00  0.00    -0.351 N 
ATOM     11  C   UNL     1       4.535   0.762  -0.038  0.00  0.00    +0.252 C 
ATOM     12  N   UNL     1       3.672  -0.426  -0.036  0.00  0.00    -0.351 N 
ATOM     13  C   UNL     1       2.438  -0.012  -0.021  0.00  0.00    +0.063 A 
ATOM     14  C   UNL     1       1.149  -0.715  -0.012  0.00  0.00    +0.047 A 
ATOM     15  C   UNL     1       0.002  -0.004   0.002  0.00  0.00    +0.043 A 
ATOM     16 CL   UNL     1      -1.509  -0.859   0.012  0.00  0.00    -0.083 Cl
ATOM     17  H   UNL     1       3.908   2.857  -0.021  0.00  0.00    +0.163 HD
ATOM     18  H   UNL     1       3.968  -1.350  -0.044  0.00  0.00    +0.163 HD
ENDBRANCH   1  11
BRANCH   4  19
ATOM     19  C   UNL     1       7.319   1.668  -4.922  0.00  0.00    +0.216 C 
ATOM     20  O   UNL     1       7.214   0.708  -5.656  0.00  0.00    -0.276 OA
ATOM     21  N   UNL     1       8.261   2.601  -5.163  0.00  0.00    -0.315 N 
ATOM     22  H   UNL     1       8.345   3.369  -4.576  0.00  0.00    +0.149 HD
BRANCH  21  23
ATOM     23  C   UNL     1       9.159   2.456  -6.311  0.00  0.00    +0.108 C 
BRANCH  23  24
ATOM     24  C   UNL     1      10.126   3.640  -6.356  0.00  0.00    +0.049 C 
BRANCH  24  25
ATOM     25  C   UNL     1      11.049   3.491  -7.538  0.00  0.00    -0.072 C 
ATOM     26  C   UNL     1      10.732   4.096  -8.637  0.00  0.00    -0.028 C 
ATOM     27  C   UNL     1      11.545   4.033  -9.897  0.00  0.00    +0.027 C 
ATOM     28  C   UNL     1      12.959   3.535  -9.588  0.00  0.00    +0.004 C 
ATOM     29  C   UNL     1      12.850   2.266  -8.734  0.00  0.00    +0.005 C 
ATOM     30  C   UNL     1      12.283   2.653  -7.365  0.00  0.00    +0.030 C 
ENDBRANCH  24  25
ENDBRANCH  23  24
ENDBRANCH  21  23
ENDBRANCH   4  19
TORSDOF 5
