REMARK  Name = ZINC63161121
REMARK  6 active torsions:
REMARK  status: ('A' for Active; 'I' for Inactive)
REMARK    1  A    between atoms: C_7  and  C_10
REMARK    2  A    between atoms: C_10  and  C_11
REMARK    3  A    between atoms: N_15  and  C_19
REMARK    4  A    between atoms: C_19  and  C_20
REMARK    5  A    between atoms: N_22  and  C_23
REMARK    6  A    between atoms: C_25  and  C_34
REMARK                            x       y       z     vdW  Elec       q    Type
REMARK                         _______ _______ _______ _____ _____    ______ ____
ROOT
ATOM      1  C   UNL     1       0.457  -3.653  -1.462  0.00  0.00    +0.165 C 
ATOM      2  C   UNL     1      -0.542  -4.793  -1.496  0.00  0.00    +0.244 C 
ATOM      3  O   UNL     1      -1.698  -4.765  -1.132  0.00  0.00    -0.273 OA
ATOM      4  N   UNL     1       0.122  -5.844  -2.015  0.00  0.00    -0.216 N 
ATOM      5  C   UNL     1       1.388  -5.530  -2.312  0.00  0.00    +0.310 C 
ATOM      6  O   UNL     1       2.184  -6.314  -2.792  0.00  0.00    -0.252 OA
ATOM      7  N   UNL     1       1.684  -4.247  -2.020  0.00  0.00    -0.287 N 
ATOM      8  H   UNL     1       2.535  -3.802  -2.151  0.00  0.00    +0.151 HD
ENDROOT
BRANCH   1   9
ATOM      9  C   UNL     1       0.691  -3.186  -0.024  0.00  0.00    +0.065 C 
BRANCH   9  16
ATOM     10  C   UNL     1      -0.016   1.348   0.009  0.00  0.00    +0.001 A 
ATOM     11  C   UNL     1       1.166   2.101   0.002  0.00  0.00    +0.002 A 
ATOM     12  C   UNL     1       2.391   1.535  -0.013  0.00  0.00    +0.026 A 
ATOM     13  C   UNL     1       2.529   0.120  -0.022  0.00  0.00    +0.043 A 
ATOM     14  N   UNL     1       3.587  -0.654  -0.037  0.00  0.00    -0.380 N 
ATOM     15  C   UNL     1       3.143  -2.053  -0.041  0.00  0.00    +0.144 C 
ATOM     16  C   UNL     1       1.631  -2.008  -0.025  0.00  0.00    -0.039 C 
ATOM     17  C   UNL     1       1.295  -0.698  -0.014  0.00  0.00    -0.001 A 
ATOM     18  C   UNL     1       0.002  -0.004   0.002  0.00  0.00    +0.010 A 
ATOM     19  H   UNL     1       4.509  -0.353  -0.045  0.00  0.00    +0.160 HD
ENDBRANCH   9  16
ENDBRANCH   1   9
BRANCH   4  20
ATOM     20  C   UNL     1      -0.470  -7.167  -2.229  0.00  0.00    +0.213 C 
BRANCH  20  21
ATOM     21  C   UNL     1      -1.075  -7.230  -3.608  0.00  0.00    +0.232 C 
ATOM     22  O   UNL     1      -1.018  -6.265  -4.340  0.00  0.00    -0.274 OA
ATOM     23  N   UNL     1      -1.680  -8.359  -4.027  0.00  0.00    -0.301 N 
ATOM     24  H   UNL     1      -1.725  -9.131  -3.442  0.00  0.00    +0.150 HD
BRANCH  23  25
ATOM     25  C   UNL     1      -2.268  -8.420  -5.368  0.00  0.00    +0.151 C 
ATOM     26  C   UNL     1      -1.999  -9.785  -6.045  0.00  0.00    +0.132 C 
ATOM     27  C   UNL     1      -3.121 -10.761  -5.796  0.00  0.00    -0.046 C 
ATOM     28  C   UNL     1      -4.292 -10.267  -5.411  0.00  0.00    -0.013 C 
ATOM     29  S   UNL     1      -4.107  -8.500  -5.295  0.00  0.00    -0.106 S 
ATOM     30  C   UNL     1      -5.548 -11.039  -5.120  0.00  0.00    +0.042 C 
ATOM     31  C   UNL     1      -5.397 -12.458  -5.681  0.00  0.00    +0.005 C 
ATOM     32  C   UNL     1      -4.035 -13.010  -5.244  0.00  0.00    +0.005 C 
ATOM     33  C   UNL     1      -2.924 -12.264  -5.981  0.00  0.00    +0.032 C 
BRANCH  26  34
ATOM     34  C   UNL     1      -1.851  -9.577  -7.530  0.00  0.00    +0.220 C 
ATOM     35  O   UNL     1      -2.624 -10.111  -8.297  0.00  0.00    -0.275 OA
ATOM     36  N   UNL     1      -0.861  -8.797  -8.006  0.00  0.00    -0.329 N 
ATOM     37  H   UNL     1      -0.242  -8.370  -7.393  0.00  0.00    +0.145 HD
ATOM     38  H   UNL     1      -0.765  -8.663  -8.962  0.00  0.00    +0.145 HD
ENDBRANCH  26  34
ENDBRANCH  23  25
ENDBRANCH  20  21
ENDBRANCH   4  20
TORSDOF 6
