REMARK  Name = ZINC48927358
REMARK  10 active torsions:
REMARK  status: ('A' for Active; 'I' for Inactive)
REMARK    1  A    between atoms: C_1  and  C_2
REMARK    2  A    between atoms: C_2  and  C_22
REMARK    3  A    between atoms: N_7  and  C_8
REMARK    4  A    between atoms: C_8  and  C_9
REMARK    5  A    between atoms: C_9  and  C_11
REMARK    6  A    between atoms: C_9  and  N_21
REMARK    7  A    between atoms: C_13  and  O_19
REMARK    8  A    between atoms: C_16  and  O_17
REMARK    9  A    between atoms: O_17  and  C_18
REMARK   10  A    between atoms: O_19  and  C_20
REMARK                            x       y       z     vdW  Elec       q    Type
REMARK                         _______ _______ _______ _____ _____    ______ ____
ROOT
ATOM      1  C   UNL     1       2.881  -0.774   2.296  0.00  0.00    -0.026 C 
ENDROOT
BRANCH   1   2
ATOM      2  C   UNL     1       4.343  -0.415   2.212  0.00  0.00    -0.016 A 
ATOM      3  C   UNL     1       5.216  -1.233   1.521  0.00  0.00    +0.051 A 
ATOM      4  C   UNL     1       6.561  -0.902   1.443  0.00  0.00    +0.121 A 
ATOM      5  C   UNL     1       7.029   0.249   2.060  0.00  0.00    +0.049 A 
ATOM      6  C   UNL     1       6.155   1.066   2.751  0.00  0.00    +0.049 A 
ATOM      7  C   UNL     1       4.809   0.738   2.824  0.00  0.00    +0.122 A 
BRANCH   7   8
ATOM      8  O   UNL     1       3.949   1.545   3.500  0.00  0.00    -0.495 OA
ATOM      9  C   UNL     1       4.498   2.717   4.106  0.00  0.00    +0.277 C 
ENDBRANCH   7   8
BRANCH   4  10
ATOM     10  O   UNL     1       7.420  -1.707   0.763  0.00  0.00    -0.495 OA
ATOM     11  C   UNL     1       8.791  -1.305   0.724  0.00  0.00    +0.277 C 
ENDBRANCH   4  10
ENDBRANCH   1   2
BRANCH   1  12
ATOM     12  N   UNL     1       2.723  -2.226   2.134  0.00  0.00    +0.384 N 
ATOM     13  H   UNL     1       1.745  -2.466   2.190  0.00  0.00    -0.089 HD
ATOM     14  H   UNL     1       3.087  -2.505   1.235  0.00  0.00    -0.089 HD
ATOM     15  H   UNL     1       3.229  -2.703   2.865  0.00  0.00    -0.089 HD
ENDBRANCH   1  12
BRANCH   1  16
ATOM     16  C   UNL     1       2.114  -0.051   1.187  0.00  0.00    +0.073 C 
BRANCH  16  23
ATOM     17  C   UNL     1      -0.019   1.526   0.010  0.00  0.00    +0.030 C 
ATOM     18  C   UNL     1       0.002  -0.004   0.002  0.00  0.00    +0.040 C 
ATOM     19  C   UNL     1      -1.434  -0.535   0.018  0.00  0.00    +0.181 C 
ATOM     20  O   UNL     1      -2.072  -0.132   1.233  0.00  0.00    -0.377 OA
ATOM     21  C   UNL     1      -1.406  -0.590   2.413  0.00  0.00    +0.175 C 
ATOM     22  C   UNL     1       0.030  -0.060   2.421  0.00  0.00    +0.113 C 
ATOM     23  N   UNL     1       0.713  -0.492   1.193  0.00  0.00    -0.294 NA
ATOM     24  C   UNL     1       0.716  -0.498  -1.258  0.00  0.00    +0.030 C 
ENDBRANCH  16  23
ENDBRANCH   1  16
TORSDOF 6
