REMARK  Name = ZINC39777150
REMARK  7 active torsions:
REMARK  status: ('A' for Active; 'I' for Inactive)
REMARK    1  A    between atoms: C_1  and  C_2
REMARK    2  A    between atoms: N_4  and  C_30
REMARK    3  A    between atoms: C_7  and  N_14
REMARK    4  A    between atoms: C_9  and  C_11
REMARK    5  A    between atoms: C_11  and  C_13
REMARK    6  A    between atoms: C_15  and  C_17
REMARK    7  A    between atoms: C_19  and  O_29
REMARK                            x       y       z     vdW  Elec       q    Type
REMARK                         _______ _______ _______ _____ _____    ______ ____
ROOT
ATOM      1  N   UNL     1      -3.867   3.166  -1.907  0.00  0.00    -0.299 N 
ATOM      2  C   UNL     1      -4.992   3.358  -2.622  0.00  0.00    +0.233 C 
ATOM      3  O   UNL     1      -5.171   2.738  -3.649  0.00  0.00    -0.274 OA
ATOM      4  H   UNL     1      -3.723   3.662  -1.085  0.00  0.00    +0.150 HD
ENDROOT
BRANCH   2   5
ATOM      5  C   UNL     1      -6.028   4.344  -2.147  0.00  0.00    +0.226 C 
ATOM      6  C   UNL     1      -7.209   4.273  -3.096  0.00  0.00    +0.124 C 
ATOM      7  C   UNL     1      -7.576   5.455  -3.743  0.00  0.00    +0.035 A 
ATOM      8  C   UNL     1      -8.662   5.476  -4.641  0.00  0.00    +0.013 A 
ATOM      9  C   UNL     1      -9.000   6.642  -5.258  0.00  0.00    +0.001 A 
ATOM     10  C   UNL     1      -8.293   7.817  -5.021  0.00  0.00    +0.002 A 
ATOM     11  C   UNL     1      -7.235   7.857  -4.163  0.00  0.00    +0.024 A 
ATOM     12  C   UNL     1      -6.831   6.691  -3.491  0.00  0.00    +0.044 A 
ATOM     13  N   UNL     1      -5.790   6.734  -2.649  0.00  0.00    -0.284 N 
ATOM     14  C   UNL     1      -5.351   5.686  -1.983  0.00  0.00    +0.237 C 
ATOM     15  O   UNL     1      -4.398   5.798  -1.234  0.00  0.00    -0.274 OA
ATOM     16  H   UNL     1      -5.336   7.581  -2.523  0.00  0.00    +0.155 HD
BRANCH   6  17
ATOM     17  O   UNL     1      -7.869   3.128  -3.305  0.00  0.00    -0.509 OA
ATOM     18  H   UNL     1      -8.602   3.206  -3.930  0.00  0.00    +0.292 HD
ENDBRANCH   6  17
ENDBRANCH   2   5
BRANCH   1  25
ATOM     19  C   UNL     1      -0.018   1.036  -0.010  0.00  0.00    +0.062 C 
ATOM     20  C   UNL     1      -0.744   1.561  -1.221  0.00  0.00    +0.028 C 
ATOM     21  N   UNL     1      -0.038   1.892  -2.337  0.00  0.00    -0.266 N 
ATOM     22  N   UNL     1      -0.619   2.703  -3.318  0.00  0.00    -0.224 N 
ATOM     23  C   UNL     1      -1.950   2.884  -3.354  0.00  0.00    +0.256 C 
ATOM     24  O   UNL     1      -2.428   3.609  -4.200  0.00  0.00    -0.272 OA
ATOM     25  C   UNL     1      -2.860   2.208  -2.368  0.00  0.00    +0.196 C 
ATOM     26  C   UNL     1      -2.087   1.692  -1.188  0.00  0.00    +0.042 C 
ATOM     27  H   UNL     1       0.868   1.566  -2.451  0.00  0.00    +0.170 HD
ATOM     28  C   UNL     1       0.230   3.360  -4.315  0.00  0.00    +0.156 C 
BRANCH  26  29
ATOM     29  C   UNL     1      -2.779   1.343  -0.020  0.00  0.00    +0.160 C 
ATOM     30  O   UNL     1      -2.616   1.987   0.998  0.00  0.00    -0.293 OA
ATOM     31  C   UNL     1      -3.724   0.170  -0.026  0.00  0.00    +0.091 C 
ENDBRANCH  26  29
ENDBRANCH   1  25
TORSDOF 4
