REMARK  Name = ZINC42184594
REMARK  14 active torsions:
REMARK  status: ('A' for Active; 'I' for Inactive)
REMARK    1  A    between atoms: C_1  and  C_2
REMARK    2  A    between atoms: C_2  and  C_3
REMARK    3  A    between atoms: C_3  and  C_4
REMARK    4  A    between atoms: C_4  and  N_5
REMARK    5  A    between atoms: C_9  and  C_11
REMARK    6  A    between atoms: C_11  and  C_13
REMARK    7  A    between atoms: C_11  and  N_14
REMARK    8  A    between atoms: N_14  and  C_15
REMARK    9  A    between atoms: C_15  and  C_17
REMARK   10  A    between atoms: C_15  and  C_18
REMARK   11  A    between atoms: C_21  and  O_26
REMARK   12  A    between atoms: C_23  and  O_24
REMARK   13  A    between atoms: O_24  and  C_25
REMARK   14  A    between atoms: O_26  and  C_27
REMARK                            x       y       z     vdW  Elec       q    Type
REMARK                         _______ _______ _______ _____ _____    ______ ____
ROOT
ATOM      1  N   UNL     1      -5.851  -7.658  -0.042  0.00  0.00    +0.391 N 
ATOM      2  H   UNL     1      -5.265  -7.999  -0.790  0.00  0.00    -0.084 HD
ATOM      3  H   UNL     1      -5.483  -7.973   0.843  0.00  0.00    -0.084 HD
ENDROOT
BRANCH   1   4
ATOM      4  C   UNL     1      -5.874  -6.189  -0.068  0.00  0.00    +0.014 C 
ATOM      5  C   UNL     1      -6.641  -5.670   1.150  0.00  0.00    -0.004 C 
BRANCH   4  10
ATOM      6  N   UNL     1      -2.747  -2.538  -0.034  0.00  0.00    -0.299 N 
ATOM      7  C   UNL     1      -2.973  -3.866  -0.018  0.00  0.00    +0.306 C 
ATOM      8  O   UNL     1      -2.037  -4.641   0.023  0.00  0.00    -0.252 OA
ATOM      9  N   UNL     1      -4.236  -4.336  -0.049  0.00  0.00    -0.242 N 
ATOM     10  C   UNL     1      -4.461  -5.665  -0.033  0.00  0.00    +0.206 C 
ATOM     11  O   UNL     1      -3.528  -6.438   0.008  0.00  0.00    -0.277 OA
ATOM     12  H   UNL     1      -3.494  -1.919  -0.068  0.00  0.00    +0.150 HD
ATOM     13  H   UNL     1      -4.982  -3.718  -0.083  0.00  0.00    +0.159 HD
BRANCH   6  14
ATOM     14  C   UNL     1      -1.374  -2.027  -0.001  0.00  0.00    +0.106 C 
BRANCH  14  15
ATOM     15  C   UNL     1      -1.398  -0.498  -0.027  0.00  0.00    +0.018 C 
BRANCH  15  17
ATOM     16  C   UNL     1       0.012   1.565  -0.019  0.00  0.00    +0.004 C 
ATOM     17  C   UNL     1       0.036   0.035   0.007  0.00  0.00    -0.002 C 
ENDBRANCH  15  17
ENDBRANCH  14  15
ENDBRANCH   6  14
ENDBRANCH   4  10
ENDBRANCH   1   4
BRANCH   1  18
ATOM     18  C   UNL     1      -7.216  -8.172  -0.216  0.00  0.00    -0.039 C 
ATOM     19  C   UNL     1      -7.215  -9.692  -0.043  0.00  0.00    -0.009 C 
BRANCH  18  20
ATOM     20  C   UNL     1      -7.712  -7.824  -1.596  0.00  0.00    -0.020 A 
ATOM     21  C   UNL     1      -6.809  -7.614  -2.621  0.00  0.00    +0.009 A 
ATOM     22  C   UNL     1      -7.261  -7.295  -3.888  0.00  0.00    +0.046 A 
ATOM     23  C   UNL     1      -8.622  -7.184  -4.133  0.00  0.00    +0.124 A 
ATOM     24  C   UNL     1      -9.529  -7.393  -3.106  0.00  0.00    +0.091 A 
ATOM     25  C   UNL     1      -9.074  -7.719  -1.837  0.00  0.00    +0.125 A 
BRANCH  25  26
ATOM     26  O   UNL     1      -9.961  -7.932  -0.830  0.00  0.00    -0.495 OA
ATOM     27  C   UNL     1     -11.348  -7.807  -1.150  0.00  0.00    +0.277 C 
ENDBRANCH  25  26
BRANCH  23  28
ATOM     28  O   UNL     1      -9.065  -6.869  -5.378  0.00  0.00    -0.495 OA
ATOM     29  C   UNL     1      -8.074  -6.666  -6.387  0.00  0.00    +0.277 C 
ENDBRANCH  23  28
ENDBRANCH  18  20
ENDBRANCH   1  18
TORSDOF 9
