REMARK  Name = ZINC05845533
REMARK  4 active torsions:
REMARK  status: ('A' for Active; 'I' for Inactive)
REMARK    1  A    between atoms: C_1  and  N_47
REMARK    2  A    between atoms: C_5  and  C_8
REMARK    3  A    between atoms: C_8  and  N_49
REMARK    4  A    between atoms: C_9  and  N_49
REMARK                            x       y       z     vdW  Elec       q    Type
REMARK                         _______ _______ _______ _____ _____    ______ ____
ROOT
ATOM      1  N   UNL     1      -3.608   3.563   1.264  0.00  0.00    +0.381 N 
ATOM      2  H   UNL     1      -3.397   2.926   2.042  0.00  0.00    -0.085 HD
ATOM      3  H   UNL     1      -3.272   4.506   1.494  0.00  0.00    -0.085 HD
ENDROOT
BRANCH   1   4
ATOM      4  C   UNL     1      -2.925   3.086   0.047  0.00  0.00    -0.065 C 
ATOM      5  C   UNL     1      -1.490   3.616   0.036  0.00  0.00    -0.024 C 
ATOM      6  C   UNL     1      -0.773   3.123  -1.223  0.00  0.00    +0.005 C 
ATOM      7  C   UNL     1      -0.753   1.593  -1.232  0.00  0.00    -0.010 C 
ATOM      8  C   UNL     1      -0.013   1.086   0.008  0.00  0.00    +0.007 C 
ATOM      9  C   UNL     1      -0.729   1.579   1.267  0.00  0.00    -0.010 C 
ATOM     10  C   UNL     1      -0.750   3.109   1.275  0.00  0.00    +0.005 C 
ATOM     11  C   UNL     1      -2.164   1.050   1.278  0.00  0.00    +0.005 C 
ATOM     12  C   UNL     1      -2.904   1.556   0.038  0.00  0.00    -0.024 C 
ATOM     13  C   UNL     1      -2.188   1.063  -1.221  0.00  0.00    +0.005 C 
ENDBRANCH   1   4
BRANCH   1  14
ATOM     14  C   UNL     1      -5.067   3.604   1.050  0.00  0.00    -0.081 C 
BRANCH  14  19
ATOM     15  C   UNL     1      -5.896   2.671   5.808  0.00  0.00    -0.096 C 
ATOM     16  C   UNL     1      -7.648   3.670   4.469  0.00  0.00    -0.079 C 
ATOM     17  C   UNL     1      -7.930   4.703   3.376  0.00  0.00    -0.018 C 
ATOM     18  C   UNL     1      -7.248   4.265   2.077  0.00  0.00    -0.002 C 
ATOM     19  C   UNL     1      -5.747   4.101   2.328  0.00  0.00    -0.045 C 
ATOM     20  C   UNL     1      -5.529   3.085   3.451  0.00  0.00    -0.078 C 
ATOM     21  N   UNL     1      -6.188   3.578   4.679  0.00  0.00    +0.378 N 
ATOM     22  H   UNL     1      -5.824   4.513   4.900  0.00  0.00    -0.082 HD
ENDBRANCH  14  19
ENDBRANCH   1  14
TORSDOF 3
