REMARK  Name = ZINC49737893
REMARK  10 active torsions:
REMARK  status: ('A' for Active; 'I' for Inactive)
REMARK    1  A    between atoms: C_1  and  C_2
REMARK    2  A    between atoms: C_2  and  C_3
REMARK    3  A    between atoms: C_2  and  C_4
REMARK    4  A    between atoms: C_4  and  C_5
REMARK    5  A    between atoms: C_5  and  C_7
REMARK    6  A    between atoms: C_5  and  N_24
REMARK    7  A    between atoms: C_7  and  N_8
REMARK    8  A    between atoms: N_8  and  S_9
REMARK    9  A    between atoms: S_9  and  C_12
REMARK   10  A    between atoms: N_27  and  C_30
REMARK                            x       y       z     vdW  Elec       q    Type
REMARK                         _______ _______ _______ _____ _____    ______ ____
ROOT
ATOM      1  N   UNL     1       2.843  -2.247  -2.455  0.00  0.00    -0.188 NA
ATOM      2  H   UNL     1       2.722  -2.739  -1.628  0.00  0.00    +0.148 HD
ENDROOT
BRANCH   1   3
ATOM      3  S   UNL     1       3.134  -3.063  -3.867  0.00  0.00    +0.059 S 
ATOM      4  O   UNL     1       3.173  -4.444  -3.537  0.00  0.00    -0.153 OA
ATOM      5  O   UNL     1       2.236  -2.535  -4.833  0.00  0.00    -0.153 OA
BRANCH   3   6
ATOM      6  C   UNL     1       4.757  -2.626  -4.397  0.00  0.00    +0.107 A 
ATOM      7  C   UNL     1       4.940  -1.531  -5.224  0.00  0.00    +0.030 A 
ATOM      8  C   UNL     1       6.208  -1.180  -5.644  0.00  0.00    +0.030 A 
ATOM      9  C   UNL     1       7.302  -1.928  -5.236  0.00  0.00    +0.067 A 
ATOM     10  C   UNL     1       7.117  -3.032  -4.401  0.00  0.00    +0.069 A 
ATOM     11  C   UNL     1       5.841  -3.373  -3.980  0.00  0.00    +0.056 A 
ATOM     12  N   UNL     1       8.378  -3.574  -4.165  0.00  0.00    -0.306 N 
ATOM     13  H   UNL     1       8.568  -4.352  -3.618  0.00  0.00    +0.170 HD
ATOM     14  C   UNL     1       9.289  -2.834  -4.825  0.00  0.00    +0.325 A 
ATOM     15  O   UNL     1      10.488  -3.038  -4.829  0.00  0.00    -0.247 OA
ATOM     16  N   UNL     1       8.670  -1.833  -5.480  0.00  0.00    -0.306 N 
ATOM     17  H   UNL     1       9.103  -1.161  -6.029  0.00  0.00    +0.170 HD
ENDBRANCH   3   6
ENDBRANCH   1   3
BRANCH   1  18
ATOM     18  C   UNL     1       2.770  -0.784  -2.457  0.00  0.00    +0.124 C 
BRANCH  18  19
ATOM     19  C   UNL     1       2.079  -0.307  -1.177  0.00  0.00    +0.072 C 
BRANCH  19  20
ATOM     20  N   UNL     1       2.121   1.160  -1.116  0.00  0.00    -0.302 NA
ATOM     21  C   UNL     1       1.569   1.754  -2.342  0.00  0.00    +0.066 C 
ATOM     22  C   UNL     1       1.576   3.279  -2.214  0.00  0.00    -0.064 C 
ATOM     23  N   UNL     1       2.951   3.747  -1.999  0.00  0.00    +0.379 N 
ATOM     24  C   UNL     1       3.480   3.164  -0.758  0.00  0.00    -0.064 C 
ATOM     25  C   UNL     1       3.489   1.638  -0.874  0.00  0.00    +0.066 C 
ATOM     26  C   UNL     1       2.959   5.212  -1.894  0.00  0.00    -0.096 C 
ATOM     27  H   UNL     1       3.529   3.462  -2.776  0.00  0.00    -0.082 HD
ENDBRANCH  19  20
BRANCH  19  28
ATOM     28  C   UNL     1       0.623  -0.777  -1.178  0.00  0.00    +0.023 C 
BRANCH  28  30
ATOM     29  C   UNL     1      -1.535  -0.711   0.079  0.00  0.00    +0.007 C 
ATOM     30  C   UNL     1      -0.045  -0.368   0.136  0.00  0.00    -0.016 C 
ATOM     31  C   UNL     1       0.607  -1.123   1.296  0.00  0.00    +0.007 C 
ENDBRANCH  28  30
ENDBRANCH  19  28
ENDBRANCH  18  19
ENDBRANCH   1  18
TORSDOF 7
