REMARK  Name = ZINC37820860
REMARK  3 active torsions:
REMARK  status: ('A' for Active; 'I' for Inactive)
REMARK    1  A    between atoms: C_5  and  C_8
REMARK    2  A    between atoms: C_14  and  C_17
REMARK    3  A    between atoms: C_17  and  N_18
REMARK                            x       y       z     vdW  Elec       q    Type
REMARK                         _______ _______ _______ _____ _____    ______ ____
ROOT
ATOM      1  C   UNL     1       0.808  -1.998  -1.231  0.00  0.00    +0.202 C 
ATOM      2  O   UNL     1       1.867  -2.588  -1.283  0.00  0.00    -0.277 OA
ATOM      3  N   UNL     1      -0.347  -2.690  -1.183  0.00  0.00    -0.303 N 
ATOM      4  C   UNL     1      -1.640  -1.993  -1.235  0.00  0.00    +0.108 C 
ATOM      5  C   UNL     1      -2.485  -2.431  -0.035  0.00  0.00    +0.019 C 
ATOM      6  C   UNL     1      -2.594  -3.958  -0.022  0.00  0.00    +0.008 C 
ATOM      7  C   UNL     1      -1.198  -4.569   0.121  0.00  0.00    +0.024 C 
ATOM      8  C   UNL     1      -0.339  -4.156  -1.083  0.00  0.00    +0.112 C 
ENDROOT
BRANCH   1  13
ATOM      9  C   UNL     1       0.575   1.535   0.223  0.00  0.00    -0.003 C 
ATOM     10  C   UNL     1       1.869   2.058  -0.406  0.00  0.00    -0.019 C 
ATOM     11  C   UNL     1       2.010   1.486  -1.819  0.00  0.00    -0.082 C 
ATOM     12  N   UNL     1       2.052   0.021  -1.755  0.00  0.00    +0.387 N 
ATOM     13  C   UNL     1       0.785  -0.491  -1.220  0.00  0.00    +0.016 C 
ATOM     14  C   UNL     1       0.597   0.004   0.216  0.00  0.00    -0.007 C 
ATOM     15  H   UNL     1       2.199  -0.351  -2.682  0.00  0.00    -0.085 HD
ATOM     16  H   UNL     1       2.811  -0.268  -1.156  0.00  0.00    -0.085 HD
ENDBRANCH   1  13
BRANCH   7  17
ATOM     17  C   UNL     1      -1.311  -6.094   0.167  0.00  0.00    +0.110 C 
BRANCH  17  18
ATOM     18  N   UNL     1      -2.035  -6.494   1.376  0.00  0.00    -0.299 N 
ATOM     19  C   UNL     1      -2.256  -7.799   1.629  0.00  0.00    +0.297 C 
ATOM     20  O   UNL     1      -1.854  -8.645   0.854  0.00  0.00    -0.253 OA
ATOM     21  N   UNL     1      -2.922  -8.167   2.742  0.00  0.00    -0.313 N 
ATOM     22  H   UNL     1      -2.356  -5.819   1.995  0.00  0.00    +0.150 HD
ATOM     23  H   UNL     1      -3.242  -7.492   3.361  0.00  0.00    +0.146 HD
ATOM     24  H   UNL     1      -3.080  -9.106   2.924  0.00  0.00    +0.146 HD
ENDBRANCH  17  18
ENDBRANCH   7  17
TORSDOF 3
