REMARK  Name = ZINC64938990
REMARK  10 active torsions:
REMARK  status: ('A' for Active; 'I' for Inactive)
REMARK    1  A    between atoms: C_1  and  C_2
REMARK    2  A    between atoms: C_4  and  N_21
REMARK    3  A    between atoms: C_7  and  S_8
REMARK    4  A    between atoms: S_8  and  N_11
REMARK    5  A    between atoms: N_11  and  N_12
REMARK    6  A    between atoms: N_15  and  C_16
REMARK    7  A    between atoms: C_16  and  C_17
REMARK    8  A    between atoms: C_17  and  C_18
REMARK    9  A    between atoms: C_18  and  C_19
REMARK   10  A    between atoms: C_18  and  C_20
REMARK                            x       y       z     vdW  Elec       q    Type
REMARK                         _______ _______ _______ _____ _____    ______ ____
ROOT
ATOM      1  S   UNL     1      -0.054  -0.063   2.732  0.00  0.00    +0.074 S 
ATOM      2  O   UNL     1      -1.266   0.678   2.779  0.00  0.00    -0.152 OA
ATOM      3  O   UNL     1       0.218  -1.135   3.624  0.00  0.00    -0.152 OA
ENDROOT
BRANCH   1  10
ATOM      4  C   UNL     1       2.264  -1.739   1.749  0.00  0.00    +0.046 C 
ATOM      5  C   UNL     1       1.172  -1.476   0.744  0.00  0.00    -0.022 A 
ATOM      6  C   UNL     1       1.268  -1.996  -0.533  0.00  0.00    +0.038 A 
ATOM      7  C   UNL     1       0.266  -1.755  -1.454  0.00  0.00    +0.127 A 
ATOM      8  C   UNL     1      -0.832  -0.994  -1.098  0.00  0.00    +0.034 A 
ATOM      9  C   UNL     1      -0.929  -0.475   0.179  0.00  0.00    +0.031 A 
ATOM     10  C   UNL     1       0.071  -0.720   1.102  0.00  0.00    +0.110 A 
BRANCH   7  11
ATOM     11  N   UNL     1       0.369  -2.311  -2.822  0.00  0.00    +0.056 N 
ATOM     12  O   UNL     1       1.330  -2.975  -3.134  0.00  0.00    -0.126 OA
ATOM     13  O   UNL     1      -0.507  -2.100  -3.628  0.00  0.00    -0.126 OA
ENDBRANCH   7  11
ENDBRANCH   1  10
BRANCH   1  14
ATOM     14  N   UNL     1       1.176   1.029   2.916  0.00  0.00    -0.107 NA
ATOM     15  H   UNL     1       1.835   0.904   3.617  0.00  0.00    +0.172 HD
BRANCH  14  16
ATOM     16  N   UNL     1       1.266   2.135   2.060  0.00  0.00    -0.216 N 
ATOM     17  C   UNL     1       1.315   3.381   2.571  0.00  0.00    +0.315 C 
ATOM     18  O   UNL     1       1.392   4.340   1.828  0.00  0.00    -0.251 OA
ATOM     19  N   UNL     1       1.277   3.564   3.906  0.00  0.00    -0.298 N 
ATOM     20  H   UNL     1       1.293   2.003   1.099  0.00  0.00    +0.172 HD
ATOM     21  H   UNL     1       1.215   2.799   4.499  0.00  0.00    +0.150 HD
BRANCH  19  22
ATOM     22  C   UNL     1       1.330   4.918   4.461  0.00  0.00    +0.106 C 
BRANCH  22  23
ATOM     23  C   UNL     1       1.272   4.846   5.988  0.00  0.00    +0.022 C 
BRANCH  23  24
ATOM     24  C   UNL     1       1.327   6.261   6.568  0.00  0.00    -0.016 C 
ATOM     25  C   UNL     1       1.143   6.197   8.086  0.00  0.00    +0.007 C 
ATOM     26  C   UNL     1       2.682   6.892   6.244  0.00  0.00    +0.007 C 
ENDBRANCH  23  24
ENDBRANCH  22  23
ENDBRANCH  19  22
ENDBRANCH  14  16
ENDBRANCH   1  14
TORSDOF 7
