REMARK  Name = ZINC16115336
REMARK  8 active torsions:
REMARK  status: ('A' for Active; 'I' for Inactive)
REMARK    1  A    between atoms: C_1  and  C_2
REMARK    2  A    between atoms: C_3  and  C_7
REMARK    3  A    between atoms: C_9  and  C_32
REMARK    4  A    between atoms: C_10  and  N_31
REMARK    5  A    between atoms: N_11  and  C_21
REMARK    6  A    between atoms: C_17  and  C_19
REMARK    7  A    between atoms: C_17  and  C_20
REMARK    8  A    between atoms: C_24  and  N_28
REMARK                            x       y       z     vdW  Elec       q    Type
REMARK                         _______ _______ _______ _____ _____    ______ ____
ROOT
ATOM      1  C   UNL     1      -0.405  -4.209  -0.758  0.00  0.00    +0.098 C 
ATOM      2  C   UNL     1      -1.308  -4.806   0.281  0.00  0.00    +0.077 C 
ATOM      3  C   UNL     1      -2.269  -4.062   0.886  0.00  0.00    +0.107 C 
ATOM      4  N   UNL     1      -2.426  -2.735   0.556  0.00  0.00    -0.259 N 
ATOM      5  C   UNL     1      -1.411  -2.046  -0.055  0.00  0.00    +0.025 C 
ATOM      6  C   UNL     1      -0.418  -2.703  -0.690  0.00  0.00    +0.025 C 
ATOM      7  C   UNL     1       0.637  -2.005  -1.304  0.00  0.00    +0.162 C 
ATOM      8  O   UNL     1       1.510  -2.626  -1.877  0.00  0.00    -0.292 OA
ATOM      9  C   UNL     1       0.710  -0.502  -1.262  0.00  0.00    +0.086 C 
ATOM     10  C   UNL     1       0.002  -0.004   0.002  0.00  0.00    -0.023 C 
ATOM     11  C   UNL     1      -1.432  -0.538   0.003  0.00  0.00    +0.058 C 
ATOM     12  C   UNL     1      -0.019   1.526   0.010  0.00  0.00    +0.011 C 
ATOM     13  C   UNL     1       0.741  -0.515   1.240  0.00  0.00    +0.011 C 
ENDROOT
BRANCH   4  14
ATOM     14  C   UNL     1      -3.631  -2.084   0.847  0.00  0.00    +0.058 A 
ATOM     15  C   UNL     1      -4.659  -2.073  -0.086  0.00  0.00    +0.027 A 
ATOM     16  C   UNL     1      -5.848  -1.435   0.206  0.00  0.00    +0.034 A 
ATOM     17  C   UNL     1      -6.012  -0.797   1.422  0.00  0.00    +0.128 A 
ATOM     18  C   UNL     1      -4.989  -0.800   2.352  0.00  0.00    +0.054 A 
ATOM     19  C   UNL     1      -3.798  -1.441   2.068  0.00  0.00    +0.065 A 
ATOM     20 CL   UNL     1      -2.513  -1.445   3.235  0.00  0.00    -0.082 Cl
BRANCH  17  21
ATOM     21  N   UNL     1      -7.287  -0.109   1.729  0.00  0.00    +0.056 N 
ATOM     22  O   UNL     1      -7.432   0.454   2.799  0.00  0.00    -0.126 OA
ATOM     23  O   UNL     1      -8.189  -0.105   0.911  0.00  0.00    -0.126 OA
ENDBRANCH  17  21
ENDBRANCH   4  14
BRANCH   1  26
ATOM     24  C   UNL     1       1.372  -5.803  -2.692  0.00  0.00    +0.052 C 
ATOM     25  C   UNL     1      -0.044  -5.347  -2.939  0.00  0.00    -0.009 A 
ATOM     26  C   UNL     1      -0.869  -4.645  -2.124  0.00  0.00    -0.025 A 
ATOM     27  C   UNL     1      -2.139  -4.330  -2.567  0.00  0.00    +0.012 A 
ATOM     28  C   UNL     1      -2.525  -4.737  -3.801  0.00  0.00    +0.046 A 
ATOM     29  S   UNL     1      -1.069  -5.595  -4.379  0.00  0.00    -0.102 S 
ENDBRANCH   1  26
BRANCH   3  30
ATOM     30  N   UNL     1      -3.089  -4.635   1.829  0.00  0.00    -0.345 N 
ATOM     31  H   UNL     1      -3.776  -4.104   2.261  0.00  0.00    +0.144 HD
ATOM     32  H   UNL     1      -2.979  -5.570   2.063  0.00  0.00    +0.144 HD
ENDBRANCH   3  30
BRANCH   2  33
ATOM     33  C   UNL     1      -1.152  -6.183   0.642  0.00  0.00    +0.099 C 
ATOM     34  N   UNL     1      -1.029  -7.276   0.929  0.00  0.00    -0.191 NA
ENDBRANCH   2  33
TORSDOF 5
