REMARK  Name = ZINC39596871
REMARK  6 active torsions:
REMARK  status: ('A' for Active; 'I' for Inactive)
REMARK    1  A    between atoms: C_1  and  C_2
REMARK    2  A    between atoms: C_2  and  C_4
REMARK    3  A    between atoms: C_2  and  N_10
REMARK    4  A    between atoms: C_11  and  C_13
REMARK    5  A    between atoms: C_24  and  C_26
REMARK    6  A    between atoms: N_30  and  C_31
REMARK                            x       y       z     vdW  Elec       q    Type
REMARK                         _______ _______ _______ _____ _____    ______ ____
ROOT
ATOM      1  C   UNL     1      -4.264  -1.473  -0.562  0.00  0.00    +0.100 C 
ATOM      2  C   UNL     1      -5.080  -0.329   0.080  0.00  0.00    +0.121 C 
ATOM      3  N   UNL     1      -5.309   0.632  -1.024  0.00  0.00    -0.295 N 
ATOM      4  C   UNL     1      -5.576  -0.221  -2.207  0.00  0.00    +0.115 C 
ATOM      5  C   UNL     1      -4.595  -1.401  -2.062  0.00  0.00    -0.004 C 
ATOM      6  C   UNL     1      -5.256  -2.698  -2.520  0.00  0.00    -0.010 C 
ATOM      7  C   UNL     1      -5.522  -2.626  -4.026  0.00  0.00    -0.082 C 
ATOM      8  N   UNL     1      -4.256  -2.420  -4.739  0.00  0.00    +0.379 N 
ATOM      9  C   UNL     1      -3.673  -1.127  -4.362  0.00  0.00    -0.082 C 
ATOM     10  C   UNL     1      -3.328  -1.136  -2.870  0.00  0.00    -0.010 C 
ATOM     11  C   UNL     1      -5.282   1.979  -0.967  0.00  0.00    +0.263 C 
ATOM     12  O   UNL     1      -5.677   2.636  -1.911  0.00  0.00    -0.268 OA
ATOM     13  H   UNL     1      -3.613  -3.160  -4.500  0.00  0.00    -0.086 HD
ATOM     14  H   UNL     1      -4.426  -2.434  -5.734  0.00  0.00    -0.086 HD
ENDROOT
BRANCH  11  15
ATOM     15  C   UNL     1      -4.776   2.651   0.235  0.00  0.00    +0.104 A 
ATOM     16  C   UNL     1      -3.988   2.086   1.214  0.00  0.00    +0.032 A 
ATOM     17  C   UNL     1      -3.741   3.079   2.167  0.00  0.00    +0.020 A 
ATOM     18  C   UNL     1      -4.369   4.208   1.762  0.00  0.00    +0.086 A 
ATOM     19  N   UNL     1      -4.997   3.963   0.586  0.00  0.00    -0.346 N 
ATOM     20  C   UNL     1      -5.783   4.933  -0.181  0.00  0.00    +0.149 C 
ENDBRANCH  11  15
BRANCH   1  22
ATOM     21  N   UNL     1      -1.960  -2.312  -0.231  0.00  0.00    -0.308 N 
ATOM     22  C   UNL     1      -2.789  -1.255  -0.339  0.00  0.00    +0.219 C 
ATOM     23  O   UNL     1      -2.349  -0.128  -0.256  0.00  0.00    -0.275 OA
ATOM     24  H   UNL     1      -2.312  -3.213  -0.298  0.00  0.00    +0.149 HD
BRANCH  21  26
ATOM     25  C   UNL     1      -0.258  -1.923   1.482  0.00  0.00    +0.033 C 
ATOM     26  C   UNL     1      -0.527  -2.099  -0.014  0.00  0.00    +0.100 C 
BRANCH  26  27
ATOM     27  C   UNL     1       0.240  -3.291  -0.526  0.00  0.00    -0.027 A 
ATOM     28  C   UNL     1      -0.252  -4.567  -0.327  0.00  0.00    +0.005 A 
ATOM     29  C   UNL     1       0.452  -5.661  -0.796  0.00  0.00    +0.000 A 
ATOM     30  C   UNL     1       1.648  -5.478  -1.464  0.00  0.00    +0.000 A 
ATOM     31  C   UNL     1       2.140  -4.202  -1.663  0.00  0.00    +0.000 A 
ATOM     32  C   UNL     1       1.434  -3.108  -1.198  0.00  0.00    +0.005 A 
ENDBRANCH  26  27
ENDBRANCH  21  26
ENDBRANCH   1  22
TORSDOF 4
