REMARK  Name = ZINC42169843
REMARK  5 active torsions:
REMARK  status: ('A' for Active; 'I' for Inactive)
REMARK    1  A    between atoms: C_1  and  N_2
REMARK    2  A    between atoms: N_2  and  C_3
REMARK    3  A    between atoms: C_3  and  C_4
REMARK    4  A    between atoms: C_10  and  C_12
REMARK    5  A    between atoms: C_12  and  C_13
REMARK                            x       y       z     vdW  Elec       q    Type
REMARK                         _______ _______ _______ _____ _____    ______ ____
ROOT
ATOM      1  C   UNL     1      -0.018   1.461   0.010  0.00  0.00    +0.132 C 
ATOM      2  N   UNL     1       0.002  -0.004   0.002  0.00  0.00    -0.297 N 
ATOM      3  C   UNL     1       0.000  -0.672  -1.169  0.00  0.00    +0.214 C 
ATOM      4  O   UNL     1       0.017  -1.884  -1.175  0.00  0.00    -0.276 OA
ENDROOT
BRANCH   2   5
ATOM      5  C   UNL     1       0.024  -0.743   1.267  0.00  0.00    +0.181 C 
BRANCH   5   6
ATOM      6  C   UNL     1      -1.389  -1.016   1.714  0.00  0.00    +0.124 A 
ATOM      7  C   UNL     1      -2.117  -2.103   1.401  0.00  0.00    +0.047 A 
ATOM      8  C   UNL     1      -3.375  -1.948   2.027  0.00  0.00    +0.057 A 
ATOM      9  C   UNL     1      -3.340  -0.775   2.686  0.00  0.00    +0.170 A 
ATOM     10  O   UNL     1      -2.133  -0.218   2.497  0.00  0.00    -0.452 OA
ATOM     11 BR   UNL     1      -4.750  -0.039   3.710  0.00  0.00    -0.008 Br
ENDBRANCH   5   6
ENDBRANCH   2   5
BRANCH   3  12
ATOM     12  C   UNL     1      -0.023   0.089  -2.470  0.00  0.00    +0.080 C 
BRANCH  12  13
ATOM     13  C   UNL     1      -0.020  -0.899  -3.638  0.00  0.00    -0.063 C 
ATOM     14  C   UNL     1      -0.095  -0.140  -4.986  0.00  0.00    -0.017 C 
ATOM     15  C   UNL     1       0.536  -1.169  -5.961  0.00  0.00    -0.021 C 
ATOM     16  C   UNL     1       1.633  -1.833  -5.102  0.00  0.00    -0.082 C 
ATOM     17  N   UNL     1       1.261  -1.635  -3.687  0.00  0.00    +0.381 N 
ATOM     18  H   UNL     1       1.978  -1.101  -3.220  0.00  0.00    -0.086 HD
ATOM     19  H   UNL     1       1.156  -2.530  -3.233  0.00  0.00    -0.086 HD
ENDBRANCH  12  13
ENDBRANCH   3  12
TORSDOF 4
