REMARK  Name = ZINC06191023
REMARK  5 active torsions:
REMARK  status: ('A' for Active; 'I' for Inactive)
REMARK    1  A    between atoms: C_1  and  C_2
REMARK    2  A    between atoms: C_2  and  C_27
REMARK    3  A    between atoms: C_6  and  C_14
REMARK    4  A    between atoms: C_8  and  C_12
REMARK    5  A    between atoms: C_9  and  N_11
REMARK                            x       y       z     vdW  Elec       q    Type
REMARK                         _______ _______ _______ _____ _____    ______ ____
ROOT
ATOM      1  C   UNL     1      -4.815  -1.509  -2.696  0.00  0.00    +0.012 C 
ATOM      2  C   UNL     1      -3.443  -1.478  -3.373  0.00  0.00    -0.021 C 
ATOM      3  C   UNL     1      -2.387  -2.040  -2.421  0.00  0.00    +0.081 C 
ATOM      4  C   UNL     1      -2.322  -1.190  -1.173  0.00  0.00    +0.115 C 
ATOM      5  C   UNL     1      -2.590   0.127  -1.226  0.00  0.00    +0.046 C 
ATOM      6  C   UNL     1      -2.513   0.977   0.019  0.00  0.00    +0.102 C 
ATOM      7  C   UNL     1      -2.572   0.106   1.243  0.00  0.00    +0.098 C 
ATOM      8  C   UNL     1      -2.308  -1.220   1.153  0.00  0.00    +0.198 C 
ATOM      9  O   UNL     1      -1.984  -1.791  -0.017  0.00  0.00    -0.445 OA
ATOM     10  C   UNL     1      -2.951   0.753  -2.435  0.00  0.00    +0.164 C 
ATOM     11  O   UNL     1      -3.169   1.948  -2.446  0.00  0.00    -0.292 OA
ATOM     12  C   UNL     1      -3.070  -0.031  -3.713  0.00  0.00    +0.086 C 
ATOM     13  C   UNL     1      -3.483  -2.313  -4.655  0.00  0.00    +0.012 C 
ENDROOT
BRANCH   6  14
ATOM     14  C   UNL     1      -1.220   1.750   0.017  0.00  0.00    -0.017 A 
ATOM     15  C   UNL     1      -0.013   1.076   0.008  0.00  0.00    +0.055 A 
ATOM     16  C   UNL     1       1.178   1.784   0.000  0.00  0.00    +0.167 A 
ATOM     17  C   UNL     1       1.155   3.177   0.008  0.00  0.00    +0.167 A 
ATOM     18  C   UNL     1      -0.057   3.847   0.022  0.00  0.00    +0.065 A 
ATOM     19  C   UNL     1      -1.242   3.133   0.029  0.00  0.00    +0.026 A 
ATOM     20 BR   UNL     1      -2.896   4.050   0.049  0.00  0.00    -0.050 Br
ATOM     21  O   UNL     1       2.442   3.634  -0.002  0.00  0.00    -0.453 OA
ATOM     22  C   UNL     1       3.243   2.516  -0.427  0.00  0.00    +0.466 C 
ATOM     23  O   UNL     1       2.478   1.369  -0.014  0.00  0.00    -0.453 OA
ENDBRANCH   6  14
BRANCH   8  24
ATOM     24  N   UNL     1      -2.373  -1.996   2.284  0.00  0.00    -0.328 N 
ATOM     25  H   UNL     1      -2.606  -1.594   3.135  0.00  0.00    +0.145 HD
ATOM     26  H   UNL     1      -2.186  -2.946   2.232  0.00  0.00    +0.145 HD
ENDBRANCH   8  24
BRANCH   7  27
ATOM     27  C   UNL     1      -2.907   0.681   2.511  0.00  0.00    +0.101 C 
ATOM     28  N   UNL     1      -3.174   1.137   3.517  0.00  0.00    -0.191 NA
ENDBRANCH   7  27
TORSDOF 3
