REMARK  Name = ZINC39037546
REMARK  5 active torsions:
REMARK  status: ('A' for Active; 'I' for Inactive)
REMARK    1  A    between atoms: C_1  and  C_2
REMARK    2  A    between atoms: C_4  and  C_27
REMARK    3  A    between atoms: C_6  and  N_8
REMARK    4  A    between atoms: C_12  and  C_15
REMARK    5  A    between atoms: C_18  and  C_21
REMARK                            x       y       z     vdW  Elec       q    Type
REMARK                         _______ _______ _______ _____ _____    ______ ____
ROOT
ATOM      1  N   UNL     1       0.051  -2.674   2.326  0.00  0.00    -0.180 NA
ATOM      2  C   UNL     1       0.146  -2.004   3.455  0.00  0.00    +0.199 C 
ATOM      3  N   UNL     1       0.131  -0.646   3.551  0.00  0.00    -0.251 N 
ATOM      4  N   UNL     1       0.248  -0.250   4.852  0.00  0.00    -0.218 NA
ATOM      5  C   UNL     1       0.346  -1.478   5.663  0.00  0.00    +0.188 C 
ATOM      6  N   UNL     1       0.267  -2.578   4.690  0.00  0.00    -0.297 N 
ATOM      7  H   UNL     1       1.060   0.335   4.981  0.00  0.00    +0.146 HD
ATOM      8  H   UNL     1       0.298  -3.527   4.887  0.00  0.00    +0.150 HD
ATOM      9  H   UNL     1       0.049  -0.041   2.797  0.00  0.00    +0.169 HD
ENDROOT
BRANCH   1  15
ATOM     10  C   UNL     1       0.841   1.415  -0.013  0.00  0.00    +0.066 C 
ATOM     11  C   UNL     1       0.510  -0.056  -0.012  0.00  0.00    +0.044 A 
ATOM     12  C   UNL     1       0.294  -0.727  -1.206  0.00  0.00    +0.046 A 
ATOM     13  C   UNL     1      -0.008  -2.080  -1.164  0.00  0.00    +0.044 A 
ATOM     14  N   UNL     1      -0.080  -2.689   0.007  0.00  0.00    -0.216 NA
ATOM     15  C   UNL     1       0.132  -2.018   1.136  0.00  0.00    +0.253 A 
ATOM     16  N   UNL     1       0.428  -0.721   1.127  0.00  0.00    -0.216 NA
ATOM     17  C   UNL     1      -0.250  -2.846  -2.438  0.00  0.00    +0.066 C 
ENDBRANCH   1  15
BRANCH   5  18
ATOM     18  C   UNL     1       1.679  -1.515   6.414  0.00  0.00    +0.189 C 
ATOM     19  C   UNL     1       1.768  -0.369   7.406  0.00  0.00    +0.034 C 
ATOM     20  C   UNL     1       1.878  -0.984   8.600  0.00  0.00    +0.091 C 
ATOM     21  N   UNL     1       1.867  -2.334   8.441  0.00  0.00    -0.154 NA
ATOM     22  N   UNL     1       1.762  -2.711   7.268  0.00  0.00    -0.176 NA
BRANCH  20  23
ATOM     23  C   UNL     1       1.997  -0.286   9.904  0.00  0.00    +0.002 A 
ATOM     24  C   UNL     1       1.994   1.106   9.955  0.00  0.00    +0.010 A 
ATOM     25  C   UNL     1       2.104   1.750  11.170  0.00  0.00    +0.001 A 
ATOM     26  C   UNL     1       2.218   1.015  12.337  0.00  0.00    +0.000 A 
ATOM     27  C   UNL     1       2.221  -0.367  12.292  0.00  0.00    +0.001 A 
ATOM     28  C   UNL     1       2.106  -1.022  11.083  0.00  0.00    +0.010 A 
ENDBRANCH  20  23
ENDBRANCH   5  18
TORSDOF 3
