REMARK  Name = ZINC14479195
REMARK  6 active torsions:
REMARK  status: ('A' for Active; 'I' for Inactive)
REMARK    1  A    between atoms: C_1  and  O_2
REMARK    2  A    between atoms: O_2  and  C_3
REMARK    3  A    between atoms: C_6  and  C_11
REMARK    4  A    between atoms: C_8  and  O_9
REMARK    5  A    between atoms: O_9  and  C_10
REMARK    6  A    between atoms: C_22  and  C_27
REMARK                            x       y       z     vdW  Elec       q    Type
REMARK                         _______ _______ _______ _____ _____    ______ ____
ROOT
ATOM      1  C   UNL     1      -1.777   0.707   1.661  0.00  0.00    +0.105 C 
ATOM      2  C   UNL     1      -0.506   1.530   1.558  0.00  0.00    +0.029 C 
ATOM      3  C   UNL     1       0.655   1.143   2.485  0.00  0.00    +0.033 C 
ATOM      4  C   UNL     1       1.867   1.572   1.656  0.00  0.00    -0.030 C 
ATOM      5  C   UNL     1       1.561   1.561   0.364  0.00  0.00    -0.023 C 
ATOM      6  C   UNL     1       0.157   1.101   0.214  0.00  0.00    +0.049 C 
ATOM      7  C   UNL     1      -0.716   1.585  -0.877  0.00  0.00    -0.019 A 
ATOM      8  C   UNL     1      -0.217   2.010  -2.084  0.00  0.00    +0.019 A 
ATOM      9  C   UNL     1      -1.085   2.442  -3.091  0.00  0.00    +0.037 A 
ATOM     10  C   UNL     1      -2.465   2.440  -2.863  0.00  0.00    +0.015 A 
ATOM     11  C   UNL     1      -2.949   1.972  -1.693  0.00  0.00    +0.024 A 
ATOM     12  C   UNL     1      -2.095   1.564  -0.672  0.00  0.00    +0.031 A 
ATOM     13  N   UNL     1      -2.638   1.162   0.548  0.00  0.00    -0.336 N 
ATOM     14  H   UNL     1      -3.601   1.181   0.668  0.00  0.00    +0.147 HD
ENDROOT
BRANCH   1  18
ATOM     15  C   UNL     1      -0.884  -3.454   1.239  0.00  0.00    +0.162 A 
ATOM     16  C   UNL     1      -0.850  -2.858   2.489  0.00  0.00    +0.050 A 
ATOM     17  C   UNL     1      -1.139  -1.513   2.622  0.00  0.00    +0.009 A 
ATOM     18  C   UNL     1      -1.462  -0.759   1.510  0.00  0.00    -0.023 A 
ATOM     19  C   UNL     1      -1.503  -1.348   0.260  0.00  0.00    +0.055 A 
ATOM     20  C   UNL     1      -1.209  -2.695   0.119  0.00  0.00    +0.162 A 
BRANCH  15  22
ATOM     21  C   UNL     1      -0.273  -5.493   2.299  0.00  0.00    +0.277 C 
ATOM     22  O   UNL     1      -0.600  -4.777   1.106  0.00  0.00    -0.491 OA
ENDBRANCH  15  22
BRANCH  20  23
ATOM     23  O   UNL     1      -1.244  -3.274  -1.111  0.00  0.00    -0.491 OA
ATOM     24  C   UNL     1      -1.586  -2.434  -2.215  0.00  0.00    +0.277 C 
ENDBRANCH  20  23
ENDBRANCH   1  18
BRANCH   9  25
ATOM     25  C   UNL     1      -0.548   2.897  -4.387  0.00  0.00    +0.242 C 
ATOM     26  O   UNL     1       0.652   2.897  -4.582  0.00  0.00    -0.270 OA
ATOM     27  N   UNL     1      -1.388   3.314  -5.355  0.00  0.00    -0.325 N 
ATOM     28  H   UNL     1      -2.346   3.314  -5.200  0.00  0.00    +0.145 HD
ATOM     29  H   UNL     1      -1.036   3.613  -6.208  0.00  0.00    +0.145 HD
ENDBRANCH   9  25
TORSDOF 4
