REMARK  Name = ZINC08791652
REMARK  8 active torsions:
REMARK  status: ('A' for Active; 'I' for Inactive)
REMARK    1  A    between atoms: C_1  and  C_2
REMARK    2  A    between atoms: C_7  and  C_8
REMARK    3  A    between atoms: C_17  and  C_19
REMARK    4  A    between atoms: C_19  and  C_20
REMARK    5  A    between atoms: N_32  and  C_35
REMARK    6  A    between atoms: C_35  and  C_36
REMARK    7  A    between atoms: C_36  and  O_37
REMARK    8  A    between atoms: O_37  and  C_38
REMARK                            x       y       z     vdW  Elec       q    Type
REMARK                         _______ _______ _______ _____ _____    ______ ____
ROOT
ATOM      1  C   UNL     1      -3.408   4.018   3.916  0.00  0.00    +0.044 C 
ATOM      2  C   UNL     1      -2.470   3.330   2.958  0.00  0.00    -0.046 A 
ATOM      3  C   UNL     1      -1.425   2.568   3.447  0.00  0.00    +0.004 A 
ATOM      4  C   UNL     1      -0.563   1.936   2.568  0.00  0.00    +0.005 A 
ATOM      5  C   UNL     1      -0.747   2.066   1.209  0.00  0.00    -0.027 A 
ATOM      6  C   UNL     1      -1.795   2.832   0.706  0.00  0.00    +0.039 A 
ATOM      7  C   UNL     1      -2.658   3.464   1.599  0.00  0.00    -0.026 A 
ATOM      8  C   UNL     1      -3.800   4.297   1.077  0.00  0.00    +0.046 C 
ATOM      9  N   UNL     1      -1.778   2.816  -0.690  0.00  0.00    -0.286 N 
ATOM     10  C   UNL     1      -0.764   2.074  -1.177  0.00  0.00    +0.211 C 
ATOM     11  O   UNL     1      -0.503   1.883  -2.346  0.00  0.00    -0.277 OA
ATOM     12  C   UNL     1      -0.019   1.529   0.011  0.00  0.00    +0.050 C 
ATOM     13  C   UNL     1       0.002  -0.004   0.002  0.00  0.00    +0.088 C 
ATOM     14  C   UNL     1       1.383  -0.373  -0.608  0.00  0.00    +0.073 C 
ATOM     15  C   UNL     1       2.056   0.982  -0.913  0.00  0.00    -0.053 C 
ATOM     16  C   UNL     1       2.104  -1.042   0.540  0.00  0.00    +0.224 C 
ATOM     17  O   UNL     1       3.233  -1.482   0.498  0.00  0.00    -0.275 OA
ATOM     18  N   UNL     1       1.302  -1.072   1.611  0.00  0.00    -0.240 N 
ATOM     19  C   UNL     1       0.099  -0.519   1.421  0.00  0.00    +0.225 C 
ATOM     20  O   UNL     1      -0.777  -0.443   2.255  0.00  0.00    -0.275 OA
ATOM     21  H   UNL     1      -2.421   3.285  -1.245  0.00  0.00    +0.155 HD
ATOM     22  N   UNL     1       1.379   1.924  -0.019  0.00  0.00    +0.394 N 
ATOM     23  H   UNL     1       1.782   1.872   0.924  0.00  0.00    -0.083 HD
ATOM     24  H   UNL     1       1.470   2.882  -0.378  0.00  0.00    -0.083 HD
ENDROOT
BRANCH  15  25
ATOM     25  C   UNL     1       3.556   0.910  -0.618  0.00  0.00    +0.022 C 
BRANCH  25  26
ATOM     26  C   UNL     1       4.213   2.200  -1.037  0.00  0.00    -0.024 A 
ATOM     27  C   UNL     1       4.822   2.441  -2.209  0.00  0.00    +0.087 A 
ATOM     28  N   UNL     1       5.298   3.724  -2.231  0.00  0.00    -0.360 N 
ATOM     29  H   UNL     1       5.773   4.129  -2.974  0.00  0.00    +0.165 HD
ATOM     30  C   UNL     1       5.005   4.353  -1.042  0.00  0.00    +0.047 A 
ATOM     31  C   UNL     1       4.313   3.425  -0.241  0.00  0.00    +0.003 A 
ATOM     32  C   UNL     1       3.885   3.790   1.036  0.00  0.00    +0.010 A 
ATOM     33  C   UNL     1       4.142   5.048   1.504  0.00  0.00    +0.001 A 
ATOM     34  C   UNL     1       4.824   5.967   0.718  0.00  0.00    +0.002 A 
ATOM     35  C   UNL     1       5.255   5.628  -0.546  0.00  0.00    +0.026 A 
ENDBRANCH  25  26
ENDBRANCH  15  25
BRANCH  18  36
ATOM     36  C   UNL     1       1.709  -1.663   2.889  0.00  0.00    +0.144 C 
BRANCH  36  37
ATOM     37  C   UNL     1       1.331  -3.145   2.909  0.00  0.00    +0.179 C 
BRANCH  37  38
ATOM     38  O   UNL     1       2.084  -3.842   1.914  0.00  0.00    -0.381 OA
ATOM     39  C   UNL     1       1.805  -5.242   1.849  0.00  0.00    +0.194 C 
ENDBRANCH  37  38
ENDBRANCH  36  37
ENDBRANCH  18  36
TORSDOF 5
