REMARK  Name = ZINC62086151
REMARK  10 active torsions:
REMARK  status: ('A' for Active; 'I' for Inactive)
REMARK    1  A    between atoms: C_1  and  C_2
REMARK    2  A    between atoms: C_2  and  C_3
REMARK    3  A    between atoms: C_2  and  C_15
REMARK    4  A    between atoms: C_2  and  N_19
REMARK    5  A    between atoms: C_3  and  C_4
REMARK    6  A    between atoms: C_4  and  N_5
REMARK    7  A    between atoms: N_8  and  S_11
REMARK    8  A    between atoms: S_11  and  C_14
REMARK    9  A    between atoms: C_15  and  O_17
REMARK   10  A    between atoms: O_17  and  C_18
REMARK                            x       y       z     vdW  Elec       q    Type
REMARK                         _______ _______ _______ _____ _____    ______ ____
ROOT
ATOM      1  C   UNL     1       0.742  -0.511   1.242  0.00  0.00    +0.013 C 
ENDROOT
BRANCH   1   3
ATOM      2  C   UNL     1      -0.019   1.526   0.010  0.00  0.00    +0.001 C 
ATOM      3  C   UNL     1       0.002  -0.004   0.002  0.00  0.00    +0.027 C 
BRANCH   3   4
ATOM      4  N   UNL     1      -1.376  -0.512   0.012  0.00  0.00    +0.389 N 
ATOM      5  H   UNL     1      -1.864  -0.178  -0.805  0.00  0.00    -0.088 HD
ATOM      6  H   UNL     1      -1.362  -1.521   0.007  0.00  0.00    -0.088 HD
ATOM      7  H   UNL     1      -1.848  -0.187   0.843  0.00  0.00    -0.088 HD
ENDBRANCH   3   4
BRANCH   3   8
ATOM      8  C   UNL     1       0.707  -0.490  -1.238  0.00  0.00    +0.295 C 
ATOM      9  O   UNL     1       1.884  -0.762  -1.196  0.00  0.00    -0.252 OA
BRANCH   8  10
ATOM     10  O   UNL     1       0.029  -0.621  -2.388  0.00  0.00    -0.469 OA
ATOM     11  C   UNL     1       0.760  -1.087  -3.524  0.00  0.00    +0.280 C 
ENDBRANCH   8  10
ENDBRANCH   3   8
ENDBRANCH   1   3
BRANCH   1  12
ATOM     12  C   UNL     1      -0.042  -0.124   2.497  0.00  0.00    +0.083 C 
BRANCH  12  13
ATOM     13  N   UNL     1       0.669  -0.610   3.687  0.00  0.00    -0.300 NA
ATOM     14  C   UNL     1       0.694  -2.079   3.722  0.00  0.00    +0.101 C 
ATOM     15  C   UNL     1       1.593  -2.544   4.872  0.00  0.00    +0.124 C 
ATOM     16  N   UNL     1       1.135  -1.901   6.113  0.00  0.00    -0.179 NA
ATOM     17  C   UNL     1       0.953  -0.441   6.114  0.00  0.00    +0.124 C 
ATOM     18  C   UNL     1       0.079  -0.059   4.915  0.00  0.00    +0.101 C 
BRANCH  16  19
ATOM     19  S   UNL     1       0.833  -2.796   7.473  0.00  0.00    +0.029 S 
ATOM     20  O   UNL     1      -0.119  -2.035   8.203  0.00  0.00    -0.158 OA
ATOM     21  O   UNL     1       0.507  -4.092   6.989  0.00  0.00    -0.158 OA
ATOM     22  C   UNL     1       2.413  -2.840   8.363  0.00  0.00    +0.215 C 
ENDBRANCH  16  19
ENDBRANCH  12  13
ENDBRANCH   1  12
TORSDOF 7
