REMARK  Name = ZINC55299663
REMARK  4 active torsions:
REMARK  status: ('A' for Active; 'I' for Inactive)
REMARK    1  A    between atoms: C_1  and  N_2
REMARK    2  A    between atoms: N_2  and  C_3
REMARK    3  A    between atoms: C_3  and  C_5
REMARK    4  A    between atoms: C_3  and  C_17
REMARK                            x       y       z     vdW  Elec       q    Type
REMARK                         _______ _______ _______ _____ _____    ______ ____
ROOT
ATOM      1  C   UNL     1      -2.067  -0.116  -1.267  0.00  0.00    -0.041 A 
ATOM      2  C   UNL     1      -1.322   0.130  -2.406  0.00  0.00    +0.052 A 
ATOM      3  C   UNL     1      -1.960   0.493  -3.579  0.00  0.00    +0.162 A 
ATOM      4  C   UNL     1      -3.343   0.611  -3.611  0.00  0.00    +0.163 A 
ATOM      5  C   UNL     1      -4.087   0.364  -2.470  0.00  0.00    +0.065 A 
ATOM      6  C   UNL     1      -3.446  -0.005  -1.300  0.00  0.00    +0.023 A 
ATOM      7 BR   UNL     1      -4.457  -0.352   0.261  0.00  0.00    -0.050 Br
ATOM      8  O   UNL     1      -3.963   0.969  -4.773  0.00  0.00    -0.488 OA
ATOM      9  C   UNL     1      -3.734   2.308  -5.216  0.00  0.00    +0.232 C 
ATOM     10  C   UNL     1      -2.439   2.400  -6.009  0.00  0.00    +0.082 C 
ATOM     11  C   UNL     1      -1.217   2.095  -5.158  0.00  0.00    +0.232 C 
ATOM     12  O   UNL     1      -1.237   0.738  -4.710  0.00  0.00    -0.488 OA
ENDROOT
BRANCH   1  13
ATOM     13  C   UNL     1      -1.376  -0.512   0.012  0.00  0.00    -0.009 C 
BRANCH  13  14
ATOM     14  C   UNL     1      -1.356  -2.038   0.130  0.00  0.00    +0.134 C 
ATOM     15  C   UNL     1      -0.651  -2.442   1.428  0.00  0.00    +0.190 C 
ATOM     16  O   UNL     1      -0.537  -3.868   1.476  0.00  0.00    -0.375 OA
ATOM     17  C   UNL     1       0.171  -4.423   0.364  0.00  0.00    +0.188 C 
ATOM     18  C   UNL     1      -0.534  -4.019  -0.934  0.00  0.00    +0.188 C 
ATOM     19  O   UNL     1      -0.649  -2.594  -0.983  0.00  0.00    -0.373 OA
ENDBRANCH  13  14
BRANCH  13  21
ATOM     20  C   UNL     1      -0.018   1.465   0.010  0.00  0.00    -0.100 C 
ATOM     21  N   UNL     1       0.002  -0.004   0.002  0.00  0.00    +0.383 N 
ATOM     22  H   UNL     1       0.474  -0.330  -0.828  0.00  0.00    -0.085 HD
ATOM     23  H   UNL     1       0.490  -0.338   0.820  0.00  0.00    -0.085 HD
ENDBRANCH  13  21
ENDBRANCH   1  13
TORSDOF 3
