REMARK  Name = ZINC43901244
REMARK  12 active torsions:
REMARK  status: ('A' for Active; 'I' for Inactive)
REMARK    1  A    between atoms: C_1  and  C_2
REMARK    2  A    between atoms: C_2  and  N_3
REMARK    3  A    between atoms: N_3  and  C_4
REMARK    4  A    between atoms: N_3  and  C_6
REMARK    5  A    between atoms: C_4  and  C_5
REMARK    6  A    between atoms: C_6  and  C_7
REMARK    7  A    between atoms: C_12  and  N_13
REMARK    8  A    between atoms: N_16  and  C_17
REMARK    9  A    between atoms: C_17  and  C_18
REMARK   10  A    between atoms: C_18  and  N_19
REMARK   11  A    between atoms: N_19  and  C_20
REMARK   12  A    between atoms: C_25  and  N_26
REMARK                            x       y       z     vdW  Elec       q    Type
REMARK                         _______ _______ _______ _____ _____    ______ ____
ROOT
ATOM      1  N   UNL     1      -2.200  -0.722  -2.346  0.00  0.00    -0.269 N 
ATOM      2  C   UNL     1      -2.886  -0.137  -3.348  0.00  0.00    +0.304 C 
ATOM      3  O   UNL     1      -4.000   0.306  -3.144  0.00  0.00    -0.253 OA
ATOM      4  N   UNL     1      -2.337  -0.043  -4.575  0.00  0.00    -0.298 N 
ATOM      5  H   UNL     1      -1.286  -1.014  -2.490  0.00  0.00    +0.156 HD
ATOM      6  H   UNL     1      -1.449  -0.397  -4.738  0.00  0.00    +0.150 HD
ENDROOT
BRANCH   1  12
ATOM      7  C   UNL     1      -2.025  -1.128   0.028  0.00  0.00    -0.043 A 
ATOM      8  C   UNL     1      -2.626  -1.306   1.259  0.00  0.00    +0.003 A 
ATOM      9  C   UNL     1      -4.003  -1.270   1.369  0.00  0.00    +0.000 A 
ATOM     10  C   UNL     1      -4.784  -1.056   0.248  0.00  0.00    +0.002 A 
ATOM     11  C   UNL     1      -4.190  -0.878  -0.985  0.00  0.00    +0.023 A 
ATOM     12  C   UNL     1      -2.806  -0.908  -1.098  0.00  0.00    +0.036 A 
BRANCH   7  13
ATOM     13  C   UNL     1      -0.523  -1.168  -0.091  0.00  0.00    -0.041 C 
BRANCH  13  14
ATOM     14  N   UNL     1      -0.011   0.196  -0.281  0.00  0.00    +0.382 N 
ATOM     15  H   UNL     1      -0.464   0.617  -1.079  0.00  0.00    -0.081 HD
BRANCH  14  17
ATOM     16  C   UNL     1       0.132   2.446   0.674  0.00  0.00    -0.017 C 
ATOM     17  C   UNL     1      -0.289   0.996   0.919  0.00  0.00    -0.082 C 
ENDBRANCH  14  17
BRANCH  14  18
ATOM     18  C   UNL     1       1.439   0.146  -0.511  0.00  0.00    -0.082 C 
ATOM     19  C   UNL     1       1.719  -0.518  -1.861  0.00  0.00    -0.017 C 
ENDBRANCH  14  18
ENDBRANCH  13  14
ENDBRANCH   7  13
ENDBRANCH   1  12
BRANCH   4  20
ATOM     20  C   UNL     1      -3.083   0.593  -5.665  0.00  0.00    +0.124 C 
BRANCH  20  21
ATOM     21  C   UNL     1      -2.241   0.568  -6.941  0.00  0.00    +0.120 C 
BRANCH  21  22
ATOM     22  N   UNL     1      -2.986   1.204  -8.030  0.00  0.00    -0.341 N 
ATOM     23  H   UNL     1      -3.875   1.557  -7.868  0.00  0.00    +0.146 HD
BRANCH  22  24
ATOM     24  C   UNL     1      -2.418   1.301  -9.303  0.00  0.00    +0.058 A 
ATOM     25  C   UNL     1      -1.161   0.762  -9.546  0.00  0.00    +0.025 A 
ATOM     26  C   UNL     1      -0.602   0.859 -10.805  0.00  0.00    +0.002 A 
ATOM     27  C   UNL     1      -1.292   1.493 -11.823  0.00  0.00    +0.002 A 
ATOM     28  C   UNL     1      -2.543   2.031 -11.584  0.00  0.00    +0.034 A 
ATOM     29  C   UNL     1      -3.110   1.932 -10.328  0.00  0.00    +0.147 A 
BRANCH  29  30
ATOM     30  N   UNL     1      -4.452   2.503 -10.074  0.00  0.00    +0.058 N 
ATOM     31  O   UNL     1      -5.232   1.919  -9.358  0.00  0.00    -0.126 OA
ATOM     32  O   UNL     1      -4.768   3.553 -10.583  0.00  0.00    -0.126 OA
ENDBRANCH  29  30
ENDBRANCH  22  24
ENDBRANCH  21  22
ENDBRANCH  20  21
ENDBRANCH   4  20
TORSDOF 10
