REMARK  Name = ZINC39796079
REMARK  10 active torsions:
REMARK  status: ('A' for Active; 'I' for Inactive)
REMARK    1  A    between atoms: C_1  and  C_2
REMARK    2  A    between atoms: C_2  and  C_4
REMARK    3  A    between atoms: C_2  and  S_14
REMARK    4  A    between atoms: N_9  and  C_10
REMARK    5  A    between atoms: C_10  and  C_11
REMARK    6  A    between atoms: C_10  and  C_12
REMARK    7  A    between atoms: C_10  and  C_13
REMARK    8  A    between atoms: S_14  and  C_15
REMARK    9  A    between atoms: C_19  and  C_24
REMARK   10  A    between atoms: N_20  and  C_21
REMARK                            x       y       z     vdW  Elec       q    Type
REMARK                         _______ _______ _______ _____ _____    ______ ____
ROOT
ATOM      1  C   UNL     1      -2.432  -0.097  -1.624  0.00  0.00    +0.238 C 
ATOM      2  N   UNL     1      -2.470   1.358  -1.845  0.00  0.00    -0.237 N 
ATOM      3  N   UNL     1      -1.526   1.635  -2.840  0.00  0.00    -0.169 NA
ATOM      4  C   UNL     1      -0.929   0.545  -3.244  0.00  0.00    +0.147 C 
ATOM      5  N   UNL     1      -1.408  -0.582  -2.565  0.00  0.00    -0.282 N 
ATOM      6  H   UNL     1      -3.039   1.999  -1.390  0.00  0.00    +0.171 HD
ENDROOT
BRANCH   4   7
ATOM      7  C   UNL     1       0.065   0.508  -4.234  0.00  0.00    +0.022 C 
ATOM      8  C   UNL     1       0.656   1.596  -4.877  0.00  0.00    +0.006 A 
ATOM      9  C   UNL     1       0.469   2.990  -4.759  0.00  0.00    +0.010 A 
ATOM     10  C   UNL     1       1.201   3.835  -5.530  0.00  0.00    +0.001 A 
ATOM     11  C   UNL     1       2.142   3.360  -6.446  0.00  0.00    +0.002 A 
ATOM     12  C   UNL     1       2.373   2.035  -6.612  0.00  0.00    +0.026 A 
ATOM     13  C   UNL     1       1.647   1.090  -5.841  0.00  0.00    +0.043 A 
ATOM     14  N   UNL     1       1.685  -0.228  -5.814  0.00  0.00    -0.380 N 
ATOM     15  C   UNL     1       0.725  -0.720  -4.822  0.00  0.00    +0.152 C 
ATOM     16  H   UNL     1       2.261  -0.784  -6.362  0.00  0.00    +0.160 HD
ENDBRANCH   4   7
BRANCH   5  17
ATOM     17  C   UNL     1      -0.978  -1.970  -2.752  0.00  0.00    +0.078 C 
ATOM     18  C   UNL     1      -1.714  -3.051  -1.958  0.00  0.00    +0.024 C 
ATOM     19  C   UNL     1      -0.286  -2.659  -1.575  0.00  0.00    +0.024 C 
ENDBRANCH   5  17
BRANCH   1  20
ATOM     20  S   UNL     1      -1.949  -0.467   0.085  0.00  0.00    -0.106 S 
BRANCH  20  22
ATOM     21  C   UNL     1      -0.541   1.877   0.164  0.00  0.00    +0.029 C 
ATOM     22  C   UNL     1      -0.348   0.363   0.278  0.00  0.00    +0.133 C 
BRANCH  22  23
ATOM     23  C   UNL     1       0.231   0.031   1.630  0.00  0.00    +0.233 C 
ATOM     24  O   UNL     1      -0.492  -0.372   2.515  0.00  0.00    -0.274 OA
ATOM     25  N   UNL     1       1.551   0.183   1.853  0.00  0.00    -0.239 N 
ATOM     26  C   UNL     1       2.068  -0.114   3.062  0.00  0.00    +0.306 C 
ATOM     27  O   UNL     1       1.343  -0.518   3.950  0.00  0.00    -0.252 OA
ATOM     28  N   UNL     1       3.388   0.038   3.286  0.00  0.00    -0.294 N 
ATOM     29  H   UNL     1       2.129   0.506   1.145  0.00  0.00    +0.159 HD
ATOM     30  H   UNL     1       3.966   0.361   2.578  0.00  0.00    +0.151 HD
BRANCH  28  31
ATOM     31  C   UNL     1       3.950  -0.284   4.600  0.00  0.00    +0.028 C 
ATOM     32  C   UNL     1       3.688  -1.758   4.919  0.00  0.00    +0.031 C 
ATOM     33  C   UNL     1       5.458  -0.026   4.587  0.00  0.00    +0.031 C 
ATOM     34  C   UNL     1       3.291   0.593   5.666  0.00  0.00    +0.031 C 
ENDBRANCH  28  31
ENDBRANCH  22  23
ENDBRANCH  20  22
ENDBRANCH   1  20
TORSDOF 6
