REMARK  Name = ZINC20203599
REMARK  6 active torsions:
REMARK  status: ('A' for Active; 'I' for Inactive)
REMARK    1  A    between atoms: C_1  and  S_2
REMARK    2  A    between atoms: S_2  and  N_5
REMARK    3  A    between atoms: N_5  and  C_6
REMARK    4  A    between atoms: C_6  and  C_7
REMARK    5  A    between atoms: C_7  and  N_8
REMARK    6  A    between atoms: N_8  and  C_9
REMARK                            x       y       z     vdW  Elec       q    Type
REMARK                         _______ _______ _______ _____ _____    ______ ____
ROOT
ATOM      1  C   UNL     1       0.002  -0.004   0.002  0.00  0.00    +0.049 C 
ATOM      2  C   UNL     1      -0.018   1.507   0.010  0.00  0.00    -0.031 A 
ATOM      3  C   UNL     1      -1.041   2.429   0.030  0.00  0.00    +0.005 A 
ATOM      4  C   UNL     1      -0.750   3.782   0.029  0.00  0.00    +0.015 A 
ATOM      5  C   UNL     1       0.569   4.203   0.019  0.00  0.00    +0.020 A 
ATOM      6  C   UNL     1       1.595   3.280   0.004  0.00  0.00    +0.038 A 
ATOM      7  C   UNL     1       1.309   1.916  -0.000  0.00  0.00    +0.036 A 
ATOM      8  N   UNL     1       2.155   0.807  -0.014  0.00  0.00    -0.286 N 
ATOM      9  C   UNL     1       1.475  -0.352  -0.014  0.00  0.00    +0.208 C 
ATOM     10  O   UNL     1       1.952  -1.467  -0.024  0.00  0.00    -0.277 OA
ATOM     11 BR   UNL     1       0.966   6.051   0.026  0.00  0.00    -0.050 Br
ATOM     12  H   UNL     1       3.246   0.948  -0.024  0.00  0.00    +0.155 HD
ENDROOT
BRANCH   1  13
ATOM     13  N   UNL     1      -0.662  -0.521  -1.202  0.00  0.00    +0.390 N 
ATOM     14  H   UNL     1       0.066  -0.538  -2.027  0.00  0.00    -0.084 HD
ATOM     15  H   UNL     1      -1.495   0.149  -1.461  0.00  0.00    -0.084 HD
BRANCH  13  16
ATOM     16  C   UNL     1      -1.178  -1.878  -0.977  0.00  0.00    -0.064 C 
BRANCH  16  17
ATOM     17  C   UNL     1      -1.861  -2.382  -2.250  0.00  0.00    +0.086 C 
BRANCH  17  18
ATOM     18  N   UNL     1      -2.375  -3.735  -2.026  0.00  0.00    -0.197 NA
ATOM     19  H   UNL     1      -1.917  -4.378  -1.260  0.00  0.00    +0.148 HD
BRANCH  18  21
ATOM     20  C   UNL     1      -2.575  -4.548  -4.648  0.00  0.00    +0.214 C 
ATOM     21  S   UNL     1      -3.472  -4.389  -3.079  0.00  0.00    +0.026 S 
ATOM     22  O   UNL     1      -3.762  -5.675  -2.549  0.00  0.00    -0.158 OA
ATOM     23  O   UNL     1      -4.492  -3.407  -3.197  0.00  0.00    -0.158 OA
ENDBRANCH  18  21
ENDBRANCH  17  18
ENDBRANCH  16  17
ENDBRANCH  13  16
ENDBRANCH   1  13
TORSDOF 5
