REMARK  Name = ZINC31154466
REMARK  15 active torsions:
REMARK  status: ('A' for Active; 'I' for Inactive)
REMARK    1  A    between atoms: C_1  and  C_2
REMARK    2  A    between atoms: C_2  and  C_3
REMARK    3  A    between atoms: C_8  and  N_9
REMARK    4  A    between atoms: C_10  and  C_12
REMARK    5  A    between atoms: C_12  and  N_13
REMARK    6  A    between atoms: N_13  and  C_14
REMARK    7  A    between atoms: C_15  and  C_17
REMARK    8  A    between atoms: C_17  and  C_19
REMARK    9  A    between atoms: C_17  and  N_20
REMARK   10  A    between atoms: N_20  and  C_21
REMARK   11  A    between atoms: N_20  and  C_22
REMARK   12  A    between atoms: C_22  and  C_23
REMARK   13  A    between atoms: N_25  and  C_26
REMARK   14  A    between atoms: C_27  and  C_33
REMARK   15  A    between atoms: C_31  and  C_32
REMARK                            x       y       z     vdW  Elec       q    Type
REMARK                         _______ _______ _______ _____ _____    ______ ____
ROOT
ATOM      1  C   UNL     1      -3.160   2.305  -0.924  0.00  0.00    +0.017 C 
ATOM      2  C   UNL     1      -3.773   2.111   0.464  0.00  0.00    -0.004 C 
ENDROOT
BRANCH   1   5
ATOM      3  N   UNL     1      -5.227   2.246  -2.282  0.00  0.00    -0.297 N 
ATOM      4  C   UNL     1      -5.587   3.546  -1.710  0.00  0.00    +0.132 C 
ATOM      5  C   UNL     1      -4.051   1.671  -1.960  0.00  0.00    +0.202 C 
ATOM      6  O   UNL     1      -3.711   0.642  -2.505  0.00  0.00    -0.277 OA
BRANCH   3   7
ATOM      7  C   UNL     1      -6.145   1.571  -3.203  0.00  0.00    +0.203 C 
BRANCH   7   9
ATOM      8  N   UNL     1      -8.018  -0.038  -3.064  0.00  0.00    -0.284 N 
ATOM      9  C   UNL     1      -7.080   0.685  -2.421  0.00  0.00    +0.235 C 
ATOM     10  O   UNL     1      -6.989   0.624  -1.213  0.00  0.00    -0.274 OA
ATOM     11  H   UNL     1      -8.054  -0.039  -4.163  0.00  0.00    +0.155 HD
BRANCH   8  17
ATOM     12  C   UNL     1     -10.195  -1.066  -2.872  0.00  0.00    -0.026 A 
ATOM     13  C   UNL     1     -11.108  -1.807  -2.147  0.00  0.00    +0.005 A 
ATOM     14  C   UNL     1     -10.779  -2.273  -0.888  0.00  0.00    +0.000 A 
ATOM     15  C   UNL     1      -9.536  -1.999  -0.349  0.00  0.00    +0.002 A 
ATOM     16  C   UNL     1      -8.616  -1.263  -1.070  0.00  0.00    +0.023 A 
ATOM     17  C   UNL     1      -8.945  -0.789  -2.333  0.00  0.00    +0.037 A 
BRANCH  12  19
ATOM     18  C   UNL     1     -10.044  -1.542  -5.300  0.00  0.00    +0.009 C 
ATOM     19  C   UNL     1     -10.554  -0.559  -4.245  0.00  0.00    +0.033 C 
ENDBRANCH  12  19
ENDBRANCH   8  17
ENDBRANCH   7   9
ENDBRANCH   3   7
ENDBRANCH   1   5
BRANCH   1  20
ATOM     20  N   UNL     1      -1.834   1.675  -0.967  0.00  0.00    +0.391 N 
ATOM     21  C   UNL     1      -1.923   0.240  -0.666  0.00  0.00    -0.094 C 
ATOM     22  H   UNL     1      -1.441   1.783  -1.989  0.00  0.00    -0.080 HD
BRANCH  20  23
ATOM     23  C   UNL     1      -0.902   2.348  -0.052  0.00  0.00    +0.020 C 
BRANCH  23  24
ATOM     24  C   UNL     1       0.497   1.843  -0.298  0.00  0.00    +0.201 C 
ATOM     25  O   UNL     1       0.697   1.004  -1.152  0.00  0.00    -0.278 OA
ATOM     26  N   UNL     1       1.525   2.326   0.426  0.00  0.00    -0.287 N 
ATOM     27  H   UNL     1       1.354   3.134   1.153  0.00  0.00    +0.155 HD
BRANCH  26  28
ATOM     28  C   UNL     1       2.811   1.801   0.253  0.00  0.00    +0.039 A 
ATOM     29  C   UNL     1       3.018   0.430   0.334  0.00  0.00    -0.029 A 
ATOM     30  C   UNL     1       4.287  -0.086   0.157  0.00  0.00    +0.005 A 
ATOM     31  C   UNL     1       5.352   0.761  -0.089  0.00  0.00    +0.001 A 
ATOM     32  C   UNL     1       5.149   2.127  -0.163  0.00  0.00    +0.005 A 
ATOM     33  C   UNL     1       3.882   2.649   0.007  0.00  0.00    -0.029 A 
ATOM     34  C   UNL     1       3.662   4.138  -0.076  0.00  0.00    +0.045 C 
ATOM     35  C   UNL     1       1.860  -0.494   0.608  0.00  0.00    +0.045 C 
ENDBRANCH  26  28
ENDBRANCH  23  24
ENDBRANCH  20  23
ENDBRANCH   1  20
TORSDOF 9
