REMARK  Name = ZINC48314701
REMARK  6 active torsions:
REMARK  status: ('A' for Active; 'I' for Inactive)
REMARK    1  A    between atoms: C_1  and  C_2
REMARK    2  A    between atoms: C_2  and  C_4
REMARK    3  A    between atoms: C_2  and  N_13
REMARK    4  A    between atoms: C_7  and  O_11
REMARK    5  A    between atoms: O_11  and  C_12
REMARK    6  A    between atoms: N_16  and  C_17
REMARK                            x       y       z     vdW  Elec       q    Type
REMARK                         _______ _______ _______ _____ _____    ______ ____
ROOT
ATOM      1  N   UNL     1       0.685  -0.492  -1.199  0.00  0.00    -0.293 N 
ATOM      2  C   UNL     1       0.006  -0.612  -2.357  0.00  0.00    +0.304 C 
ATOM      3  O   UNL     1      -1.177  -0.331  -2.401  0.00  0.00    -0.252 OA
ATOM      4  N   UNL     1       0.637  -1.043  -3.467  0.00  0.00    -0.268 N 
ATOM      5  H   UNL     1       1.628  -0.717  -1.165  0.00  0.00    +0.151 HD
ATOM      6  H   UNL     1       1.596  -1.189  -3.454  0.00  0.00    +0.156 HD
ENDROOT
BRANCH   4   7
ATOM      7  C   UNL     1      -0.092  -1.280  -4.641  0.00  0.00    +0.052 A 
ATOM      8  C   UNL     1      -1.445  -1.579  -4.569  0.00  0.00    +0.073 A 
ATOM      9  C   UNL     1      -2.166  -1.813  -5.730  0.00  0.00    +0.164 A 
ATOM     10  C   UNL     1      -1.532  -1.746  -6.965  0.00  0.00    +0.163 A 
ATOM     11  C   UNL     1      -0.179  -1.448  -7.034  0.00  0.00    +0.066 A 
ATOM     12  C   UNL     1       0.538  -1.210  -5.876  0.00  0.00    +0.043 A 
ATOM     13 BR   UNL     1       2.381  -0.797  -5.975  0.00  0.00    -0.048 Br
ATOM     14  O   UNL     1      -2.226  -1.965  -8.117  0.00  0.00    -0.485 OA
ATOM     15  C   UNL     1      -3.490  -2.626  -7.991  0.00  0.00    +0.270 C 
ATOM     16  C   UNL     1      -4.263  -1.967  -6.840  0.00  0.00    +0.270 C 
ATOM     17  O   UNL     1      -3.492  -2.109  -5.643  0.00  0.00    -0.485 OA
ENDBRANCH   4   7
BRANCH   1  19
ATOM     18  C   UNL     1      -0.013   1.506   0.026  0.00  0.00    +0.033 C 
ATOM     19  C   UNL     1      -0.002  -0.024   0.007  0.00  0.00    +0.102 C 
BRANCH  19  20
ATOM     20  C   UNL     1       0.720  -0.536   1.227  0.00  0.00    -0.024 A 
ATOM     21  C   UNL     1       2.103  -0.554   1.253  0.00  0.00    +0.009 A 
ATOM     22  C   UNL     1       2.768  -1.024   2.369  0.00  0.00    +0.049 A 
ATOM     23  C   UNL     1       2.049  -1.476   3.465  0.00  0.00    +0.155 A 
ATOM     24  C   UNL     1       0.660  -1.456   3.438  0.00  0.00    +0.165 A 
ATOM     25  C   UNL     1      -0.001  -0.981   2.319  0.00  0.00    +0.047 A 
ATOM     26  F   UNL     1      -0.044  -1.896   4.503  0.00  0.00    -0.202 F 
BRANCH  23  27
ATOM     27  O   UNL     1       2.702  -1.939   4.564  0.00  0.00    -0.492 OA
ATOM     28  C   UNL     1       4.130  -1.930   4.522  0.00  0.00    +0.277 C 
ENDBRANCH  23  27
ENDBRANCH  19  20
ENDBRANCH   1  19
TORSDOF 4
