REMARK  Name = ZINC27847854
REMARK  8 active torsions:
REMARK  status: ('A' for Active; 'I' for Inactive)
REMARK    1  A    between atoms: C_1  and  C_2
REMARK    2  A    between atoms: C_3  and  C_21
REMARK    3  A    between atoms: C_4  and  C_20
REMARK    4  A    between atoms: C_7  and  C_8
REMARK    5  A    between atoms: N_10  and  C_11
REMARK    6  A    between atoms: C_11  and  C_13
REMARK    7  A    between atoms: C_11  and  C_14
REMARK    8  A    between atoms: C_21  and  C_23
REMARK                            x       y       z     vdW  Elec       q    Type
REMARK                         _______ _______ _______ _____ _____    ______ ____
ROOT
ATOM      1  C   UNL     1      -0.130   1.459   0.065  0.00  0.00    +0.047 C 
ATOM      2  C   UNL     1      -0.067  -0.045   0.004  0.00  0.00    -0.010 A 
ATOM      3  C   UNL     1       0.188  -0.832  -1.145  0.00  0.00    +0.041 A 
ATOM      4  C   UNL     1       0.153  -2.158  -0.744  0.00  0.00    +0.024 A 
ATOM      5  N   UNL     1      -0.108  -2.194   0.571  0.00  0.00    -0.354 N 
ATOM      6  H   UNL     1      -0.187  -3.000   1.105  0.00  0.00    +0.166 HD
ATOM      7  C   UNL     1      -0.239  -0.907   1.045  0.00  0.00    +0.106 A 
ATOM      8  C   UNL     1       0.371  -3.355  -1.633  0.00  0.00    +0.064 C 
ENDROOT
BRANCH   7   9
ATOM      9  C   UNL     1      -0.521  -0.528   2.436  0.00  0.00    +0.261 C 
ATOM     10  O   UNL     1      -0.620   0.647   2.738  0.00  0.00    -0.269 OA
ATOM     11  N   UNL     1      -0.671  -1.481   3.377  0.00  0.00    -0.305 N 
ATOM     12  H   UNL     1      -0.593  -2.417   3.135  0.00  0.00    +0.149 HD
BRANCH  11  13
ATOM     13  C   UNL     1      -0.953  -1.103   4.764  0.00  0.00    +0.099 C 
ATOM     14  C   UNL     1       0.362  -0.802   5.487  0.00  0.00    +0.030 C 
BRANCH  13  15
ATOM     15  C   UNL     1      -1.671  -2.254   5.470  0.00  0.00    +0.138 C 
ATOM     16  C   UNL     1      -2.924  -2.682   4.664  0.00  0.00    +0.035 C 
ATOM     17  C   UNL     1      -3.090  -4.152   5.136  0.00  0.00    +0.031 C 
ATOM     18  C   UNL     1      -1.626  -4.600   5.336  0.00  0.00    +0.160 C 
ATOM     19  O   UNL     1      -0.831  -3.419   5.508  0.00  0.00    -0.375 OA
ENDBRANCH  13  15
ENDBRANCH  11  13
ENDBRANCH   7   9
BRANCH   3  20
ATOM     20  C   UNL     1       0.442  -0.337  -2.502  0.00  0.00    +0.162 C 
ATOM     21  O   UNL     1      -0.484  -0.161  -3.266  0.00  0.00    -0.292 OA
ATOM     22  C   UNL     1       1.852  -0.048  -2.948  0.00  0.00    +0.091 C 
ENDBRANCH   3  20
TORSDOF 4
