REMARK  Name = ZINC35991754
REMARK  11 active torsions:
REMARK  status: ('A' for Active; 'I' for Inactive)
REMARK    1  A    between atoms: C_1  and  C_2
REMARK    2  A    between atoms: C_2  and  N_3
REMARK    3  A    between atoms: N_6  and  C_9
REMARK    4  A    between atoms: C_9  and  C_10
REMARK    5  A    between atoms: C_11  and  C_26
REMARK    6  A    between atoms: C_12  and  C_21
REMARK    7  A    between atoms: N_17  and  C_18
REMARK    8  A    between atoms: C_18  and  C_19
REMARK    9  A    between atoms: C_26  and  O_28
REMARK   10  A    between atoms: O_28  and  C_29
REMARK   11  A    between atoms: C_29  and  C_30
REMARK                            x       y       z     vdW  Elec       q    Type
REMARK                         _______ _______ _______ _____ _____    ______ ____
ROOT
ATOM      1  C   UNL     1       1.471  -4.093   4.878  0.00  0.00    +0.041 C 
ATOM      2  C   UNL     1       2.576  -4.814   4.588  0.00  0.00    +0.080 C 
ATOM      3  C   UNL     1       2.432  -6.319   4.498  0.00  0.00    +0.144 C 
ATOM      4  N   UNL     1       1.090  -6.877   4.736  0.00  0.00    -0.288 N 
ATOM      5  C   UNL     1       0.082  -6.027   5.016  0.00  0.00    +0.307 C 
ATOM      6  O   UNL     1      -1.029  -6.477   5.214  0.00  0.00    -0.252 OA
ATOM      7  N   UNL     1       0.267  -4.702   5.089  0.00  0.00    -0.254 N 
ATOM      8  H   UNL     1       0.934  -7.833   4.691  0.00  0.00    +0.151 HD
ENDROOT
BRANCH   3   9
ATOM      9  C   UNL     1       2.875  -6.747   3.122  0.00  0.00    -0.015 A 
ATOM     10  C   UNL     1       4.136  -7.276   2.924  0.00  0.00    +0.013 A 
ATOM     11  C   UNL     1       4.503  -7.650   1.675  0.00  0.00    +0.045 A 
ATOM     12  S   UNL     1       3.043  -7.255   0.727  0.00  0.00    -0.105 S 
ATOM     13  C   UNL     1       2.040  -6.623   2.062  0.00  0.00    +0.051 A 
ENDBRANCH   3   9
BRANCH   2  14
ATOM     14  C   UNL     1       3.825  -4.184   4.376  0.00  0.00    +0.339 C 
ATOM     15  O   UNL     1       4.225  -3.994   3.242  0.00  0.00    -0.245 OA
BRANCH  14  16
ATOM     16  O   UNL     1       4.572  -3.795   5.429  0.00  0.00    -0.462 OA
BRANCH  16  17
ATOM     17  C   UNL     1       5.822  -3.166   5.141  0.00  0.00    +0.229 C 
ATOM     18  C   UNL     1       6.522  -2.798   6.451  0.00  0.00    +0.048 C 
ENDBRANCH  16  17
ENDBRANCH  14  16
ENDBRANCH   2  14
BRANCH   1  19
ATOM     19  C   UNL     1       1.570  -2.593   4.978  0.00  0.00    +0.136 C 
BRANCH  19  23
ATOM     20  N   UNL     1       0.489  -0.220   1.651  0.00  0.00    +0.381 N 
ATOM     21  C   UNL     1      -0.155   0.065   2.940  0.00  0.00    -0.063 C 
ATOM     22  C   UNL     1       0.687  -0.527   4.072  0.00  0.00    +0.066 C 
ATOM     23  N   UNL     1       0.814  -1.978   3.878  0.00  0.00    -0.300 NA
ATOM     24  C   UNL     1       1.434  -2.279   2.580  0.00  0.00    +0.066 C 
ATOM     25  C   UNL     1       0.586  -1.673   1.460  0.00  0.00    -0.063 C 
ATOM     26  H   UNL     1       1.414   0.183   1.641  0.00  0.00    -0.082 HD
BRANCH  20  28
ATOM     27  C   UNL     1      -0.308   1.889   0.693  0.00  0.00    -0.017 C 
ATOM     28  C   UNL     1      -0.311   0.364   0.565  0.00  0.00    -0.082 C 
ENDBRANCH  20  28
ENDBRANCH  19  23
ENDBRANCH   1  19
BRANCH   7  29
ATOM     29  C   UNL     1      -0.888  -3.860   5.405  0.00  0.00    +0.141 C 
BRANCH  29  30
ATOM     30  C   UNL     1      -1.583  -3.459   4.129  0.00  0.00    -0.015 C 
ATOM     31  C   UNL     1      -2.860  -3.706   3.973  0.00  0.00    +0.005 C 
ENDBRANCH  29  30
ENDBRANCH   7  29
TORSDOF 9
