REMARK  Name = ZINC01445807
REMARK  9 active torsions:
REMARK  status: ('A' for Active; 'I' for Inactive)
REMARK    1  A    between atoms: C_1  and  C_2
REMARK    2  A    between atoms: C_2  and  C_28
REMARK    3  A    between atoms: C_6  and  C_16
REMARK    4  A    between atoms: C_8  and  C_12
REMARK    5  A    between atoms: C_9  and  N_11
REMARK    6  A    between atoms: C_12  and  O_14
REMARK    7  A    between atoms: O_14  and  C_15
REMARK    8  A    between atoms: C_21  and  O_22
REMARK    9  A    between atoms: O_22  and  C_23
REMARK                            x       y       z     vdW  Elec       q    Type
REMARK                         _______ _______ _______ _____ _____    ______ ____
ROOT
ATOM      1  C   UNL     1       4.088   3.937  -3.243  0.00  0.00    +0.012 C 
ATOM      2  C   UNL     1       4.762   4.654  -2.072  0.00  0.00    -0.021 C 
ATOM      3  C   UNL     1       4.952   3.675  -0.911  0.00  0.00    +0.081 C 
ATOM      4  C   UNL     1       3.606   3.167  -0.448  0.00  0.00    +0.115 C 
ATOM      5  C   UNL     1       2.510   3.941  -0.544  0.00  0.00    +0.045 C 
ATOM      6  C   UNL     1       1.167   3.433  -0.077  0.00  0.00    +0.101 C 
ATOM      7  C   UNL     1       1.191   1.934   0.028  0.00  0.00    +0.105 C 
ATOM      8  C   UNL     1       2.373   1.269   0.095  0.00  0.00    +0.195 C 
ATOM      9  O   UNL     1       3.544   1.923   0.063  0.00  0.00    -0.446 OA
ATOM     10  C   UNL     1       2.576   5.241  -1.082  0.00  0.00    +0.164 C 
ATOM     11  O   UNL     1       1.569   5.918  -1.134  0.00  0.00    -0.292 OA
ATOM     12  C   UNL     1       3.873   5.807  -1.594  0.00  0.00    +0.086 C 
ATOM     13  C   UNL     1       6.120   5.201  -2.516  0.00  0.00    +0.012 C 
ENDROOT
BRANCH   6  14
ATOM     14  C   UNL     1       0.852   4.024   1.274  0.00  0.00    +0.008 A 
ATOM     15  C   UNL     1       1.682   3.772   2.349  0.00  0.00    +0.023 A 
ATOM     16  C   UNL     1       1.396   4.318   3.587  0.00  0.00    +0.018 A 
ATOM     17  C   UNL     1       0.273   5.108   3.754  0.00  0.00    +0.019 A 
ATOM     18  C   UNL     1      -0.562   5.359   2.683  0.00  0.00    +0.047 A 
ATOM     19  C   UNL     1      -0.274   4.817   1.439  0.00  0.00    +0.124 A 
ATOM     20 BR   UNL     1       2.538   3.977   5.056  0.00  0.00    -0.050 Br
BRANCH  19  21
ATOM     21  O   UNL     1      -1.094   5.063   0.383  0.00  0.00    -0.495 OA
ATOM     22  C   UNL     1      -2.235   5.887   0.626  0.00  0.00    +0.277 C 
ENDBRANCH  19  21
ENDBRANCH   6  14
BRANCH   8  23
ATOM     23  N   UNL     1       2.371  -0.097   0.190  0.00  0.00    -0.329 N 
ATOM     24  H   UNL     1       1.536  -0.586   0.117  0.00  0.00    +0.145 HD
ATOM     25  H   UNL     1       3.203  -0.575   0.330  0.00  0.00    +0.145 HD
ENDBRANCH   8  23
BRANCH   7  26
ATOM     26  C   UNL     1      -0.016   1.218   0.063  0.00  0.00    +0.341 C 
ATOM     27  O   UNL     1      -0.635   1.017  -0.966  0.00  0.00    -0.245 OA
BRANCH  26  28
ATOM     28  O   UNL     1      -0.493   0.755   1.239  0.00  0.00    -0.465 OA
ATOM     29  C   UNL     1      -1.729   0.040   1.202  0.00  0.00    +0.280 C 
ENDBRANCH  26  28
ENDBRANCH   7  26
TORSDOF 5
