REMARK  Name = ZINC59030157
REMARK  11 active torsions:
REMARK  status: ('A' for Active; 'I' for Inactive)
REMARK    1  A    between atoms: C_1  and  C_2
REMARK    2  A    between atoms: C_4  and  C_17
REMARK    3  A    between atoms: C_7  and  N_8
REMARK    4  A    between atoms: N_8  and  C_9
REMARK    5  A    between atoms: N_8  and  C_10
REMARK    6  A    between atoms: C_10  and  C_12
REMARK    7  A    between atoms: C_10  and  C_13
REMARK    8  A    between atoms: C_13  and  C_14
REMARK    9  A    between atoms: C_13  and  C_15
REMARK   10  A    between atoms: C_13  and  C_16
REMARK   11  A    between atoms: N_18  and  O_19
REMARK                            x       y       z     vdW  Elec       q    Type
REMARK                         _______ _______ _______ _____ _____    ______ ____
ROOT
ATOM      1  C   UNL     1       1.685  -0.015   1.082  0.00  0.00    +0.045 C 
ATOM      2  C   UNL     1       0.947  -1.320   0.933  0.00  0.00    -0.030 A 
ATOM      3  C   UNL     1       1.037  -2.032  -0.246  0.00  0.00    +0.016 A 
ATOM      4  C   UNL     1       0.354  -3.240  -0.382  0.00  0.00    +0.018 A 
ATOM      5  C   UNL     1      -0.417  -3.722   0.677  0.00  0.00    +0.013 A 
ATOM      6  C   UNL     1      -0.498  -3.001   1.851  0.00  0.00    +0.022 A 
ATOM      7  C   UNL     1       0.186  -1.806   1.981  0.00  0.00    +0.016 A 
ENDROOT
BRANCH   4   8
ATOM      8  C   UNL     1       0.445  -4.008  -1.644  0.00  0.00    +0.162 C 
ATOM      9  N   UNL     1       1.164  -3.556  -2.630  0.00  0.00    -0.072 NA
ATOM     10  N   UNL     1      -0.234  -5.207  -1.776  0.00  0.00    -0.340 N 
ATOM     11  H   UNL     1      -0.770  -5.544  -1.041  0.00  0.00    +0.144 HD
ATOM     12  H   UNL     1      -0.174  -5.710  -2.603  0.00  0.00    +0.144 HD
BRANCH   9  13
ATOM     13  O   UNL     1       1.252  -4.290  -3.837  0.00  0.00    -0.408 OA
ATOM     14  H   UNL     1       1.808  -3.875  -4.510  0.00  0.00    +0.328 HD
ENDBRANCH   9  13
ENDBRANCH   4   8
BRANCH   7  15
ATOM     15  N   UNL     1       0.104  -1.083   3.175  0.00  0.00    -0.393 NA
ATOM     16  C   UNL     1       0.712  -1.862   4.262  0.00  0.00    +0.107 C 
ATOM     17  H   UNL     1       0.595  -0.208   3.073  0.00  0.00    +0.126 HD
BRANCH  15  18
ATOM     18  C   UNL     1      -1.306  -0.820   3.492  0.00  0.00    +0.058 C 
ATOM     19  C   UNL     1      -2.062  -2.146   3.595  0.00  0.00    +0.027 C 
BRANCH  18  20
ATOM     20  C   UNL     1      -1.926   0.036   2.385  0.00  0.00    -0.021 C 
ATOM     21  C   UNL     1      -1.712  -0.646   1.032  0.00  0.00    +0.012 C 
ATOM     22  C   UNL     1      -3.426   0.196   2.643  0.00  0.00    +0.012 C 
ATOM     23  C   UNL     1      -1.261   1.414   2.373  0.00  0.00    +0.012 C 
ENDBRANCH  18  20
ENDBRANCH  15  18
ENDBRANCH   7  15
TORSDOF 5
