REMARK  Name = ZINC37092786
REMARK  4 active torsions:
REMARK  status: ('A' for Active; 'I' for Inactive)
REMARK    1  A    between atoms: C_1  and  N_2
REMARK    2  A    between atoms: N_2  and  C_13
REMARK    3  A    between atoms: C_5  and  C_9
REMARK    4  A    between atoms: N_10  and  O_11
REMARK                            x       y       z     vdW  Elec       q    Type
REMARK                         _______ _______ _______ _____ _____    ______ ____
ROOT
ATOM      1  C   UNL     1      -0.028   1.456   0.115  0.00  0.00    +0.131 C 
ATOM      2  N   UNL     1       0.002  -0.004   0.002  0.00  0.00    -0.317 N 
ATOM      3  C   UNL     1       0.003  -0.790   1.149  0.00  0.00    +0.099 A 
ATOM      4  C   UNL     1       0.103  -0.186   2.396  0.00  0.00    +0.053 A 
ATOM      5  C   UNL     1       0.102  -0.989   3.537  0.00  0.00    +0.022 A 
ATOM      6  C   UNL     1       0.000  -2.376   3.372  0.00  0.00    +0.029 A 
ATOM      7  C   UNL     1      -0.095  -2.896   2.099  0.00  0.00    +0.085 A 
ATOM      8  N   UNL     1      -0.097  -2.106   1.041  0.00  0.00    -0.350 N 
ATOM      9  H   UNL     1      -0.169  -2.502   0.158  0.00  0.00    +0.166 HD
ENDROOT
BRANCH   5  10
ATOM     10  C   UNL     1       0.207  -0.391   4.888  0.00  0.00    +0.163 C 
ATOM     11  N   UNL     1       0.302   0.899   5.022  0.00  0.00    -0.072 NA
ATOM     12  N   UNL     1       0.205  -1.205   6.009  0.00  0.00    -0.340 N 
ATOM     13  H   UNL     1       0.134  -2.167   5.909  0.00  0.00    +0.144 HD
ATOM     14  H   UNL     1       0.273  -0.813   6.893  0.00  0.00    +0.144 HD
BRANCH  11  15
ATOM     15  O   UNL     1       0.402   1.471   6.314  0.00  0.00    -0.408 OA
ATOM     16  H   UNL     1       0.468   2.436   6.313  0.00  0.00    +0.328 HD
ENDBRANCH  11  15
ENDBRANCH   5  10
BRANCH   2  17
ATOM     17  C   UNL     1       0.031  -0.636  -1.319  0.00  0.00    +0.074 C 
ATOM     18  C   UNL     1       1.307  -0.217  -2.078  0.00  0.00    +0.022 C 
ATOM     19  C   UNL     1       0.844  -0.072  -3.549  0.00  0.00    +0.002 C 
ATOM     20  C   UNL     1      -0.568   0.548  -3.403  0.00  0.00    +0.002 C 
ATOM     21  C   UNL     1      -1.162  -0.149  -2.162  0.00  0.00    +0.022 C 
ENDBRANCH   2  17
TORSDOF 3
