REMARK  Name = ZINC35191198
REMARK  4 active torsions:
REMARK  status: ('A' for Active; 'I' for Inactive)
REMARK    1  A    between atoms: C_4  and  N_7
REMARK    2  A    between atoms: N_13  and  C_16
REMARK    3  A    between atoms: C_16  and  C_17
REMARK    4  A    between atoms: C_17  and  C_19
REMARK                            x       y       z     vdW  Elec       q    Type
REMARK                         _______ _______ _______ _____ _____    ______ ____
ROOT
ATOM      1  N   UNL     1       3.379  -2.434  -1.385  0.00  0.00    -0.296 N 
ATOM      2  C   UNL     1       3.424  -1.655  -2.483  0.00  0.00    +0.302 C 
ATOM      3  O   UNL     1       2.820  -0.599  -2.506  0.00  0.00    -0.253 OA
ATOM      4  N   UNL     1       4.140  -2.044  -3.557  0.00  0.00    -0.283 N 
ATOM      5  C   UNL     1       4.298  -1.159  -4.721  0.00  0.00    +0.124 C 
ATOM      6  C   UNL     1       5.789  -1.060  -5.058  0.00  0.00    +0.104 C 
ATOM      7  N   UNL     1       6.341  -2.411  -5.226  0.00  0.00    -0.292 NA
ATOM      8  C   UNL     1       6.255  -3.181  -3.977  0.00  0.00    +0.104 C 
ATOM      9  C   UNL     1       4.788  -3.364  -3.593  0.00  0.00    +0.124 C 
ATOM     10  H   UNL     1       3.799  -3.308  -1.393  0.00  0.00    +0.151 HD
ENDROOT
BRANCH   1  14
ATOM     11  C   UNL     1       2.482  -1.810   2.739  0.00  0.00    +0.000 C 
ATOM     12  C   UNL     1       1.523  -2.667   1.912  0.00  0.00    +0.002 C 
ATOM     13  C   UNL     1       2.237  -3.161   0.652  0.00  0.00    +0.022 C 
ATOM     14  C   UNL     1       2.695  -1.961  -0.179  0.00  0.00    +0.074 C 
ATOM     15  C   UNL     1       3.654  -1.103   0.649  0.00  0.00    +0.022 C 
ATOM     16  C   UNL     1       2.940  -0.609   1.908  0.00  0.00    +0.002 C 
ENDBRANCH   1  14
BRANCH   7  17
ATOM     17  C   UNL     1       7.724  -2.358  -5.717  0.00  0.00    +0.157 C 
BRANCH  17  18
ATOM     18  C   UNL     1       8.172  -3.743  -6.109  0.00  0.00    +0.133 C 
ATOM     19  O   UNL     1       7.416  -4.677  -5.992  0.00  0.00    -0.298 OA
BRANCH  18  20
ATOM     20  C   UNL     1       9.562  -3.961  -6.649  0.00  0.00    -0.003 C 
ATOM     21  C   UNL     1      10.578  -4.087  -5.486  0.00  0.00    -0.010 C 
ATOM     22  C   UNL     1      11.719  -4.898  -6.154  0.00  0.00    -0.020 C 
ATOM     23  C   UNL     1      10.960  -5.856  -7.095  0.00  0.00    -0.082 C 
ATOM     24  N   UNL     1       9.640  -5.252  -7.364  0.00  0.00    +0.386 N 
ATOM     25  H   UNL     1       8.912  -5.868  -7.034  0.00  0.00    -0.085 HD
ATOM     26  H   UNL     1       9.530  -5.099  -8.355  0.00  0.00    -0.085 HD
ENDBRANCH  18  20
ENDBRANCH  17  18
ENDBRANCH   7  17
TORSDOF 4
