REMARK  Name = ZINC35467002
REMARK  4 active torsions:
REMARK  status: ('A' for Active; 'I' for Inactive)
REMARK    1  A    between atoms: C_1  and  N_2
REMARK    2  A    between atoms: N_2  and  C_3
REMARK    3  A    between atoms: C_3  and  C_5
REMARK    4  A    between atoms: C_3  and  C_18
REMARK                            x       y       z     vdW  Elec       q    Type
REMARK                         _______ _______ _______ _____ _____    ______ ____
ROOT
ATOM      1  C   UNL     1       0.603  -1.981  -1.277  0.00  0.00    -0.056 A 
ATOM      2  C   UNL     1       0.742  -2.736  -0.124  0.00  0.00    +0.006 A 
ATOM      3  C   UNL     1       0.665  -4.112  -0.173  0.00  0.00    +0.047 A 
ATOM      4  C   UNL     1       0.447  -4.755  -1.385  0.00  0.00    +0.136 A 
ATOM      5  C   UNL     1       0.306  -3.988  -2.550  0.00  0.00    +0.028 A 
ATOM      6  C   UNL     1       0.381  -2.601  -2.489  0.00  0.00    +0.014 A 
ATOM      7  C   UNL     1       0.091  -4.957  -3.643  0.00  0.00    +0.028 A 
ATOM      8  C   UNL     1      -0.112  -4.838  -5.013  0.00  0.00    +0.012 A 
ATOM      9  C   UNL     1      -0.286  -5.972  -5.779  0.00  0.00    +0.001 A 
ATOM     10  C   UNL     1      -0.257  -7.224  -5.186  0.00  0.00    +0.004 A 
ATOM     11  C   UNL     1      -0.056  -7.353  -3.828  0.00  0.00    +0.047 A 
ATOM     12  C   UNL     1       0.121  -6.222  -3.039  0.00  0.00    +0.136 A 
ATOM     13  O   UNL     1       0.332  -6.061  -1.714  0.00  0.00    -0.455 OA
ENDROOT
BRANCH   1  14
ATOM     14  C   UNL     1       0.690  -0.478  -1.207  0.00  0.00    -0.007 C 
BRANCH  14  15
ATOM     15  C   UNL     1       2.137  -0.060  -1.158  0.00  0.00    -0.019 A 
ATOM     16  C   UNL     1       2.912   0.420  -2.238  0.00  0.00    +0.043 A 
ATOM     17  C   UNL     1       4.141   0.673  -1.754  0.00  0.00    +0.195 A 
ATOM     18  O   UNL     1       4.151   0.375  -0.445  0.00  0.00    -0.471 OA
ATOM     19  C   UNL     1       2.937  -0.066  -0.076  0.00  0.00    +0.197 A 
ENDBRANCH  14  15
BRANCH  14  21
ATOM     20  C   UNL     1      -0.018   1.465   0.010  0.00  0.00    -0.099 C 
ATOM     21  N   UNL     1       0.002  -0.004   0.002  0.00  0.00    +0.384 N 
ATOM     22  H   UNL     1       0.490  -0.338   0.820  0.00  0.00    -0.085 HD
ATOM     23  H   UNL     1      -0.945  -0.353   0.009  0.00  0.00    -0.085 HD
ENDBRANCH  14  21
ENDBRANCH   1  14
TORSDOF 3
