REMARK  Name = ZINC63405314
REMARK  10 active torsions:
REMARK  status: ('A' for Active; 'I' for Inactive)
REMARK    1  A    between atoms: C_1  and  C_2
REMARK    2  A    between atoms: C_2  and  C_3
REMARK    3  A    between atoms: C_2  and  C_4
REMARK    4  A    between atoms: C_2  and  C_5
REMARK    5  A    between atoms: C_7  and  C_11
REMARK    6  A    between atoms: C_11  and  S_12
REMARK    7  A    between atoms: S_12  and  C_13
REMARK    8  A    between atoms: N_19  and  C_20
REMARK    9  A    between atoms: C_20  and  C_21
REMARK   10  A    between atoms: C_21  and  C_22
REMARK                            x       y       z     vdW  Elec       q    Type
REMARK                         _______ _______ _______ _____ _____    ______ ____
ROOT
ATOM      1  C   UNL     1      -0.157   1.311  -6.000  0.00  0.00    +0.192 A 
ATOM      2  H   UNL     1      -1.005   0.939  -8.980  0.00  0.00    +0.194 HD
ATOM      3  N   UNL     1      -0.339   0.508  -7.009  0.00  0.00    -0.145 NA
ATOM      4  N   UNL     1      -0.788   1.272  -8.095  0.00  0.00    -0.226 N 
ATOM      5  C   UNL     1      -0.862   2.554  -7.684  0.00  0.00    +0.345 A 
ATOM      6  O   UNL     1      -1.215   3.506  -8.357  0.00  0.00    -0.245 OA
ATOM      7  N   UNL     1      -0.481   2.590  -6.392  0.00  0.00    -0.270 N 
ENDROOT
BRANCH   1   8
ATOM      8  S   UNL     1       0.403   0.838  -4.398  0.00  0.00    -0.081 S 
BRANCH   8   9
ATOM      9  C   UNL     1       0.651  -0.954  -4.531  0.00  0.00    +0.134 C 
BRANCH   9  12
ATOM     10  C   UNL     1       0.707  -0.490  -1.238  0.00  0.00    +0.108 C 
ATOM     11  N   UNL     1       0.160  -1.232  -2.137  0.00  0.00    -0.345 N 
ATOM     12  C   UNL     1       1.145  -1.502  -3.191  0.00  0.00    +0.253 C 
ATOM     13  O   UNL     1       2.337  -0.815  -2.778  0.00  0.00    -0.247 OA
ATOM     14  N   UNL     1       2.003  -0.193  -1.548  0.00  0.00    -0.251 N 
ATOM     15  H   UNL     1       2.599   0.353  -1.012  0.00  0.00    +0.195 HD
ATOM     16  H   UNL     1      -0.754  -1.558  -2.120  0.00  0.00    +0.163 HD
BRANCH  10  18
ATOM     17  C   UNL     1      -0.019   1.526   0.010  0.00  0.00    +0.018 C 
ATOM     18  C   UNL     1       0.002  -0.004   0.002  0.00  0.00    +0.020 C 
ATOM     19  C   UNL     1       0.742  -0.511   1.242  0.00  0.00    +0.018 C 
ATOM     20  C   UNL     1      -1.433  -0.534   0.013  0.00  0.00    +0.018 C 
ENDBRANCH  10  18
ENDBRANCH   9  12
ENDBRANCH   8   9
ENDBRANCH   1   8
BRANCH   7  21
ATOM     21  C   UNL     1      -0.419   3.787  -5.549  0.00  0.00    +0.133 C 
BRANCH  21  22
ATOM     22  C   UNL     1       0.967   4.423  -5.668  0.00  0.00    +0.057 C 
BRANCH  22  23
ATOM     23  C   UNL     1       1.031   5.654  -4.801  0.00  0.00    -0.046 A 
ATOM     24  C   UNL     1       0.670   6.884  -5.319  0.00  0.00    +0.004 A 
ATOM     25  C   UNL     1       0.729   8.013  -4.524  0.00  0.00    +0.000 A 
ATOM     26  C   UNL     1       1.148   7.912  -3.211  0.00  0.00    +0.000 A 
ATOM     27  C   UNL     1       1.508   6.683  -2.692  0.00  0.00    +0.000 A 
ATOM     28  C   UNL     1       1.445   5.553  -3.486  0.00  0.00    +0.004 A 
ENDBRANCH  22  23
ENDBRANCH  21  22
ENDBRANCH   7  21
TORSDOF 7
