REMARK  Name = ZINC54859633
REMARK  4 active torsions:
REMARK  status: ('A' for Active; 'I' for Inactive)
REMARK    1  A    between atoms: C_1  and  N_2
REMARK    2  A    between atoms: C_4  and  C_7
REMARK    3  A    between atoms: C_7  and  N_8
REMARK    4  A    between atoms: N_8  and  C_9
REMARK                            x       y       z     vdW  Elec       q    Type
REMARK                         _______ _______ _______ _____ _____    ______ ____
ROOT
ATOM      1  C   UNL     1       1.688  -4.924  -2.418  0.00  0.00    +0.050 A 
ATOM      2  C   UNL     1       0.642  -5.633  -2.997  0.00  0.00    +0.072 A 
ATOM      3  C   UNL     1       0.909  -6.770  -3.737  0.00  0.00    +0.144 A 
ATOM      4  C   UNL     1       2.224  -7.203  -3.900  0.00  0.00    +0.077 A 
ATOM      5  C   UNL     1       3.265  -6.495  -3.323  0.00  0.00    +0.048 A 
ATOM      6  C   UNL     1       2.998  -5.354  -2.587  0.00  0.00    +0.064 A 
ATOM      7 CL   UNL     1       4.303  -4.461  -1.869  0.00  0.00    -0.082 Cl
ATOM      8  N   UNL     1       2.477  -8.361  -4.653  0.00  0.00    -0.280 N 
ATOM      9  C   UNL     1       1.503  -8.846  -5.455  0.00  0.00    +0.255 C 
ATOM     10  O   UNL     1       1.688  -9.862  -6.091  0.00  0.00    -0.272 OA
ATOM     11  C   UNL     1       0.186  -8.119  -5.555  0.00  0.00    +0.325 C 
ATOM     12  O   UNL     1      -0.103  -7.475  -4.311  0.00  0.00    -0.481 OA
ATOM     13  H   UNL     1       3.337  -8.806  -4.599  0.00  0.00    +0.155 HD
ENDROOT
BRANCH   1  14
ATOM     14  N   UNL     1       1.421  -3.773  -1.669  0.00  0.00    -0.337 N 
ATOM     15  H   UNL     1       2.151  -3.275  -1.268  0.00  0.00    +0.146 HD
BRANCH  14  16
ATOM     16  C   UNL     1       0.040  -3.319  -1.490  0.00  0.00    +0.160 C 
BRANCH  16  20
ATOM     17  C   UNL     1      -0.018   1.461   0.010  0.00  0.00    +0.174 C 
ATOM     18  N   UNL     1       0.002  -0.004   0.002  0.00  0.00    -0.254 N 
ATOM     19  C   UNL     1       0.008  -0.791  -1.099  0.00  0.00    +0.134 A 
ATOM     20  C   UNL     1       0.027  -2.067  -0.650  0.00  0.00    +0.100 A 
ATOM     21  N   UNL     1       0.032  -2.000   0.686  0.00  0.00    -0.133 NA
ATOM     22  N   UNL     1       0.023  -0.764   1.041  0.00  0.00    -0.066 NA
ENDBRANCH  16  20
ENDBRANCH  14  16
ENDBRANCH   1  14
TORSDOF 3
