REMARK  Name = ZINC43366607
REMARK  8 active torsions:
REMARK  status: ('A' for Active; 'I' for Inactive)
REMARK    1  A    between atoms: C_1  and  C_2
REMARK    2  A    between atoms: C_2  and  C_3
REMARK    3  A    between atoms: C_3  and  C_5
REMARK    4  A    between atoms: C_3  and  N_23
REMARK    5  A    between atoms: C_5  and  C_7
REMARK    6  A    between atoms: C_5  and  O_13
REMARK    7  A    between atoms: C_10  and  C_12
REMARK    8  A    between atoms: O_13  and  C_14
REMARK                            x       y       z     vdW  Elec       q    Type
REMARK                         _______ _______ _______ _____ _____    ______ ____
ROOT
ATOM      1  C   UNL     1       0.563  -2.037   1.381  0.00  0.00    +0.224 C 
ENDROOT
BRANCH   1   2
ATOM      2  C   UNL     1       1.017  -2.708   2.652  0.00  0.00    +0.144 A 
ATOM      3  C   UNL     1       0.243  -2.979   3.718  0.00  0.00    +0.049 A 
ATOM      4  C   UNL     1       1.072  -3.608   4.676  0.00  0.00    +0.045 A 
ATOM      5  C   UNL     1       2.302  -3.682   4.138  0.00  0.00    +0.102 A 
ATOM      6  O   UNL     1       2.262  -3.141   2.910  0.00  0.00    -0.461 OA
ATOM      7  C   UNL     1       3.518  -4.278   4.800  0.00  0.00    +0.086 C 
ENDBRANCH   1   2
BRANCH   1   8
ATOM      8  C   UNL     1       0.968  -0.561   1.411  0.00  0.00    -0.026 C 
BRANCH   8   9
ATOM      9  N   UNL     1       2.417  -0.455   1.621  0.00  0.00    +0.383 N 
ATOM     10  H   UNL     1       2.901  -0.922   0.868  0.00  0.00    -0.089 HD
ATOM     11  H   UNL     1       2.684   0.518   1.641  0.00  0.00    -0.089 HD
ATOM     12  H   UNL     1       2.663  -0.889   2.498  0.00  0.00    -0.089 HD
ENDBRANCH   8   9
BRANCH   8  14
ATOM     13  C   UNL     1       0.872   1.599   0.159  0.00  0.00    +0.002 C 
ATOM     14  C   UNL     1       0.595   0.096   0.081  0.00  0.00    -0.016 C 
ENDBRANCH   8  14
ENDBRANCH   1   8
BRANCH   1  15
ATOM     15  O   UNL     1       1.176  -2.676   0.260  0.00  0.00    -0.483 OA
BRANCH  15  16
ATOM     16  C   UNL     1       0.569  -3.794  -0.221  0.00  0.00    +0.125 A 
ATOM     17  C   UNL     1      -0.548  -4.307   0.421  0.00  0.00    +0.049 A 
ATOM     18  C   UNL     1      -1.167  -5.442  -0.067  0.00  0.00    +0.053 A 
ATOM     19  C   UNL     1      -0.673  -6.072  -1.198  0.00  0.00    +0.166 A 
ATOM     20  C   UNL     1       0.448  -5.558  -1.844  0.00  0.00    +0.170 A 
ATOM     21  C   UNL     1       1.063  -4.417  -1.357  0.00  0.00    +0.095 A 
ATOM     22  O   UNL     1       0.732  -6.349  -2.920  0.00  0.00    -0.452 OA
ATOM     23  C   UNL     1       0.023  -7.581  -2.689  0.00  0.00    +0.466 C 
ATOM     24  O   UNL     1      -1.092  -7.185  -1.869  0.00  0.00    -0.453 OA
ENDBRANCH  15  16
ENDBRANCH   1  15
TORSDOF 6
