REMARK  Name = ZINC63970914
REMARK  7 active torsions:
REMARK  status: ('A' for Active; 'I' for Inactive)
REMARK    1  A    between atoms: C_1  and  C_2
REMARK    2  A    between atoms: C_2  and  C_4
REMARK    3  A    between atoms: C_2  and  N_11
REMARK    4  A    between atoms: N_9  and  C_10
REMARK    5  A    between atoms: C_14  and  C_17
REMARK    6  A    between atoms: C_20  and  O_26
REMARK    7  A    between atoms: O_26  and  C_27
REMARK                            x       y       z     vdW  Elec       q    Type
REMARK                         _______ _______ _______ _____ _____    ______ ____
ROOT
ATOM      1  N   UNL     1       1.009  -0.914   0.564  0.00  0.00    +0.387 N 
ATOM      2  C   UNL     1       1.010  -2.170  -0.196  0.00  0.00    -0.077 C 
ATOM      3  C   UNL     1       1.999  -3.152   0.435  0.00  0.00    -0.011 C 
ATOM      4  C   UNL     1       3.403  -2.539   0.413  0.00  0.00    +0.014 C 
ATOM      5  C   UNL     1       3.373  -1.194   1.145  0.00  0.00    -0.011 C 
ATOM      6  C   UNL     1       2.333  -0.284   0.487  0.00  0.00    -0.077 C 
ATOM      7  H   UNL     1       0.785  -1.107   1.529  0.00  0.00    -0.081 HD
ENDROOT
BRANCH   4   8
ATOM      8  C   UNL     1       4.369  -3.467   1.103  0.00  0.00    -0.038 C 
ATOM      9  C   UNL     1       5.468  -4.041   0.566  0.00  0.00    +0.003 A 
ATOM     10  C   UNL     1       6.072  -3.979  -0.769  0.00  0.00    +0.055 A 
ATOM     11  C   UNL     1       7.204  -4.680  -1.023  0.00  0.00    +0.121 A 
ATOM     12  C   UNL     1       7.830  -5.474  -0.047  0.00  0.00    +0.047 A 
ATOM     13  C   UNL     1       7.350  -5.595   1.209  0.00  0.00    +0.029 A 
ATOM     14  C   UNL     1       6.129  -4.878   1.594  0.00  0.00    +0.043 A 
ATOM     15  N   UNL     1       5.465  -4.823   2.721  0.00  0.00    -0.380 N 
ATOM     16  C   UNL     1       4.308  -3.939   2.539  0.00  0.00    +0.145 C 
ATOM     17  H   UNL     1       5.699  -5.287   3.540  0.00  0.00    +0.160 HD
BRANCH  11  18
ATOM     18  O   UNL     1       7.752  -4.613  -2.265  0.00  0.00    -0.495 OA
ATOM     19  C   UNL     1       8.945  -5.368  -2.489  0.00  0.00    +0.277 C 
ENDBRANCH  11  18
ENDBRANCH   4   8
BRANCH   1  21
ATOM     20  C   UNL     1       0.019   1.316   0.775  0.00  0.00    -0.004 C 
ATOM     21  C   UNL     1       0.002  -0.004   0.002  0.00  0.00    +0.017 C 
BRANCH  21  22
ATOM     22  C   UNL     1      -1.363  -0.634   0.114  0.00  0.00    +0.207 C 
ATOM     23  O   UNL     1      -1.591  -1.432   0.997  0.00  0.00    -0.277 OA
ATOM     24  N   UNL     1      -2.328  -0.310  -0.769  0.00  0.00    -0.242 N 
ATOM     25  C   UNL     1      -3.549  -0.873  -0.669  0.00  0.00    +0.306 C 
ATOM     26  O   UNL     1      -3.778  -1.673   0.217  0.00  0.00    -0.252 OA
ATOM     27  N   UNL     1      -4.515  -0.549  -1.551  0.00  0.00    -0.302 N 
ATOM     28  C   UNL     1      -5.841  -1.161  -1.442  0.00  0.00    +0.129 C 
ATOM     29  H   UNL     1      -2.145   0.329  -1.476  0.00  0.00    +0.159 HD
ATOM     30  H   UNL     1      -4.332   0.089  -2.258  0.00  0.00    +0.150 HD
ENDBRANCH  21  22
ENDBRANCH   1  21
TORSDOF 4
