REMARK  Name = ZINC04705018
REMARK  8 active torsions:
REMARK  status: ('A' for Active; 'I' for Inactive)
REMARK    1  A    between atoms: C_2  and  C_3
REMARK    2  A    between atoms: C_3  and  N_4
REMARK    3  A    between atoms: C_5  and  N_25
REMARK    4  A    between atoms: C_10  and  S_11
REMARK    5  A    between atoms: S_11  and  C_12
REMARK    6  A    between atoms: C_12  and  C_13
REMARK    7  A    between atoms: N_15  and  C_16
REMARK    8  A    between atoms: C_21  and  C_22
REMARK                            x       y       z     vdW  Elec       q    Type
REMARK                         _______ _______ _______ _____ _____    ______ ____
ROOT
ATOM      1  C   UNL     1       0.360  -5.179   0.289  0.00  0.00    +0.173 C 
ENDROOT
BRANCH   1   2
ATOM      2  C   UNL     1       0.938  -5.742   1.562  0.00  0.00    +0.228 C 
ATOM      3  O   UNL     1       0.988  -5.056   2.560  0.00  0.00    -0.275 OA
ATOM      4  N   UNL     1       1.398  -7.008   1.591  0.00  0.00    -0.284 N 
ATOM      5  H   UNL     1       1.285  -7.583   0.818  0.00  0.00    +0.155 HD
BRANCH   4   6
ATOM      6  C   UNL     1       2.036  -7.492   2.731  0.00  0.00    +0.046 A 
ATOM      7  C   UNL     1       2.665  -6.613   3.604  0.00  0.00    +0.024 A 
ATOM      8  C   UNL     1       3.297  -7.094   4.733  0.00  0.00    +0.002 A 
ATOM      9  C   UNL     1       3.309  -8.453   5.004  0.00  0.00    +0.001 A 
ATOM     10  C   UNL     1       2.691  -9.339   4.149  0.00  0.00    +0.015 A 
ATOM     11  C   UNL     1       2.042  -8.867   3.006  0.00  0.00    +0.058 A 
BRANCH  11  12
ATOM     12  C   UNL     1       1.373  -9.810   2.090  0.00  0.00    +0.243 C 
ATOM     13  O   UNL     1       0.892  -9.407   1.048  0.00  0.00    -0.270 OA
ATOM     14  N   UNL     1       1.294 -11.117   2.407  0.00  0.00    -0.325 N 
ATOM     15  H   UNL     1       1.678 -11.438   3.238  0.00  0.00    +0.145 HD
ATOM     16  H   UNL     1       0.854 -11.737   1.805  0.00  0.00    +0.145 HD
ENDBRANCH  11  12
ENDBRANCH   4   6
ENDBRANCH   1   2
BRANCH   1  17
ATOM     17  S   UNL     1      -0.168  -3.467   0.570  0.00  0.00    -0.080 S 
BRANCH  17  24
ATOM     18  N   UNL     1      -1.303  -1.695  -1.131  0.00  0.00    -0.306 N 
ATOM     19  C   UNL     1      -1.803  -1.281  -2.337  0.00  0.00    +0.103 A 
ATOM     20  C   UNL     1      -1.804  -2.151  -3.389  0.00  0.00    +0.111 A 
ATOM     21  C   UNL     1      -1.290  -3.449  -3.199  0.00  0.00    +0.254 A 
ATOM     22  O   UNL     1      -1.279  -4.247  -4.125  0.00  0.00    -0.268 OA
ATOM     23  N   UNL     1      -0.812  -3.806  -1.997  0.00  0.00    -0.303 N 
ATOM     24  C   UNL     1      -0.811  -2.958  -0.990  0.00  0.00    +0.152 A 
ATOM     25  H   UNL     1      -0.460  -4.701  -1.869  0.00  0.00    +0.171 HD
BRANCH  19  26
ATOM     26  N   UNL     1      -2.297  -0.005  -2.487  0.00  0.00    -0.344 N 
ATOM     27  H   UNL     1      -2.293   0.607  -1.735  0.00  0.00    +0.144 HD
ATOM     28  H   UNL     1      -2.649   0.281  -3.344  0.00  0.00    +0.144 HD
ENDBRANCH  19  26
BRANCH  18  29
ATOM     29  C   UNL     1      -1.293  -0.776   0.010  0.00  0.00    +0.152 C 
BRANCH  29  31
ATOM     30  C   UNL     1      -0.023   1.309   0.032  0.00  0.00    +0.005 C 
ATOM     31  C   UNL     1      -0.001  -0.001   0.019  0.00  0.00    -0.013 C 
ENDBRANCH  29  31
ENDBRANCH  18  29
ENDBRANCH  17  24
ENDBRANCH   1  17
TORSDOF 8
