REMARK  Name = ZINC38827304
REMARK  6 active torsions:
REMARK  status: ('A' for Active; 'I' for Inactive)
REMARK    1  A    between atoms: C_11  and  C_13
REMARK    2  A    between atoms: C_18  and  C_23
REMARK    3  A    between atoms: C_19  and  C_21
REMARK    4  A    between atoms: N_25  and  C_29
REMARK    5  A    between atoms: C_26  and  N_28
REMARK    6  A    between atoms: C_29  and  C_30
REMARK                            x       y       z     vdW  Elec       q    Type
REMARK                         _______ _______ _______ _____ _____    ______ ____
ROOT
ATOM      1  C   UNL     1       4.999  -2.586  -0.063  0.00  0.00    +0.109 C 
ATOM      2  C   UNL     1       5.436  -2.855  -1.486  0.00  0.00    +0.093 A 
ATOM      3  C   UNL     1       6.622  -2.154  -1.721  0.00  0.00    +0.144 A 
ATOM      4  N   UNL     1       7.203  -2.237  -2.917  0.00  0.00    -0.217 NA
ATOM      5  C   UNL     1       6.660  -2.979  -3.875  0.00  0.00    +0.178 A 
ATOM      6  C   UNL     1       5.467  -3.680  -3.628  0.00  0.00    +0.176 A 
ATOM      7  N   UNL     1       4.892  -3.593  -2.430  0.00  0.00    -0.234 NA
ATOM      8  N   UNL     1       7.024  -1.443  -0.602  0.00  0.00    -0.325 N 
ATOM      9  C   UNL     1       6.076  -1.645   0.500  0.00  0.00    +0.031 C 
ENDROOT
BRANCH   1  20
ATOM     10  C   UNL     1      -0.017   1.373   0.010  0.00  0.00    +0.001 A 
ATOM     11  C   UNL     1       1.169   2.096   0.002  0.00  0.00    +0.002 A 
ATOM     12  C   UNL     1       2.387   1.453  -0.013  0.00  0.00    +0.028 A 
ATOM     13  C   UNL     1       2.432   0.058  -0.021  0.00  0.00    +0.078 A 
ATOM     14  C   UNL     1       1.224  -0.674  -0.013  0.00  0.00    +0.065 A 
ATOM     15  C   UNL     1       0.002  -0.004   0.002  0.00  0.00    +0.015 A 
ATOM     16  C   UNL     1       1.306  -2.142  -0.022  0.00  0.00    +0.259 A 
ATOM     17  O   UNL     1       0.302  -2.832  -0.017  0.00  0.00    -0.267 OA
ATOM     18  N   UNL     1       2.540  -2.697  -0.038  0.00  0.00    -0.310 N 
ATOM     19  H   UNL     1       2.633  -3.663  -0.045  0.00  0.00    +0.170 HD
ATOM     20  C   UNL     1       3.650  -1.914  -0.045  0.00  0.00    +0.119 A 
ATOM     21  N   UNL     1       3.609  -0.616  -0.037  0.00  0.00    -0.233 NA
ENDBRANCH   1  20
BRANCH   9  22
ATOM     22  N   UNL     1       6.750  -2.269   1.646  0.00  0.00    +0.391 N 
ATOM     23  H   UNL     1       7.186  -3.130   1.351  0.00  0.00    -0.087 HD
ATOM     24  H   UNL     1       7.453  -1.642   2.006  0.00  0.00    -0.087 HD
ATOM     25  H   UNL     1       6.073  -2.465   2.368  0.00  0.00    -0.087 HD
ENDBRANCH   9  22
BRANCH   6  26
ATOM     26  C   UNL     1       4.876  -4.482  -4.656  0.00  0.00    +0.122 C 
ATOM     27  N   UNL     1       4.406  -5.119  -5.472  0.00  0.00    -0.189 NA
ENDBRANCH   6  26
BRANCH   5  28
ATOM     28  C   UNL     1       7.290  -3.065  -5.159  0.00  0.00    +0.122 C 
ATOM     29  N   UNL     1       7.789  -3.133  -6.177  0.00  0.00    -0.189 NA
ENDBRANCH   5  28
BRANCH   8  30
ATOM     30  C   UNL     1       8.226  -0.609  -0.529  0.00  0.00    +0.136 C 
BRANCH  30  31
ATOM     31  C   UNL     1       7.883   0.821  -0.952  0.00  0.00    +0.135 C 
ATOM     32  C   UNL     1       9.166   1.678  -0.994  0.00  0.00    +0.035 C 
ATOM     33  C   UNL     1       8.675   3.035  -0.420  0.00  0.00    +0.031 C 
ATOM     34  C   UNL     1       7.624   2.555   0.612  0.00  0.00    +0.160 C 
ATOM     35  O   UNL     1       6.996   1.411   0.005  0.00  0.00    -0.375 OA
ENDBRANCH  30  31
ENDBRANCH   8  30
TORSDOF 6
