REMARK  Name = ZINC38037577
REMARK  5 active torsions:
REMARK  status: ('A' for Active; 'I' for Inactive)
REMARK    1  A    between atoms: C_1  and  C_2
REMARK    2  A    between atoms: C_6  and  C_8
REMARK    3  A    between atoms: C_8  and  N_9
REMARK    4  A    between atoms: N_9  and  C_10
REMARK    5  A    between atoms: C_10  and  C_11
REMARK                            x       y       z     vdW  Elec       q    Type
REMARK                         _______ _______ _______ _____ _____    ______ ____
ROOT
ATOM      1  C   UNL     1       1.450  -3.534   4.263  0.00  0.00    -0.046 C 
ENDROOT
BRANCH   1   2
ATOM      2  C   UNL     1       2.870  -3.650   4.755  0.00  0.00    -0.060 A 
ATOM      3  C   UNL     1       3.637  -4.742   4.396  0.00  0.00    +0.051 A 
ATOM      4  C   UNL     1       4.944  -4.852   4.847  0.00  0.00    +0.163 A 
ATOM      5  C   UNL     1       5.481  -3.861   5.660  0.00  0.00    +0.176 A 
ATOM      6  C   UNL     1       4.705  -2.768   6.018  0.00  0.00    +0.063 A 
ATOM      7  C   UNL     1       3.404  -2.662   5.561  0.00  0.00    +0.021 A 
ATOM      8 BR   UNL     1       5.429  -1.418   7.127  0.00  0.00    -0.046 Br
ATOM      9  O   UNL     1       6.763  -3.945   6.107  0.00  0.00    -0.484 OA
ATOM     10  C   UNL     1       7.387  -5.232   6.035  0.00  0.00    +0.270 C 
ATOM     11  C   UNL     1       7.104  -5.826   4.648  0.00  0.00    +0.270 C 
ATOM     12  O   UNL     1       5.686  -5.936   4.488  0.00  0.00    -0.485 OA
ENDBRANCH   1   2
BRANCH   1  13
ATOM     13  N   UNL     1       1.434  -2.820   2.979  0.00  0.00    +0.385 N 
ATOM     14  H   UNL     1       1.984  -3.330   2.304  0.00  0.00    -0.085 HD
ATOM     15  H   UNL     1       1.825  -1.898   3.102  0.00  0.00    -0.085 HD
BRANCH  13  16
ATOM     16  C   UNL     1       0.051  -2.707   2.499  0.00  0.00    -0.026 C 
BRANCH  16  22
ATOM     17  C   UNL     1      -0.018   1.503   0.010  0.00  0.00    +0.088 C 
ATOM     18  C   UNL     1       0.002  -0.004   0.002  0.00  0.00    +0.126 A 
ATOM     19  N   UNL     1       0.005  -0.639  -1.153  0.00  0.00    -0.241 NA
ATOM     20  C   UNL     1       0.023  -1.962  -1.199  0.00  0.00    +0.114 A 
ATOM     21  C   UNL     1       0.038  -2.678  -0.013  0.00  0.00    +0.041 A 
ATOM     22  C   UNL     1       0.035  -1.975   1.182  0.00  0.00    +0.028 A 
ATOM     23  N   UNL     1       0.022  -0.651   1.150  0.00  0.00    -0.239 NA
ENDBRANCH  16  22
ENDBRANCH  13  16
ENDBRANCH   1  13
TORSDOF 4
