REMARK  Name = ZINC63493715
REMARK  7 active torsions:
REMARK  status: ('A' for Active; 'I' for Inactive)
REMARK    1  A    between atoms: C_1  and  C_2
REMARK    2  A    between atoms: C_2  and  N_3
REMARK    3  A    between atoms: N_3  and  C_4
REMARK    4  A    between atoms: N_3  and  C_21
REMARK    5  A    between atoms: C_4  and  C_5
REMARK    6  A    between atoms: C_5  and  C_6
REMARK    7  A    between atoms: N_8  and  N_9
REMARK                            x       y       z     vdW  Elec       q    Type
REMARK                         _______ _______ _______ _____ _____    ______ ____
ROOT
ATOM      1  C   UNL     1       3.673   1.923  -0.542  0.00  0.00    +0.228 C 
ATOM      2  O   UNL     1       4.539   1.075  -0.499  0.00  0.00    -0.274 OA
ATOM      3  N   UNL     1       3.986   3.217  -0.330  0.00  0.00    -0.224 N 
ATOM      4  H   UNL     1       3.294   3.896  -0.364  0.00  0.00    +0.174 HD
ENDROOT
BRANCH   3   5
ATOM      5  N   UNL     1       5.311   3.582  -0.059  0.00  0.00    -0.137 N 
ATOM      6  C   UNL     1       5.770   3.921   1.163  0.00  0.00    +0.263 C 
ATOM      7  O   UNL     1       5.139   3.967   2.197  0.00  0.00    -0.271 OA
ATOM      8  C   UNL     1       7.237   4.232   0.972  0.00  0.00    +0.114 C 
ATOM      9  C   UNL     1       8.094   3.280   1.799  0.00  0.00    +0.035 C 
ATOM     10  C   UNL     1       9.575   3.591   1.568  0.00  0.00    +0.003 C 
ATOM     11  C   UNL     1       9.859   5.040   1.970  0.00  0.00    +0.000 C 
ATOM     12  C   UNL     1       9.009   5.984   1.116  0.00  0.00    +0.003 C 
ATOM     13  C   UNL     1       7.526   5.681   1.345  0.00  0.00    +0.035 C 
ATOM     14  N   UNL     1       7.464   4.014  -0.462  0.00  0.00    -0.284 N 
ATOM     15  C   UNL     1       6.281   3.631  -0.981  0.00  0.00    +0.326 C 
ATOM     16  O   UNL     1       6.113   3.364  -2.154  0.00  0.00    -0.251 OA
ATOM     17  H   UNL     1       8.300   4.122  -0.941  0.00  0.00    +0.151 HD
ENDBRANCH   3   5
BRANCH   1  18
ATOM     18  C   UNL     1       2.248   1.531  -0.833  0.00  0.00    +0.079 C 
BRANCH  18  19
ATOM     19  C   UNL     1       2.166   0.016  -1.033  0.00  0.00    -0.069 C 
BRANCH  19  20
ATOM     20  N   UNL     1       0.806  -0.350  -1.449  0.00  0.00    +0.382 N 
ATOM     21  H   UNL     1       0.555   0.171  -2.276  0.00  0.00    -0.081 HD
BRANCH  20  22
ATOM     22  C   UNL     1       0.754  -1.789  -1.743  0.00  0.00    -0.069 C 
ATOM     23  C   UNL     1       1.737  -2.114  -2.870  0.00  0.00    -0.015 C 
ATOM     24  C   UNL     1       1.684  -3.612  -3.176  0.00  0.00    -0.002 C 
ATOM     25  C   UNL     1       0.267  -3.994  -3.609  0.00  0.00    -0.000 C 
ATOM     26  C   UNL     1      -0.716  -3.668  -2.483  0.00  0.00    -0.002 C 
ATOM     27  C   UNL     1      -0.662  -2.170  -2.176  0.00  0.00    -0.015 C 
ENDBRANCH  20  22
BRANCH  20  29
ATOM     28  C   UNL     1       0.174  -0.911   0.850  0.00  0.00    -0.017 C 
ATOM     29  C   UNL     1      -0.138  -0.038  -0.367  0.00  0.00    -0.082 C 
ENDBRANCH  20  29
ENDBRANCH  19  20
ENDBRANCH  18  19
ENDBRANCH   1  18
TORSDOF 6
