REMARK  Name = ZINC40217570
REMARK  8 active torsions:
REMARK  status: ('A' for Active; 'I' for Inactive)
REMARK    1  A    between atoms: C_1  and  C_2
REMARK    2  A    between atoms: C_2  and  N_3
REMARK    3  A    between atoms: N_3  and  C_4
REMARK    4  A    between atoms: N_3  and  S_6
REMARK    5  A    between atoms: C_4  and  C_5
REMARK    6  A    between atoms: S_6  and  N_9
REMARK    7  A    between atoms: N_12  and  S_15
REMARK    8  A    between atoms: S_15  and  N_18
REMARK                            x       y       z     vdW  Elec       q    Type
REMARK                         _______ _______ _______ _____ _____    ______ ____
ROOT
ATOM      1  N   UNL     1      -2.849   0.546   2.079  0.00  0.00    -0.164 NA
ATOM      2  C   UNL     1      -2.219   1.588   2.902  0.00  0.00    +0.127 C 
ATOM      3  C   UNL     1      -2.343   2.931   2.172  0.00  0.00    +0.127 C 
ATOM      4  N   UNL     1      -3.739   3.109   1.750  0.00  0.00    -0.164 NA
ATOM      5  C   UNL     1      -4.369   2.067   0.927  0.00  0.00    +0.127 C 
ATOM      6  C   UNL     1      -4.244   0.727   1.652  0.00  0.00    +0.127 C 
ENDROOT
BRANCH   1   7
ATOM      7  S   UNL     1      -2.001  -0.805   1.634  0.00  0.00    +0.100 S 
ATOM      8  O   UNL     1      -2.962  -1.797   1.302  0.00  0.00    -0.141 OA
ATOM      9  O   UNL     1      -1.009  -1.008   2.631  0.00  0.00    -0.141 OA
BRANCH   7  10
ATOM     10  N   UNL     1      -1.196  -0.438   0.234  0.00  0.00    -0.167 NA
BRANCH  10  12
ATOM     11  C   UNL     1       0.277   1.514   0.294  0.00  0.00    +0.022 C 
ATOM     12  C   UNL     1       0.206  -0.015   0.284  0.00  0.00    +0.107 C 
ENDBRANCH  10  12
BRANCH  10  13
ATOM     13  C   UNL     1      -1.885  -0.537  -1.055  0.00  0.00    +0.107 C 
ATOM     14  C   UNL     1      -1.603  -1.905  -1.681  0.00  0.00    +0.022 C 
ENDBRANCH  10  13
ENDBRANCH   7  10
ENDBRANCH   1   7
BRANCH   4  15
ATOM     15  S   UNL     1      -4.588   4.460   2.195  0.00  0.00    +0.095 S 
ATOM     16  O   UNL     1      -5.964   4.109   2.147  0.00  0.00    -0.141 OA
ATOM     17  O   UNL     1      -3.970   4.959   3.373  0.00  0.00    -0.141 OA
BRANCH  15  18
ATOM     18  N   UNL     1      -4.349   5.599   1.016  0.00  0.00    -0.193 NA
ATOM     19  H   UNL     1      -5.038   6.255   0.829  0.00  0.00    +0.145 HD
ATOM     20  H   UNL     1      -3.520   5.609   0.513  0.00  0.00    +0.145 HD
ENDBRANCH  15  18
ENDBRANCH   4  15
TORSDOF 6
