REMARK  Name = ZINC35234070
REMARK  3 active torsions:
REMARK  status: ('A' for Active; 'I' for Inactive)
REMARK    1  A    between atoms: C_4  and  C_7
REMARK    2  A    between atoms: C_10  and  C_13
REMARK    3  A    between atoms: C_19  and  O_22
REMARK                            x       y       z     vdW  Elec       q    Type
REMARK                         _______ _______ _______ _____ _____    ______ ____
ROOT
ATOM      1  C   UNL     1       3.694  -0.683  -0.037  0.00  0.00    +0.091 C 
ATOM      2  N   UNL     1       4.863  -0.137  -0.040  0.00  0.00    -0.088 NA
ATOM      3  O   UNL     1       5.913  -1.084  -0.064  0.00  0.00    -0.380 OA
ATOM      4  C   UNL     1       5.362  -2.355   0.336  0.00  0.00    +0.295 C 
ATOM      5  C   UNL     1       3.873  -2.190  -0.047  0.00  0.00    +0.116 C 
ENDROOT
BRANCH   4   6
ATOM      6  C   UNL     1       5.999  -3.485  -0.432  0.00  0.00    +0.259 C 
ATOM      7  O   UNL     1       6.808  -3.245  -1.303  0.00  0.00    -0.271 OA
ATOM      8  N   UNL     1       5.669  -4.761  -0.151  0.00  0.00    -0.296 N 
ATOM      9  C   UNL     1       4.686  -5.066   0.898  0.00  0.00    +0.108 C 
ATOM     10  C   UNL     1       5.310  -6.058   1.885  0.00  0.00    +0.021 C 
ATOM     11  C   UNL     1       5.815  -7.283   1.120  0.00  0.00    +0.034 C 
ATOM     12  C   UNL     1       6.891  -6.855   0.120  0.00  0.00    +0.132 C 
ATOM     13  C   UNL     1       6.281  -5.872  -0.891  0.00  0.00    +0.139 C 
BRANCH  12  14
ATOM     14  O   UNL     1       7.384  -8.005  -0.571  0.00  0.00    -0.390 OA
ATOM     15  H   UNL     1       7.781  -8.671   0.007  0.00  0.00    +0.210 HD
ENDBRANCH  12  14
ENDBRANCH   4   6
BRANCH   1  19
ATOM     16  C   UNL     1      -0.017   1.379   0.010  0.00  0.00    +0.000 A 
ATOM     17  C   UNL     1       1.168   2.094   0.002  0.00  0.00    +0.001 A 
ATOM     18  C   UNL     1       2.377   1.430  -0.013  0.00  0.00    +0.010 A 
ATOM     19  C   UNL     1       2.404   0.034  -0.021  0.00  0.00    -0.000 A 
ATOM     20  C   UNL     1       1.204  -0.681  -0.013  0.00  0.00    +0.010 A 
ATOM     21  C   UNL     1       0.002  -0.004   0.002  0.00  0.00    +0.001 A 
ENDBRANCH   1  19
TORSDOF 3
