REMARK  Name = ZINC39760484
REMARK  8 active torsions:
REMARK  status: ('A' for Active; 'I' for Inactive)
REMARK    1  A    between atoms: C_1  and  C_2
REMARK    2  A    between atoms: C_2  and  C_3
REMARK    3  A    between atoms: C_2  and  N_4
REMARK    4  A    between atoms: C_8  and  C_10
REMARK    5  A    between atoms: C_10  and  S_11
REMARK    6  A    between atoms: S_11  and  C_12
REMARK    7  A    between atoms: C_16  and  C_21
REMARK    8  A    between atoms: N_17  and  C_18
REMARK                            x       y       z     vdW  Elec       q    Type
REMARK                         _______ _______ _______ _____ _____    ______ ____
ROOT
ATOM      1  C   UNL     1       7.124  -2.257  -4.801  0.00  0.00    +0.237 C 
ATOM      2  N   UNL     1       6.573  -1.351  -5.822  0.00  0.00    -0.237 N 
ATOM      3  N   UNL     1       5.994  -2.165  -6.804  0.00  0.00    -0.169 NA
ATOM      4  C   UNL     1       6.124  -3.431  -6.508  0.00  0.00    +0.147 C 
ATOM      5  N   UNL     1       6.806  -3.606  -5.297  0.00  0.00    -0.282 N 
ATOM      6  H   UNL     1       6.604  -0.382  -5.816  0.00  0.00    +0.171 HD
ENDROOT
BRANCH   4   7
ATOM      7  C   UNL     1       5.643  -4.482  -7.303  0.00  0.00    +0.022 C 
ATOM      8  C   UNL     1       5.047  -4.385  -8.561  0.00  0.00    +0.006 A 
ATOM      9  C   UNL     1       4.752  -3.284  -9.393  0.00  0.00    +0.010 A 
ATOM     10  C   UNL     1       4.155  -3.489 -10.595  0.00  0.00    +0.001 A 
ATOM     11  C   UNL     1       3.822  -4.771 -11.037  0.00  0.00    +0.002 A 
ATOM     12  C   UNL     1       4.077  -5.873 -10.290  0.00  0.00    +0.026 A 
ATOM     13  C   UNL     1       4.698  -5.738  -9.022  0.00  0.00    +0.043 A 
ATOM     14  N   UNL     1       5.047  -6.636  -8.121  0.00  0.00    -0.380 N 
ATOM     15  C   UNL     1       5.667  -5.960  -6.978  0.00  0.00    +0.152 C 
ATOM     16  H   UNL     1       4.917  -7.594  -8.204  0.00  0.00    +0.160 HD
ENDBRANCH   4   7
BRANCH   5  17
ATOM     17  C   UNL     1       7.137  -4.878  -4.651  0.00  0.00    +0.078 C 
ATOM     18  C   UNL     1       7.813  -4.818  -3.280  0.00  0.00    +0.024 C 
ATOM     19  C   UNL     1       8.618  -5.236  -4.513  0.00  0.00    +0.024 C 
ENDBRANCH   5  17
BRANCH   1  20
ATOM     20  S   UNL     1       6.326  -1.966  -3.198  0.00  0.00    -0.109 S 
BRANCH  20  21
ATOM     21  C   UNL     1       4.560  -2.205  -3.537  0.00  0.00    +0.168 C 
BRANCH  21  26
ATOM     22  N   UNL     1       0.383  -2.049  -1.163  0.00  0.00    -0.297 N 
ATOM     23  C   UNL     1       1.725  -1.923  -1.151  0.00  0.00    +0.306 C 
ATOM     24  O   UNL     1       2.299  -1.636  -0.119  0.00  0.00    -0.252 OA
ATOM     25  N   UNL     1       2.430  -2.116  -2.283  0.00  0.00    -0.240 N 
ATOM     26  C   UNL     1       3.772  -1.990  -2.271  0.00  0.00    +0.230 C 
ATOM     27  O   UNL     1       4.345  -1.703  -1.242  0.00  0.00    -0.274 OA
ATOM     28  H   UNL     1      -0.075  -2.278  -1.986  0.00  0.00    +0.151 HD
ATOM     29  H   UNL     1       1.972  -2.345  -3.107  0.00  0.00    +0.159 HD
BRANCH  22  31
ATOM     30  C   UNL     1      -0.671  -0.347   0.242  0.00  0.00    +0.027 C 
ATOM     31  C   UNL     1      -0.383  -1.840   0.068  0.00  0.00    +0.068 C 
ATOM     32  C   UNL     1      -1.704  -2.608  -0.017  0.00  0.00    +0.027 C 
ENDBRANCH  22  31
ENDBRANCH  21  26
ENDBRANCH  20  21
ENDBRANCH   1  20
TORSDOF 6
