REMARK  Name = ZINC16930008
REMARK  9 active torsions:
REMARK  status: ('A' for Active; 'I' for Inactive)
REMARK    1  A    between atoms: C_1  and  C_2
REMARK    2  A    between atoms: C_2  and  C_3
REMARK    3  A    between atoms: C_3  and  C_5
REMARK    4  A    between atoms: C_3  and  O_7
REMARK    5  A    between atoms: O_7  and  C_8
REMARK    6  A    between atoms: C_13  and  C_14
REMARK    7  A    between atoms: N_18  and  N_22
REMARK    8  A    between atoms: C_23  and  C_25
REMARK    9  A    between atoms: C_30  and  O_31
REMARK                            x       y       z     vdW  Elec       q    Type
REMARK                         _______ _______ _______ _____ _____    ______ ____
ROOT
ATOM      1  C   UNL     1      -0.102   5.074   0.094  0.00  0.00    +0.032 C 
ATOM      2  C   UNL     1      -1.016   6.070   0.209  0.00  0.00    +0.079 C 
ATOM      3  C   UNL     1      -0.809   7.526   0.345  0.00  0.00    +0.275 C 
ATOM      4  O   UNL     1       0.305   8.014   0.370  0.00  0.00    -0.267 OA
ATOM      5  N   UNL     1      -1.897   8.273   0.439  0.00  0.00    -0.169 N 
ATOM      6  C   UNL     1      -3.130   7.728   0.411  0.00  0.00    +0.138 C 
ATOM      7  S   UNL     1      -4.645   8.519   0.517  0.00  0.00    -0.026 S 
ATOM      8  S   UNL     1      -2.802   5.982   0.228  0.00  0.00    -0.059 S 
ENDROOT
BRANCH   1  14
ATOM      9  C   UNL     1       0.303   2.659  -0.360  0.00  0.00    +0.129 A 
ATOM     10  C   UNL     1      -0.117   1.339  -0.319  0.00  0.00    +0.046 A 
ATOM     11  C   UNL     1      -1.356   1.022   0.204  0.00  0.00    +0.004 A 
ATOM     12  C   UNL     1      -2.190   2.018   0.686  0.00  0.00    +0.001 A 
ATOM     13  C   UNL     1      -1.789   3.336   0.658  0.00  0.00    +0.011 A 
ATOM     14  C   UNL     1      -0.536   3.672   0.131  0.00  0.00    +0.018 A 
BRANCH   9  15
ATOM     15  O   UNL     1       1.520   2.970  -0.874  0.00  0.00    -0.477 OA
BRANCH  15  16
ATOM     16  C   UNL     1       2.365   1.881  -1.250  0.00  0.00    +0.285 C 
BRANCH  16  17
ATOM     17  C   UNL     1       2.026   1.443  -2.651  0.00  0.00    +0.396 C 
ATOM     18  O   UNL     1       1.216   2.062  -3.299  0.00  0.00    -0.242 OA
ATOM     19  O   UNL     1       2.626   0.365  -3.181  0.00  0.00    -0.242 OA
ENDBRANCH  16  17
BRANCH  16  21
ATOM     20  C   UNL     1       4.206   2.651   0.253  0.00  0.00    +0.008 C 
ATOM     21  C   UNL     1       3.828   2.326  -1.194  0.00  0.00    +0.053 C 
ENDBRANCH  16  21
ENDBRANCH  15  16
ENDBRANCH   9  15
ENDBRANCH   1  14
BRANCH   5  22
ATOM     22  N   UNL     1      -1.764   9.661   0.570  0.00  0.00    -0.222 N 
ATOM     23  C   UNL     1      -2.024  10.465  -0.480  0.00  0.00    +0.264 C 
ATOM     24  O   UNL     1      -2.373   9.985  -1.541  0.00  0.00    -0.269 OA
ATOM     25  H   UNL     1      -1.486  10.044   1.417  0.00  0.00    +0.174 HD
BRANCH  23  26
ATOM     26  C   UNL     1      -1.885  11.927  -0.342  0.00  0.00    +0.079 A 
ATOM     27  C   UNL     1      -1.489  12.483   0.877  0.00  0.00    +0.017 A 
ATOM     28  C   UNL     1      -1.357  13.850   0.998  0.00  0.00    +0.001 A 
ATOM     29  C   UNL     1      -1.623  14.676  -0.081  0.00  0.00    +0.004 A 
ATOM     30  C   UNL     1      -2.020  14.140  -1.290  0.00  0.00    +0.046 A 
ATOM     31  C   UNL     1      -2.154  12.767  -1.431  0.00  0.00    +0.129 A 
BRANCH  31  32
ATOM     32  O   UNL     1      -2.543  12.239  -2.619  0.00  0.00    -0.506 OA
ATOM     33  H   UNL     1      -3.501  12.143  -2.711  0.00  0.00    +0.292 HD
ENDBRANCH  31  32
ENDBRANCH  23  26
ENDBRANCH   5  22
TORSDOF 8
