REMARK  Name = ZINC36017296
REMARK  16 active torsions:
REMARK  status: ('A' for Active; 'I' for Inactive)
REMARK    1  A    between atoms: C_1  and  C_2
REMARK    2  A    between atoms: C_2  and  N_3
REMARK    3  A    between atoms: C_4  and  C_26
REMARK    4  A    between atoms: C_5  and  C_21
REMARK    5  A    between atoms: C_6  and  C_11
REMARK    6  A    between atoms: C_15  and  O_19
REMARK    7  A    between atoms: C_16  and  O_17
REMARK    8  A    between atoms: O_17  and  C_18
REMARK    9  A    between atoms: O_19  and  C_20
REMARK   10  A    between atoms: C_21  and  O_23
REMARK   11  A    between atoms: O_23  and  C_24
REMARK   12  A    between atoms: C_24  and  C_25
REMARK   13  A    between atoms: C_26  and  N_27
REMARK   14  A    between atoms: N_35  and  C_36
REMARK   15  A    between atoms: C_36  and  C_37
REMARK   16  A    between atoms: C_36  and  C_38
REMARK                            x       y       z     vdW  Elec       q    Type
REMARK                         _______ _______ _______ _____ _____    ______ ____
ROOT
ATOM      1  N   UNL     1      -1.801  -0.382   0.047  0.00  0.00    -0.258 N 
ATOM      2  C   UNL     1      -2.569  -0.537   1.165  0.00  0.00    +0.041 C 
ATOM      3  C   UNL     1      -3.848  -0.964   1.078  0.00  0.00    +0.080 C 
ATOM      4  C   UNL     1      -4.399  -1.264  -0.301  0.00  0.00    +0.147 C 
ATOM      5  N   UNL     1      -3.489  -1.064  -1.441  0.00  0.00    -0.288 N 
ATOM      6  C   UNL     1      -2.238  -0.628  -1.195  0.00  0.00    +0.307 C 
ATOM      7  O   UNL     1      -1.480  -0.456  -2.130  0.00  0.00    -0.252 OA
ATOM      8  H   UNL     1      -3.784  -1.239  -2.349  0.00  0.00    +0.151 HD
ENDROOT
BRANCH   4   9
ATOM      9  C   UNL     1      -4.854  -2.701  -0.317  0.00  0.00    +0.023 A 
ATOM     10  C   UNL     1      -3.990  -3.695  -0.738  0.00  0.00    +0.009 A 
ATOM     11  C   UNL     1      -4.404  -5.013  -0.754  0.00  0.00    +0.004 A 
ATOM     12  C   UNL     1      -5.684  -5.344  -0.350  0.00  0.00    +0.049 A 
ATOM     13  C   UNL     1      -6.555  -4.353   0.073  0.00  0.00    +0.162 A 
ATOM     14  C   UNL     1      -6.136  -3.026   0.095  0.00  0.00    +0.167 A 
BRANCH  14  15
ATOM     15  O   UNL     1      -6.985  -2.050   0.515  0.00  0.00    -0.491 OA
ATOM     16  C   UNL     1      -7.811  -1.438  -0.477  0.00  0.00    +0.277 C 
ENDBRANCH  14  15
BRANCH  13  17
ATOM     17  O   UNL     1      -7.814  -4.677   0.472  0.00  0.00    -0.491 OA
ATOM     18  C   UNL     1      -8.173  -6.059   0.428  0.00  0.00    +0.277 C 
ENDBRANCH  13  17
ENDBRANCH   4   9
BRANCH   1  20
ATOM     19  C   UNL     1      -0.391   1.613   0.161  0.00  0.00    +0.025 C 
ATOM     20  C   UNL     1      -0.422   0.084   0.214  0.00  0.00    +0.111 C 
ENDBRANCH   1  20
BRANCH   3  21
ATOM     21  C   UNL     1      -4.645  -1.126   2.236  0.00  0.00    +0.339 C 
ATOM     22  O   UNL     1      -5.537  -0.335   2.475  0.00  0.00    -0.245 OA
BRANCH  21  23
ATOM     23  O   UNL     1      -4.415  -2.159   3.074  0.00  0.00    -0.462 OA
BRANCH  23  24
ATOM     24  C   UNL     1      -5.258  -2.261   4.223  0.00  0.00    +0.229 C 
ATOM     25  C   UNL     1      -4.850  -3.484   5.047  0.00  0.00    +0.048 C 
ENDBRANCH  23  24
ENDBRANCH  21  23
ENDBRANCH   3  21
BRANCH   2  26
ATOM     26  C   UNL     1      -1.981  -0.228   2.517  0.00  0.00    +0.136 C 
BRANCH  26  27
ATOM     27  N   UNL     1      -0.899  -1.177   2.809  0.00  0.00    -0.294 NA
ATOM     28  C   UNL     1      -1.420  -2.543   2.951  0.00  0.00    +0.104 C 
ATOM     29  C   UNL     1      -0.249  -3.523   3.074  0.00  0.00    +0.124 C 
ATOM     30  N   UNL     1       0.624  -3.073   4.169  0.00  0.00    -0.283 N 
ATOM     31  C   UNL     1       1.077  -1.674   4.169  0.00  0.00    +0.124 C 
ATOM     32  C   UNL     1      -0.147  -0.767   4.003  0.00  0.00    +0.104 C 
ATOM     33  C   UNL     1       0.999  -3.921   5.147  0.00  0.00    +0.302 C 
ATOM     34  O   UNL     1       0.549  -5.050   5.179  0.00  0.00    -0.253 OA
ATOM     35  N   UNL     1       1.874  -3.518   6.090  0.00  0.00    -0.297 N 
ATOM     36  H   UNL     1       2.178  -2.597   6.107  0.00  0.00    +0.150 HD
BRANCH  35  37
ATOM     37  C   UNL     1       2.366  -4.471   7.088  0.00  0.00    +0.068 C 
ATOM     38  C   UNL     1       3.727  -4.006   7.610  0.00  0.00    +0.027 C 
ATOM     39  C   UNL     1       1.374  -4.548   8.251  0.00  0.00    +0.027 C 
ENDBRANCH  35  37
ENDBRANCH  26  27
ENDBRANCH   2  26
TORSDOF 10
