REMARK  Name = ZINC63010998
REMARK  5 active torsions:
REMARK  status: ('A' for Active; 'I' for Inactive)
REMARK    1  A    between atoms: C_1  and  C_2
REMARK    2  A    between atoms: C_2  and  C_4
REMARK    3  A    between atoms: C_2  and  N_10
REMARK    4  A    between atoms: N_8  and  C_9
REMARK    5  A    between atoms: C_11  and  C_13
REMARK                            x       y       z     vdW  Elec       q    Type
REMARK                         _______ _______ _______ _____ _____    ______ ____
ROOT
ATOM      1  N   UNL     1       0.711  -0.489   1.189  0.00  0.00    -0.302 N 
ATOM      2  C   UNL     1       2.054  -0.600   1.174  0.00  0.00    +0.245 C 
ATOM      3  O   UNL     1       2.677  -0.297   0.175  0.00  0.00    -0.270 OA
ATOM      4  H   UNL     1       0.213  -0.731   1.986  0.00  0.00    +0.150 HD
ENDROOT
BRANCH   2   5
ATOM      5  C   UNL     1       2.768  -1.089   2.370  0.00  0.00    +0.042 A 
ATOM      6  C   UNL     1       2.054  -1.443   3.517  0.00  0.00    +0.054 A 
ATOM      7  C   UNL     1       2.726  -1.900   4.633  0.00  0.00    +0.162 A 
ATOM      8  C   UNL     1       4.109  -2.008   4.617  0.00  0.00    +0.193 A 
ATOM      9  C   UNL     1       4.824  -1.657   3.480  0.00  0.00    +0.162 A 
ATOM     10  C   UNL     1       4.160  -1.204   2.357  0.00  0.00    +0.054 A 
ATOM     11  F   UNL     1       6.170  -1.763   3.470  0.00  0.00    -0.202 F 
ATOM     12  F   UNL     1       4.763  -2.455   5.712  0.00  0.00    -0.199 F 
ATOM     13  F   UNL     1       2.035  -2.243   5.743  0.00  0.00    -0.202 F 
ENDBRANCH   2   5
BRANCH   1  15
ATOM     14  C   UNL     1      -0.019   1.526   0.010  0.00  0.00    +0.036 C 
ATOM     15  C   UNL     1       0.002  -0.004   0.002  0.00  0.00    +0.138 C 
BRANCH  15  16
ATOM     16  C   UNL     1      -1.412  -0.526   0.013  0.00  0.00    +0.153 A 
ATOM     17  N   UNL     1      -2.224  -0.538   1.034  0.00  0.00    -0.133 NA
ATOM     18  N   UNL     1      -3.349  -1.054   0.686  0.00  0.00    -0.138 NA
ATOM     19  C   UNL     1      -3.307  -1.393  -0.573  0.00  0.00    +0.224 A 
ATOM     20  N   UNL     1      -2.077  -1.063  -1.038  0.00  0.00    -0.319 N 
ATOM     21  C   UNL     1      -1.570  -1.252  -2.399  0.00  0.00    +0.151 C 
ENDBRANCH  15  16
ENDBRANCH   1  15
TORSDOF 3
