REMARK  Name = ZINC05349091
REMARK  9 active torsions:
REMARK  status: ('A' for Active; 'I' for Inactive)
REMARK    1  A    between atoms: C_1  and  C_2
REMARK    2  A    between atoms: C_5  and  C_8
REMARK    3  A    between atoms: C_13  and  O_28
REMARK    4  A    between atoms: N_20  and  C_23
REMARK    5  A    between atoms: C_23  and  C_24
REMARK    6  A    between atoms: C_24  and  C_25
REMARK    7  A    between atoms: C_25  and  N_56
REMARK    8  A    between atoms: C_26  and  N_56
REMARK    9  A    between atoms: C_27  and  N_56
REMARK                            x       y       z     vdW  Elec       q    Type
REMARK                         _______ _______ _______ _____ _____    ______ ____
ROOT
ATOM      1  C   UNL     1       4.861  -1.071  -1.951  0.00  0.00    +0.091 C 
ATOM      2  C   UNL     1       5.728  -1.119  -3.180  0.00  0.00    +0.007 A 
ATOM      3  C   UNL     1       7.061  -0.758  -3.090  0.00  0.00    +0.012 A 
ATOM      4  C   UNL     1       7.870  -0.795  -4.208  0.00  0.00    +0.046 A 
ATOM      5  C   UNL     1       7.346  -1.195  -5.430  0.00  0.00    +0.120 A 
ATOM      6  C   UNL     1       6.012  -1.558  -5.524  0.00  0.00    +0.092 A 
ATOM      7  C   UNL     1       5.200  -1.520  -4.397  0.00  0.00    +0.138 A 
ATOM      8  O   UNL     1       3.898  -1.877  -4.505  0.00  0.00    -0.437 OA
ATOM      9  C   UNL     1       3.004  -1.483  -3.572  0.00  0.00    +0.229 A 
ATOM     10  C   UNL     1       3.408  -1.086  -2.334  0.00  0.00    +0.066 A 
ATOM     11  C   UNL     1       2.432  -0.681  -1.393  0.00  0.00    +0.115 A 
ATOM     12  N   UNL     1       1.105  -0.709  -1.774  0.00  0.00    -0.318 N 
ATOM     13  C   UNL     1       0.781  -1.123  -3.025  0.00  0.00    +0.204 A 
ATOM     14  N   UNL     1       1.693  -1.485  -3.880  0.00  0.00    -0.202 NA
ATOM     15  H   UNL     1       2.174   0.007   0.520  0.00  0.00    +0.157 HD
ATOM     16  N   UNL     1       2.851  -0.292  -0.182  0.00  0.00    -0.384 N 
ATOM     17  H   UNL     1       3.854  -0.294   0.039  0.00  0.00    +0.157 HD
ENDROOT
BRANCH   1  22
ATOM     18  C   UNL     1       6.006  -5.655   1.376  0.00  0.00    +0.044 C 
ATOM     19  C   UNL     1       5.708  -4.459   0.508  0.00  0.00    -0.050 A 
ATOM     20  C   UNL     1       5.915  -3.183   0.996  0.00  0.00    +0.003 A 
ATOM     21  C   UNL     1       5.641  -2.086   0.200  0.00  0.00    +0.005 A 
ATOM     22  C   UNL     1       5.160  -2.266  -1.084  0.00  0.00    -0.035 A 
ATOM     23  C   UNL     1       4.949  -3.543  -1.569  0.00  0.00    +0.005 A 
ATOM     24  C   UNL     1       5.227  -4.640  -0.775  0.00  0.00    +0.003 A 
ENDBRANCH   1  22
BRANCH   5  25
ATOM     25  O   UNL     1       8.140  -1.232  -6.532  0.00  0.00    -0.507 OA
ATOM     26  H   UNL     1       8.584  -2.080  -6.668  0.00  0.00    +0.292 HD
ENDBRANCH   5  25
BRANCH  12  27
ATOM     27  C   UNL     1       0.057  -0.300  -0.835  0.00  0.00    +0.123 C 
BRANCH  27  28
ATOM     28  C   UNL     1      -0.114   1.219  -0.891  0.00  0.00    +0.003 C 
BRANCH  28  29
ATOM     29  C   UNL     1      -1.208   1.645   0.089  0.00  0.00    -0.078 C 
BRANCH  29  32
ATOM     30  C   UNL     1      -1.890   3.528  -1.272  0.00  0.00    -0.097 C 
ATOM     31  C   UNL     1      -2.239   3.577   1.124  0.00  0.00    -0.097 C 
ATOM     32  N   UNL     1      -1.347   3.116   0.040  0.00  0.00    +0.376 N 
ATOM     33  H   UNL     1      -0.421   3.543   0.166  0.00  0.00    -0.083 HD
ENDBRANCH  29  32
ENDBRANCH  28  29
ENDBRANCH  27  28
ENDBRANCH  12  27
TORSDOF 6
