REMARK  Name = ZINC51762854
REMARK  10 active torsions:
REMARK  status: ('A' for Active; 'I' for Inactive)
REMARK    1  A    between atoms: C_1  and  C_2
REMARK    2  A    between atoms: C_2  and  C_4
REMARK    3  A    between atoms: C_2  and  N_13
REMARK    4  A    between atoms: N_9  and  C_10
REMARK    5  A    between atoms: C_10  and  C_11
REMARK    6  A    between atoms: C_10  and  C_12
REMARK    7  A    between atoms: C_19  and  C_21
REMARK    8  A    between atoms: C_21  and  N_22
REMARK    9  A    between atoms: N_22  and  C_23
REMARK   10  A    between atoms: N_22  and  C_24
REMARK                            x       y       z     vdW  Elec       q    Type
REMARK                         _______ _______ _______ _____ _____    ______ ____
ROOT
ATOM      1  C   UNL     1      -0.019   1.526   0.010  0.00  0.00    +0.034 C 
ATOM      2  C   UNL     1       0.002  -0.004   0.002  0.00  0.00    +0.140 C 
ENDROOT
BRANCH   2   3
ATOM      3  C   UNL     1       0.731  -0.503   1.223  0.00  0.00    +0.237 C 
ATOM      4  O   UNL     1       1.725  -1.186   1.099  0.00  0.00    -0.274 OA
ATOM      5  N   UNL     1       0.278  -0.191   2.453  0.00  0.00    -0.239 N 
ATOM      6  C   UNL     1       0.930  -0.637   3.545  0.00  0.00    +0.306 C 
ATOM      7  O   UNL     1       1.926  -1.322   3.420  0.00  0.00    -0.252 OA
ATOM      8  N   UNL     1       0.476  -0.324   4.775  0.00  0.00    -0.297 N 
ATOM      9  H   UNL     1      -0.517   0.356   2.553  0.00  0.00    +0.159 HD
ATOM     10  H   UNL     1      -0.319   0.222   4.875  0.00  0.00    +0.151 HD
BRANCH   8  11
ATOM     11  C   UNL     1       1.185  -0.810   5.962  0.00  0.00    +0.068 C 
ATOM     12  C   UNL     1       2.329   0.148   6.300  0.00  0.00    +0.027 C 
ATOM     13  C   UNL     1       0.214  -0.881   7.142  0.00  0.00    +0.027 C 
ENDBRANCH   8  11
ENDBRANCH   2   3
BRANCH   2  14
ATOM     14  N   UNL     1       0.690  -0.478  -1.207  0.00  0.00    -0.289 NA
ATOM     15  C   UNL     1       2.069   0.026  -1.259  0.00  0.00    +0.104 C 
ATOM     16  C   UNL     1       2.805  -0.632  -2.431  0.00  0.00    +0.123 C 
ATOM     17  N   UNL     1       2.018  -0.420  -3.656  0.00  0.00    -0.301 N 
ATOM     18  C   UNL     1       0.590  -0.774  -3.635  0.00  0.00    +0.123 C 
ATOM     19  C   UNL     1      -0.059  -0.110  -2.416  0.00  0.00    +0.104 C 
ATOM     20  C   UNL     1       2.590   0.085  -4.767  0.00  0.00    +0.199 C 
ATOM     21  O   UNL     1       3.768   0.371  -4.766  0.00  0.00    -0.278 OA
BRANCH  20  22
ATOM     22  C   UNL     1       1.765   0.294  -6.010  0.00  0.00    +0.018 C 
BRANCH  22  23
ATOM     23  N   UNL     1       2.613   0.851  -7.073  0.00  0.00    +0.382 N 
ATOM     24  C   UNL     1       1.840   0.943  -8.319  0.00  0.00    -0.096 C 
ATOM     25  C   UNL     1       3.073   2.190  -6.682  0.00  0.00    -0.096 C 
ATOM     26  H   UNL     1       3.410   0.249  -7.216  0.00  0.00    -0.082 HD
ENDBRANCH  22  23
ENDBRANCH  20  22
ENDBRANCH   2  14
TORSDOF 5
