REMARK  Name = ZINC53878989
REMARK  11 active torsions:
REMARK  status: ('A' for Active; 'I' for Inactive)
REMARK    1  A    between atoms: C_1  and  C_2
REMARK    2  A    between atoms: C_2  and  C_3
REMARK    3  A    between atoms: C_7  and  N_21
REMARK    4  A    between atoms: C_9  and  C_12
REMARK    5  A    between atoms: C_12  and  N_13
REMARK    6  A    between atoms: N_13  and  C_14
REMARK    7  A    between atoms: N_13  and  C_18
REMARK    8  A    between atoms: C_14  and  C_15
REMARK    9  A    between atoms: C_18  and  C_19
REMARK   10  A    between atoms: C_18  and  C_20
REMARK   11  A    between atoms: N_21  and  C_22
REMARK                            x       y       z     vdW  Elec       q    Type
REMARK                         _______ _______ _______ _____ _____    ______ ____
ROOT
ATOM      1  C   UNL     1       1.558  -1.334  -0.662  0.00  0.00    -0.011 C 
ATOM      2  C   UNL     1       3.083  -1.206  -0.683  0.00  0.00    +0.002 C 
ATOM      3  C   UNL     1       3.607  -1.593  -2.068  0.00  0.00    -0.015 C 
ATOM      4  C   UNL     1       3.213  -3.039  -2.376  0.00  0.00    -0.071 C 
ATOM      5  C   UNL     1       1.688  -3.167  -2.354  0.00  0.00    -0.042 C 
ATOM      6  C   UNL     1       1.164  -2.779  -0.971  0.00  0.00    +0.003 C 
ENDROOT
BRANCH   4   7
ATOM      7  N   UNL     1       3.716  -3.411  -3.705  0.00  0.00    +0.379 N 
ATOM      8  C   UNL     1       5.185  -3.403  -3.692  0.00  0.00    -0.100 C 
ATOM      9  H   UNL     1       3.387  -4.334  -3.943  0.00  0.00    -0.086 HD
ATOM     10  H   UNL     1       3.383  -2.748  -4.389  0.00  0.00    -0.086 HD
ENDBRANCH   4   7
BRANCH   1  12
ATOM     11  C   UNL     1       1.319   0.534   0.980  0.00  0.00    +0.004 C 
ATOM     12  C   UNL     1       1.034  -0.947   0.722  0.00  0.00    +0.000 C 
ENDBRANCH   1  12
BRANCH   5  13
ATOM     13  C   UNL     1       1.083  -2.237  -3.408  0.00  0.00    -0.077 C 
BRANCH  13  14
ATOM     14  N   UNL     1      -0.373  -2.427  -3.451  0.00  0.00    +0.382 N 
ATOM     15  H   UNL     1      -0.756  -2.301  -2.526  0.00  0.00    -0.081 HD
BRANCH  14  16
ATOM     16  C   UNL     1      -0.676  -3.784  -3.925  0.00  0.00    -0.075 C 
ATOM     17  C   UNL     1      -2.175  -4.052  -3.780  0.00  0.00    -0.014 C 
ATOM     18  C   UNL     1      -0.275  -3.911  -5.396  0.00  0.00    -0.014 C 
ENDBRANCH  14  16
BRANCH  14  19
ATOM     19  C   UNL     1      -0.968  -1.444  -4.366  0.00  0.00    -0.075 C 
BRANCH  19  20
ATOM     20  C   UNL     1      -2.493  -1.496  -4.248  0.00  0.00    -0.028 C 
ATOM     21  C   UNL     1      -3.287  -1.856  -5.505  0.00  0.00    +0.002 C 
ATOM     22  C   UNL     1      -3.295  -0.419  -4.981  0.00  0.00    +0.002 C 
ENDBRANCH  19  20
ENDBRANCH  14  19
ENDBRANCH  13  14
ENDBRANCH   5  13
TORSDOF 7
