REMARK  Name = ZINC11874595
REMARK  7 active torsions:
REMARK  status: ('A' for Active; 'I' for Inactive)
REMARK    1  A    between atoms: C_1  and  C_2
REMARK    2  A    between atoms: C_2  and  C_31
REMARK    3  A    between atoms: C_9  and  C_11
REMARK    4  A    between atoms: C_11  and  C_12
REMARK    5  A    between atoms: N_19  and  C_20
REMARK    6  A    between atoms: C_20  and  C_21
REMARK    7  A    between atoms: C_25  and  C_27
REMARK                            x       y       z     vdW  Elec       q    Type
REMARK                         _______ _______ _______ _____ _____    ______ ____
ROOT
ATOM      1  C   UNL     1       3.112   0.848   4.154  0.00  0.00    +0.028 C 
ATOM      2  C   UNL     1       3.865   0.346   5.353  0.00  0.00    +0.200 C 
ATOM      3  O   UNL     1       3.264  -0.287   6.195  0.00  0.00    -0.278 OA
ATOM      4  N   UNL     1       5.173   0.569   5.530  0.00  0.00    -0.318 N 
ATOM      5  C   UNL     1       5.986   1.297   4.558  0.00  0.00    +0.085 C 
ATOM      6  C   UNL     1       5.082   2.094   3.616  0.00  0.00    -0.058 C 
ATOM      7  N   UNL     1       4.050   1.193   3.079  0.00  0.00    +0.391 N 
ATOM      8  H   UNL     1       5.598   0.234   6.335  0.00  0.00    +0.149 HD
ATOM      9  H   UNL     1       4.484   0.353   2.727  0.00  0.00    -0.080 HD
ENDROOT
BRANCH   1  10
ATOM     10  C   UNL     1       2.156  -0.240   3.664  0.00  0.00    +0.090 C 
BRANCH  10  19
ATOM     11  C   UNL     1       4.541  -3.556   2.565  0.00  0.00    +0.041 C 
ATOM     12  C   UNL     1       3.032  -3.801   2.515  0.00  0.00    +0.108 C 
ATOM     13  C   UNL     1       2.650  -4.316   1.154  0.00  0.00    +0.236 C 
ATOM     14  O   UNL     1       3.304  -5.216   0.672  0.00  0.00    -0.273 OA
ATOM     15  N   UNL     1       1.624  -3.828   0.454  0.00  0.00    -0.312 N 
ATOM     16  C   UNL     1       0.809  -2.693   0.864  0.00  0.00    +0.123 C 
ATOM     17  C   UNL     1       0.901  -2.476   2.375  0.00  0.00    +0.127 C 
ATOM     18  N   UNL     1       2.320  -2.539   2.764  0.00  0.00    -0.286 N 
ATOM     19  C   UNL     1       2.940  -1.482   3.325  0.00  0.00    +0.215 C 
ATOM     20  O   UNL     1       4.129  -1.531   3.558  0.00  0.00    -0.276 OA
ATOM     21  C   UNL     1       2.644  -4.827   3.582  0.00  0.00    +0.041 C 
ATOM     22  H   UNL     1       1.406  -4.260  -0.387  0.00  0.00    +0.149 HD
ENDBRANCH  10  19
ENDBRANCH   1  10
BRANCH   7  23
ATOM     23  C   UNL     1       3.328   1.869   1.993  0.00  0.00    -0.042 C 
BRANCH  23  24
ATOM     24  C   UNL     1       4.262   2.096   0.833  0.00  0.00    -0.063 A 
ATOM     25  C   UNL     1       5.003   3.261   0.760  0.00  0.00    +0.002 A 
ATOM     26  C   UNL     1       5.860   3.469  -0.304  0.00  0.00    +0.001 A 
ATOM     27  C   UNL     1       5.976   2.512  -1.296  0.00  0.00    +0.012 A 
ATOM     28  C   UNL     1       5.236   1.348  -1.222  0.00  0.00    +0.055 A 
ATOM     29  C   UNL     1       4.382   1.137  -0.156  0.00  0.00    +0.014 A 
BRANCH  28  30
ATOM     30  C   UNL     1       5.362   0.305  -2.303  0.00  0.00    +0.417 C 
ATOM     31  F   UNL     1       6.281   0.739  -3.265  0.00  0.00    -0.166 F 
ATOM     32  F   UNL     1       5.807  -0.897  -1.742  0.00  0.00    -0.166 F 
ATOM     33  F   UNL     1       4.116   0.105  -2.906  0.00  0.00    -0.166 F 
ENDBRANCH  28  30
ENDBRANCH  23  24
ENDBRANCH   7  23
TORSDOF 5
