REMARK  Name = ZINC28931752
REMARK  14 active torsions:
REMARK  status: ('A' for Active; 'I' for Inactive)
REMARK    1  A    between atoms: C_1  and  C_2
REMARK    2  A    between atoms: C_2  and  O_3
REMARK    3  A    between atoms: O_3  and  C_4
REMARK    4  A    between atoms: C_7  and  C_10
REMARK    5  A    between atoms: C_10  and  N_11
REMARK    6  A    between atoms: N_11  and  C_12
REMARK    7  A    between atoms: N_11  and  C_13
REMARK    8  A    between atoms: C_13  and  C_14
REMARK    9  A    between atoms: C_14  and  C_16
REMARK   10  A    between atoms: C_17  and  N_29
REMARK   11  A    between atoms: N_18  and  C_25
REMARK   12  A    between atoms: C_25  and  C_26
REMARK   13  A    between atoms: C_26  and  C_27
REMARK   14  A    between atoms: C_26  and  C_28
REMARK                            x       y       z     vdW  Elec       q    Type
REMARK                         _______ _______ _______ _____ _____    ______ ____
ROOT
ATOM      1  C   UNL     1       0.733  -4.539  -2.882  0.00  0.00    +0.155 C 
ATOM      2  O   UNL     1       0.756  -3.712  -3.771  0.00  0.00    -0.294 OA
ENDROOT
BRANCH   1   3
ATOM      3  C   UNL     1       0.501  -5.897  -3.188  0.00  0.00    +0.118 A 
ATOM      4  C   UNL     1       0.174  -6.301  -4.494  0.00  0.00    +0.116 A 
ATOM      5  N   UNL     1      -0.041  -7.627  -4.741  0.00  0.00    -0.281 N 
ATOM      6  C   UNL     1       0.055  -8.543  -3.765  0.00  0.00    +0.331 A 
ATOM      7  O   UNL     1      -0.146  -9.711  -4.036  0.00  0.00    -0.246 OA
ATOM      8  N   UNL     1       0.363  -8.217  -2.499  0.00  0.00    -0.274 N 
ATOM      9  H   UNL     1       0.426  -9.000  -1.730  0.00  0.00    +0.173 HD
ATOM     10  C   UNL     1       0.599  -6.935  -2.153  0.00  0.00    +0.266 A 
ATOM     11  O   UNL     1       0.884  -6.643  -1.006  0.00  0.00    -0.267 OA
BRANCH   4  12
ATOM     12  N   UNL     1       0.074  -5.386  -5.496  0.00  0.00    -0.344 N 
ATOM     13  H   UNL     1      -0.182  -5.712  -6.515  0.00  0.00    +0.144 HD
ATOM     14  H   UNL     1       0.248  -4.320  -5.287  0.00  0.00    +0.144 HD
ENDBRANCH   4  12
BRANCH   5  15
ATOM     15  C   UNL     1      -0.381  -8.058  -6.099  0.00  0.00    +0.131 C 
BRANCH  15  16
ATOM     16  C   UNL     1       0.901  -8.380  -6.869  0.00  0.00    +0.003 C 
ATOM     17  C   UNL     1       1.595  -9.582  -6.225  0.00  0.00    +0.009 C 
ATOM     18  C   UNL     1       0.554  -8.709  -8.323  0.00  0.00    +0.009 C 
ENDBRANCH  15  16
ENDBRANCH   5  15
ENDBRANCH   1   3
BRANCH   1  19
ATOM     19  C   UNL     1       0.951  -4.116  -1.452  0.00  0.00    +0.002 C 
BRANCH  19  20
ATOM     20  N   UNL     1       1.169  -2.664  -1.400  0.00  0.00    +0.385 N 
ATOM     21  C   UNL     1       2.424  -2.295  -2.069  0.00  0.00    -0.095 C 
ATOM     22  H   UNL     1       0.343  -2.178  -1.939  0.00  0.00    -0.081 HD
BRANCH  20  23
ATOM     23  C   UNL     1       1.150  -2.179  -0.013  0.00  0.00    -0.043 C 
BRANCH  23  27
ATOM     24  C   UNL     1       1.091   2.095   0.000  0.00  0.00    +0.121 A 
ATOM     25  C   UNL     1      -0.100   1.383  -0.013  0.00  0.00    +0.046 A 
ATOM     26  C   UNL     1      -0.078   0.002  -0.018  0.00  0.00    +0.005 A 
ATOM     27  C   UNL     1       1.129  -0.672  -0.009  0.00  0.00    -0.064 A 
ATOM     28  C   UNL     1       2.318   0.035   0.005  0.00  0.00    +0.005 A 
ATOM     29  C   UNL     1       2.301   1.416   0.010  0.00  0.00    +0.046 A 
BRANCH  24  30
ATOM     30  O   UNL     1       1.073   3.453   0.004  0.00  0.00    -0.492 OA
BRANCH  30  32
ATOM     31  C   UNL     1       2.115   5.633   0.021  0.00  0.00    +0.048 C 
ATOM     32  C   UNL     1       2.337   4.120   0.018  0.00  0.00    +0.225 C 
ENDBRANCH  30  32
ENDBRANCH  24  30
ENDBRANCH  23  27
ENDBRANCH  20  23
ENDBRANCH  19  20
ENDBRANCH   1  19
TORSDOF 10
