REMARK  Name = ZINC17068253
REMARK  4 active torsions:
REMARK  status: ('A' for Active; 'I' for Inactive)
REMARK    1  A    between atoms: C_3  and  N_10
REMARK    2  A    between atoms: C_5  and  N_7
REMARK    3  A    between atoms: C_11  and  C_13
REMARK    4  A    between atoms: C_13  and  C_14
REMARK                            x       y       z     vdW  Elec       q    Type
REMARK                         _______ _______ _______ _____ _____    ______ ____
ROOT
ATOM      1  C   UNL     1      -2.476   0.801   0.132  0.00  0.00    +0.089 C 
ENDROOT
BRANCH   1   2
ATOM      2  C   UNL     1      -3.675   1.752   0.120  0.00  0.00    +0.025 C 
ATOM      3  C   UNL     1      -4.945   0.951   0.103  0.00  0.00    +0.200 C 
ATOM      4  O   UNL     1      -5.014  -0.003  -0.641  0.00  0.00    -0.278 OA
ATOM      5  N   UNL     1      -6.004   1.236   0.864  0.00  0.00    -0.315 N 
ATOM      6  C   UNL     1      -5.998   2.331   1.838  0.00  0.00    +0.059 C 
ATOM      7  C   UNL     1      -5.715   1.747   3.225  0.00  0.00    +0.020 C 
ATOM      8  C   UNL     1      -5.635   2.871   4.257  0.00  0.00    +0.002 C 
ATOM      9  C   UNL     1      -4.493   3.819   3.881  0.00  0.00    -0.001 C 
ATOM     10  C   UNL     1      -4.781   4.428   2.508  0.00  0.00    -0.014 C 
ATOM     11  C   UNL     1      -4.902   3.327   1.462  0.00  0.00    -0.050 C 
ATOM     12  H   UNL     1      -6.806   0.699   0.770  0.00  0.00    +0.149 HD
ATOM     13  N   UNL     1      -3.628   2.607   1.317  0.00  0.00    +0.390 N 
ATOM     14  H   UNL     1      -2.862   3.284   1.223  0.00  0.00    -0.084 HD
ATOM     15  H   UNL     1      -3.470   2.024   2.147  0.00  0.00    -0.084 HD
ENDBRANCH   1   2
BRANCH   1  17
ATOM     16  N   UNL     1      -0.011   0.966   0.007  0.00  0.00    -0.285 N 
ATOM     17  C   UNL     1      -1.202   1.597   0.017  0.00  0.00    +0.216 C 
ATOM     18  O   UNL     1      -1.248   2.806  -0.067  0.00  0.00    -0.276 OA
ATOM     19  H   UNL     1       0.024  -0.004   0.007  0.00  0.00    +0.155 HD
BRANCH  16  22
ATOM     20  C   UNL     1       2.407   3.640  -0.716  0.00  0.00    +0.004 A 
ATOM     21  C   UNL     1       1.237   2.906  -0.708  0.00  0.00    +0.023 A 
ATOM     22  C   UNL     1       1.175   1.708  -0.008  0.00  0.00    +0.036 A 
ATOM     23  C   UNL     1       2.294   1.247   0.673  0.00  0.00    +0.056 A 
ATOM     24  C   UNL     1       3.462   1.982   0.656  0.00  0.00    +0.128 A 
ATOM     25  C   UNL     1       3.519   3.177  -0.037  0.00  0.00    +0.033 A 
BRANCH  24  26
ATOM     26  N   UNL     1       4.656   1.490   1.381  0.00  0.00    +0.056 N 
ATOM     27  O   UNL     1       4.606   0.438   1.992  0.00  0.00    -0.126 OA
ATOM     28  O   UNL     1       5.687   2.139   1.367  0.00  0.00    -0.126 OA
ENDBRANCH  24  26
ENDBRANCH  16  22
ENDBRANCH   1  17
TORSDOF 4
