REMARK  Name = ZINC34749173
REMARK  9 active torsions:
REMARK  status: ('A' for Active; 'I' for Inactive)
REMARK    1  A    between atoms: C_1  and  C_2
REMARK    2  A    between atoms: C_2  and  C_3
REMARK    3  A    between atoms: C_4  and  C_32
REMARK    4  A    between atoms: N_10  and  C_28
REMARK    5  A    between atoms: N_16  and  C_19
REMARK    6  A    between atoms: C_19  and  C_20
REMARK    7  A    between atoms: C_23  and  C_27
REMARK    8  A    between atoms: C_25  and  C_26
REMARK    9  A    between atoms: C_28  and  C_29
REMARK                            x       y       z     vdW  Elec       q    Type
REMARK                         _______ _______ _______ _____ _____    ______ ____
ROOT
ATOM      1  C   UNL     1      -1.227  -0.734  -0.079  0.00  0.00    -0.023 A 
ATOM      2  C   UNL     1      -0.596  -1.845   0.327  0.00  0.00    -0.007 A 
ATOM      3  S   UNL     1      -1.169  -3.087  -0.816  0.00  0.00    -0.073 S 
ATOM      4  C   UNL     1      -2.240  -2.077  -1.806  0.00  0.00    +0.117 A 
ATOM      5  C   UNL     1      -2.127  -0.804  -1.217  0.00  0.00    +0.076 A 
ATOM      6  C   UNL     1      -2.905   0.233  -1.822  0.00  0.00    +0.264 A 
ATOM      7  O   UNL     1      -2.868   1.369  -1.383  0.00  0.00    -0.267 OA
ATOM      8  N   UNL     1      -3.679  -0.063  -2.882  0.00  0.00    -0.271 N 
ATOM      9  C   UNL     1      -3.734  -1.329  -3.387  0.00  0.00    +0.202 A 
ATOM     10  N   UNL     1      -3.021  -2.300  -2.857  0.00  0.00    -0.208 NA
ATOM     11  N   UNL     1      -4.536  -1.591  -4.470  0.00  0.00    -0.304 N 
ATOM     12  C   UNL     1      -4.015  -1.481  -5.841  0.00  0.00    +0.089 C 
ATOM     13  C   UNL     1      -4.360  -2.769  -6.597  0.00  0.00    -0.059 C 
ATOM     14  N   UNL     1      -5.806  -3.010  -6.515  0.00  0.00    +0.384 N 
ATOM     15  C   UNL     1      -6.195  -3.255  -5.120  0.00  0.00    -0.059 C 
ATOM     16  C   UNL     1      -5.939  -1.996  -4.292  0.00  0.00    +0.089 C 
ATOM     17  C   UNL     1       0.368  -2.005   1.475  0.00  0.00    +0.052 C 
ATOM     18  H   UNL     1      -6.301  -2.204  -6.864  0.00  0.00    -0.081 HD
ENDROOT
BRANCH   1  20
ATOM     19  C   UNL     1      -2.033   0.708   1.771  0.00  0.00    +0.009 C 
ATOM     20  C   UNL     1      -1.010   0.572   0.642  0.00  0.00    +0.033 C 
ENDBRANCH   1  20
BRANCH  14  21
ATOM     21  C   UNL     1      -6.152  -4.183  -7.330  0.00  0.00    -0.043 C 
BRANCH  21  22
ATOM     22  C   UNL     1      -7.648  -4.360  -7.347  0.00  0.00    -0.061 A 
ATOM     23  C   UNL     1      -8.244  -5.290  -6.516  0.00  0.00    +0.002 A 
ATOM     24  C   UNL     1      -9.616  -5.452  -6.531  0.00  0.00    +0.003 A 
ATOM     25  C   UNL     1     -10.394  -4.684  -7.378  0.00  0.00    -0.050 A 
ATOM     26  C   UNL     1      -9.798  -3.753  -8.209  0.00  0.00    +0.007 A 
ATOM     27  C   UNL     1      -8.426  -3.588  -8.190  0.00  0.00    -0.049 A 
ATOM     28  C   UNL     1      -7.777  -2.569  -9.092  0.00  0.00    +0.044 C 
ATOM     29  C   UNL     1     -11.890  -4.861  -7.396  0.00  0.00    +0.044 C 
ENDBRANCH  21  22
ENDBRANCH  14  21
BRANCH   8  30
ATOM     30  C   UNL     1      -4.478   0.995  -3.506  0.00  0.00    +0.223 C 
BRANCH  30  31
ATOM     31  C   UNL     1      -3.643   1.718  -4.530  0.00  0.00    +0.230 C 
ATOM     32  O   UNL     1      -2.493   1.383  -4.720  0.00  0.00    -0.274 OA
ATOM     33  N   UNL     1      -4.173   2.737  -5.234  0.00  0.00    -0.328 N 
ATOM     34  H   UNL     1      -5.093   3.005  -5.082  0.00  0.00    +0.145 HD
ATOM     35  H   UNL     1      -3.635   3.203  -5.894  0.00  0.00    +0.145 HD
ENDBRANCH  30  31
ENDBRANCH   8  30
TORSDOF 5
