REMARK  Name = ZINC42014741
REMARK  3 active torsions:
REMARK  status: ('A' for Active; 'I' for Inactive)
REMARK    1  A    between atoms: C_6  and  N_7
REMARK    2  A    between atoms: C_8  and  C_12
REMARK    3  A    between atoms: C_17  and  N_18
REMARK                            x       y       z     vdW  Elec       q    Type
REMARK                         _______ _______ _______ _____ _____    ______ ____
ROOT
ATOM      1  N   UNL     1      -1.192  -0.739   0.033  0.00  0.00    -0.193 N 
ATOM      2  C   UNL     1      -1.494  -1.860  -0.685  0.00  0.00    +0.189 A 
ATOM      3  N   UNL     1      -2.742  -2.171  -0.401  0.00  0.00    -0.108 NA
ATOM      4  N   UNL     1      -3.236  -1.332   0.436  0.00  0.00    -0.022 NA
ATOM      5  N   UNL     1      -2.361  -0.440   0.753  0.00  0.00    -0.039 NA
ENDROOT
BRANCH   1  11
ATOM      6  C   UNL     1       0.715   0.185  -1.129  0.00  0.00    +0.029 A 
ATOM      7  C   UNL     1       1.912   0.873  -1.107  0.00  0.00    +0.022 A 
ATOM      8  C   UNL     1       2.424   1.336   0.093  0.00  0.00    +0.041 A 
ATOM      9  C   UNL     1       1.737   1.110   1.273  0.00  0.00    +0.022 A 
ATOM     10  C   UNL     1       0.539   0.423   1.256  0.00  0.00    +0.029 A 
ATOM     11  C   UNL     1       0.024  -0.042   0.053  0.00  0.00    +0.070 A 
ATOM     12 CL   UNL     1       3.929   2.200   0.118  0.00  0.00    -0.084 Cl
ENDBRANCH   1  11
BRANCH   2  13
ATOM     13  C   UNL     1      -0.594  -2.585  -1.606  0.00  0.00    +0.043 A 
ATOM     14  C   UNL     1       0.699  -2.922  -1.203  0.00  0.00    +0.033 A 
ATOM     15  C   UNL     1       1.535  -3.599  -2.067  0.00  0.00    +0.042 A 
ATOM     16  C   UNL     1       1.097  -3.946  -3.335  0.00  0.00    +0.022 A 
ATOM     17  C   UNL     1      -0.180  -3.618  -3.747  0.00  0.00    +0.025 A 
ATOM     18  C   UNL     1      -1.036  -2.942  -2.887  0.00  0.00    +0.036 A 
ATOM     19 CL   UNL     1       3.142  -4.019  -1.563  0.00  0.00    -0.084 Cl
BRANCH  18  20
ATOM     20  N   UNL     1      -2.326  -2.615  -3.299  0.00  0.00    -0.357 N 
ATOM     21  H   UNL     1      -2.921  -2.139  -2.698  0.00  0.00    +0.142 HD
ATOM     22  H   UNL     1      -2.630  -2.864  -4.186  0.00  0.00    +0.142 HD
ENDBRANCH  18  20
ENDBRANCH   2  13
TORSDOF 3
