REMARK  Name = ZINC63486548
REMARK  5 active torsions:
REMARK  status: ('A' for Active; 'I' for Inactive)
REMARK    1  A    between atoms: C_1  and  C_2
REMARK    2  A    between atoms: C_4  and  C_23
REMARK    3  A    between atoms: C_7  and  C_12
REMARK    4  A    between atoms: N_14  and  N_15
REMARK    5  A    between atoms: C_16  and  C_18
REMARK                            x       y       z     vdW  Elec       q    Type
REMARK                         _______ _______ _______ _____ _____    ______ ____
ROOT
ATOM      1  C   UNL     1      -3.524  -3.446   3.506  0.00  0.00    +0.260 C 
ATOM      2  O   UNL     1      -4.593  -3.482   2.926  0.00  0.00    -0.269 OA
ATOM      3  N   UNL     1      -3.368  -4.104   4.672  0.00  0.00    -0.230 N 
ATOM      4  H   UNL     1      -2.516  -4.075   5.135  0.00  0.00    +0.173 HD
ENDROOT
BRANCH   1  10
ATOM      5  C   UNL     1      -0.019   1.526   0.010  0.00  0.00    +0.035 C 
ATOM      6  C   UNL     1       0.002  -0.004   0.002  0.00  0.00    +0.103 C 
ATOM      7  C   UNL     1      -1.409  -0.544   0.038  0.00  0.00    -0.042 C 
ATOM      8  C   UNL     1      -1.502  -1.278   1.177  0.00  0.00    -0.000 A 
ATOM      9  C   UNL     1      -2.574  -2.017   1.742  0.00  0.00    +0.023 A 
ATOM     10  C   UNL     1      -2.400  -2.683   2.933  0.00  0.00    +0.039 A 
ATOM     11  C   UNL     1      -1.125  -2.649   3.641  0.00  0.00    +0.015 A 
ATOM     12  C   UNL     1      -0.072  -1.963   3.151  0.00  0.00    +0.026 A 
ATOM     13  C   UNL     1      -0.204  -1.235   1.884  0.00  0.00    +0.043 A 
ATOM     14  N   UNL     1       0.658  -0.507   1.213  0.00  0.00    -0.378 N 
ATOM     15  C   UNL     1      -2.493  -0.316  -0.984  0.00  0.00    +0.042 C 
ATOM     16  H   UNL     1       1.576  -0.332   1.474  0.00  0.00    +0.160 HD
ENDBRANCH   1  10
BRANCH   3  17
ATOM     17  N   UNL     1      -4.437  -4.828   5.216  0.00  0.00    -0.230 N 
ATOM     18  C   UNL     1      -4.280  -5.486   6.382  0.00  0.00    +0.267 C 
ATOM     19  O   UNL     1      -3.211  -5.450   6.963  0.00  0.00    -0.268 OA
ATOM     20  H   UNL     1      -5.289  -4.857   4.753  0.00  0.00    +0.173 HD
BRANCH  18  21
ATOM     21  C   UNL     1      -5.398  -6.244   6.952  0.00  0.00    +0.075 A 
ATOM     22  C   UNL     1      -5.449  -6.976   8.128  0.00  0.00    +0.021 A 
ATOM     23  C   UNL     1      -6.650  -7.586   8.401  0.00  0.00    +0.008 A 
ATOM     24  C   UNL     1      -7.677  -7.437   7.529  0.00  0.00    +0.046 A 
ATOM     25  S   UNL     1      -7.050  -6.459   6.316  0.00  0.00    -0.092 S 
ENDBRANCH  18  21
ENDBRANCH   3  17
TORSDOF 3
