REMARK  Name = ZINC59385194
REMARK  7 active torsions:
REMARK  status: ('A' for Active; 'I' for Inactive)
REMARK    1  A    between atoms: C_1  and  C_2
REMARK    2  A    between atoms: C_2  and  C_4
REMARK    3  A    between atoms: C_2  and  O_19
REMARK    4  A    between atoms: C_4  and  C_5
REMARK    5  A    between atoms: N_7  and  N_8
REMARK    6  A    between atoms: C_9  and  C_10
REMARK    7  A    between atoms: C_14  and  N_16
REMARK                            x       y       z     vdW  Elec       q    Type
REMARK                         _______ _______ _______ _____ _____    ______ ____
ROOT
ATOM      1  N   UNL     1       1.610  -4.075   2.098  0.00  0.00    -0.188 NA
ATOM      2  C   UNL     1       2.208  -4.721   3.052  0.00  0.00    +0.138 C 
ENDROOT
BRANCH   2   3
ATOM      3  C   UNL     1       2.333  -6.189   2.984  0.00  0.00    -0.003 A 
ATOM      4  C   UNL     1       1.814  -6.887   1.891  0.00  0.00    +0.009 A 
ATOM      5  C   UNL     1       1.935  -8.260   1.834  0.00  0.00    +0.003 A 
ATOM      6  C   UNL     1       2.567  -8.945   2.856  0.00  0.00    +0.033 A 
ATOM      7  C   UNL     1       3.083  -8.260   3.942  0.00  0.00    +0.127 A 
ATOM      8  C   UNL     1       2.976  -6.886   4.009  0.00  0.00    +0.042 A 
BRANCH   7   9
ATOM      9  N   UNL     1       3.757  -9.002   5.031  0.00  0.00    +0.056 N 
ATOM     10  O   UNL     1       3.857 -10.205   4.971  0.00  0.00    -0.126 OA
ATOM     11  O   UNL     1       4.209  -8.404   5.980  0.00  0.00    -0.126 OA
ENDBRANCH   7   9
ENDBRANCH   2   3
BRANCH   1  14
ATOM     12  C   UNL     1       0.870  -2.011   1.172  0.00  0.00    +0.235 C 
ATOM     13  O   UNL     1       0.414  -2.615   0.224  0.00  0.00    -0.274 OA
ATOM     14  N   UNL     1       1.491  -2.681   2.163  0.00  0.00    -0.207 N 
ATOM     15  H   UNL     1       1.855  -2.198   2.921  0.00  0.00    +0.177 HD
BRANCH  12  16
ATOM     16  C   UNL     1       0.742  -0.511   1.242  0.00  0.00    +0.128 C 
BRANCH  16  18
ATOM     17  C   UNL     1      -0.019   1.526   0.010  0.00  0.00    +0.038 C 
ATOM     18  C   UNL     1       0.002  -0.004   0.002  0.00  0.00    +0.120 C 
BRANCH  18  19
ATOM     19  O   UNL     1      -1.339  -0.499   0.012  0.00  0.00    -0.392 OA
ATOM     20  H   UNL     1      -1.853  -0.225   0.784  0.00  0.00    +0.210 HD
ENDBRANCH  18  19
ENDBRANCH  16  18
ENDBRANCH  12  16
ENDBRANCH   1  14
TORSDOF 6
