REMARK  Name = ZINC08819656
REMARK  8 active torsions:
REMARK  status: ('A' for Active; 'I' for Inactive)
REMARK    1  A    between atoms: C_6  and  C_7
REMARK    2  A    between atoms: N_11  and  C_15
REMARK    3  A    between atoms: C_15  and  C_16
REMARK    4  A    between atoms: C_16  and  C_17
REMARK    5  A    between atoms: C_17  and  C_18
REMARK    6  A    between atoms: N_20  and  C_21
REMARK    7  A    between atoms: C_24  and  O_29
REMARK    8  A    between atoms: C_25  and  C_27
REMARK                            x       y       z     vdW  Elec       q    Type
REMARK                         _______ _______ _______ _____ _____    ______ ____
ROOT
ATOM      1  C   UNL     1       2.845   2.284   0.060  0.00  0.00    +0.115 C 
ENDROOT
BRANCH   1   6
ATOM      2  C   UNL     1       0.753   6.635   1.203  0.00  0.00    +0.028 C 
ATOM      3  C   UNL     1       1.281   5.672   0.405  0.00  0.00    +0.077 C 
ATOM      4  C   UNL     1       1.833   4.350   0.764  0.00  0.00    +0.258 C 
ATOM      5  O   UNL     1       1.870   3.965   1.918  0.00  0.00    -0.269 OA
ATOM      6  N   UNL     1       2.284   3.606  -0.232  0.00  0.00    -0.255 N 
ATOM      7  C   UNL     1       2.245   4.039  -1.508  0.00  0.00    +0.121 C 
ATOM      8  S   UNL     1       2.781   3.233  -2.921  0.00  0.00    -0.027 S 
ATOM      9  S   UNL     1       1.497   5.654  -1.369  0.00  0.00    -0.061 S 
BRANCH   2  15
ATOM     10  C   UNL     1       0.976   8.352  -0.580  0.00  0.00    +0.012 A 
ATOM     11  C   UNL     1       0.665   9.588  -1.103  0.00  0.00    +0.050 A 
ATOM     12  C   UNL     1      -0.182  10.446  -0.415  0.00  0.00    +0.166 A 
ATOM     13  C   UNL     1      -0.728  10.058   0.810  0.00  0.00    +0.167 A 
ATOM     14  C   UNL     1      -0.426   8.819   1.339  0.00  0.00    +0.057 A 
ATOM     15  C   UNL     1       0.429   7.954   0.645  0.00  0.00    -0.020 A 
ATOM     16  O   UNL     1      -1.517  11.071   1.275  0.00  0.00    -0.453 OA
ATOM     17  C   UNL     1      -1.126  12.237   0.528  0.00  0.00    +0.466 C 
ATOM     18  O   UNL     1      -0.632  11.699  -0.713  0.00  0.00    -0.453 OA
ENDBRANCH   2  15
ENDBRANCH   1   6
BRANCH   1  19
ATOM     19  C   UNL     1       1.733   1.236   0.008  0.00  0.00    +0.029 C 
BRANCH  19  20
ATOM     20  C   UNL     1       2.319  -0.145   0.312  0.00  0.00    +0.097 C 
BRANCH  20  21
ATOM     21  C   UNL     1       1.223  -1.178   0.261  0.00  0.00    +0.217 C 
ATOM     22  O   UNL     1       0.085  -0.843   0.006  0.00  0.00    -0.275 OA
ATOM     23  N   UNL     1       1.507  -2.474   0.498  0.00  0.00    -0.285 N 
ATOM     24  H   UNL     1       2.426  -2.752   0.637  0.00  0.00    +0.155 HD
BRANCH  23  25
ATOM     25  C   UNL     1       0.474  -3.421   0.544  0.00  0.00    +0.034 A 
ATOM     26  C   UNL     1       0.696  -4.712   0.078  0.00  0.00    +0.027 A 
ATOM     27  C   UNL     1      -0.314  -5.651   0.119  0.00  0.00    +0.048 A 
ATOM     28  C   UNL     1      -1.560  -5.313   0.626  0.00  0.00    +0.131 A 
ATOM     29  C   UNL     1      -1.791  -4.013   1.098  0.00  0.00    +0.106 A 
ATOM     30  C   UNL     1      -0.761  -3.069   1.058  0.00  0.00    +0.042 A 
BRANCH  29  31
ATOM     31  C   UNL     1      -3.112  -3.645   1.638  0.00  0.00    +0.390 C 
ATOM     32  O   UNL     1      -4.005  -4.470   1.675  0.00  0.00    -0.240 OA
ATOM     33  O   UNL     1      -3.331  -2.395   2.091  0.00  0.00    -0.240 OA
ENDBRANCH  29  31
BRANCH  28  34
ATOM     34  O   UNL     1      -2.553  -6.237   0.666  0.00  0.00    -0.506 OA
ATOM     35  H   UNL     1      -2.579  -6.751   1.484  0.00  0.00    +0.292 HD
ENDBRANCH  28  34
ENDBRANCH  23  25
ENDBRANCH  20  21
ENDBRANCH  19  20
ENDBRANCH   1  19
TORSDOF 8
