REMARK  Name = ZINC50441485
REMARK  9 active torsions:
REMARK  status: ('A' for Active; 'I' for Inactive)
REMARK    1  A    between atoms: C_1  and  C_2
REMARK    2  A    between atoms: C_2  and  N_3
REMARK    3  A    between atoms: N_3  and  C_4
REMARK    4  A    between atoms: C_4  and  C_5
REMARK    5  A    between atoms: C_4  and  C_6
REMARK    6  A    between atoms: C_4  and  C_19
REMARK    7  A    between atoms: C_6  and  O_7
REMARK    8  A    between atoms: O_7  and  C_8
REMARK    9  A    between atoms: C_11  and  N_15
REMARK                            x       y       z     vdW  Elec       q    Type
REMARK                         _______ _______ _______ _____ _____    ______ ____
ROOT
ATOM      1  C   UNL     1      -2.792  -2.511   0.015  0.00  0.00    +0.225 C 
ENDROOT
BRANCH   1   2
ATOM      2  C   UNL     1      -1.356  -1.981   0.004  0.00  0.00    +0.041 C 
ATOM      3  C   UNL     1      -0.616  -2.488   1.244  0.00  0.00    +0.003 C 
BRANCH   2   4
ATOM      4  C   UNL     1      -0.651  -2.467  -1.236  0.00  0.00    +0.203 C 
ATOM      5  O   UNL     1       0.028  -3.472  -1.193  0.00  0.00    -0.277 OA
ATOM      6  N   UNL     1      -0.774  -1.786  -2.392  0.00  0.00    -0.330 N 
ATOM      7  H   UNL     1      -1.316  -0.983  -2.426  0.00  0.00    +0.145 HD
ATOM      8  H   UNL     1      -0.320  -2.099  -3.190  0.00  0.00    +0.145 HD
ENDBRANCH   2   4
BRANCH   2   9
ATOM      9  N   UNL     1      -1.376  -0.512   0.012  0.00  0.00    +0.390 N 
ATOM     10  H   UNL     1      -1.848  -0.187   0.843  0.00  0.00    -0.084 HD
ATOM     11  H   UNL     1      -1.864  -0.178  -0.805  0.00  0.00    -0.084 HD
BRANCH   9  13
ATOM     12  C   UNL     1      -0.019   1.526   0.010  0.00  0.00    -0.017 C 
ATOM     13  C   UNL     1       0.002  -0.004   0.002  0.00  0.00    -0.084 C 
ENDBRANCH   9  13
ENDBRANCH   2   9
ENDBRANCH   1   2
BRANCH   1  14
ATOM     14  O   UNL     1      -2.772  -3.940   0.007  0.00  0.00    -0.491 OA
BRANCH  14  15
ATOM     15  C   UNL     1      -3.975  -4.573   0.015  0.00  0.00    +0.148 A 
ATOM     16  C   UNL     1      -4.581  -4.899   1.221  0.00  0.00    +0.063 A 
ATOM     17  C   UNL     1      -5.804  -5.543   1.226  0.00  0.00    +0.051 A 
ATOM     18  C   UNL     1      -6.424  -5.863   0.032  0.00  0.00    +0.129 A 
ATOM     19  C   UNL     1      -5.822  -5.540  -1.170  0.00  0.00    +0.051 A 
ATOM     20  C   UNL     1      -4.601  -4.891  -1.181  0.00  0.00    +0.063 A 
ATOM     21 BR   UNL     1      -3.783  -4.443  -2.826  0.00  0.00    -0.046 Br
ATOM     22 BR   UNL     1      -3.734  -4.462   2.854  0.00  0.00    -0.046 Br
BRANCH  18  23
ATOM     23  N   UNL     1      -7.733  -6.553   0.041  0.00  0.00    +0.056 N 
ATOM     24  O   UNL     1      -8.260  -6.836   1.091  0.00  0.00    -0.126 OA
ATOM     25  O   UNL     1      -8.275  -6.834  -1.003  0.00  0.00    -0.126 OA
ENDBRANCH  18  23
ENDBRANCH  14  15
ENDBRANCH   1  14
TORSDOF 7
