REMARK  Name = ZINC63205734
REMARK  8 active torsions:
REMARK  status: ('A' for Active; 'I' for Inactive)
REMARK    1  A    between atoms: C_7  and  C_10
REMARK    2  A    between atoms: C_10  and  C_11
REMARK    3  A    between atoms: C_11  and  N_12
REMARK    4  A    between atoms: C_13  and  C_15
REMARK    5  A    between atoms: C_15  and  N_16
REMARK    6  A    between atoms: N_19  and  C_22
REMARK    7  A    between atoms: C_22  and  C_23
REMARK    8  A    between atoms: N_25  and  C_26
REMARK                            x       y       z     vdW  Elec       q    Type
REMARK                         _______ _______ _______ _____ _____    ______ ____
ROOT
ATOM      1  N   UNL     1      -1.981  -7.009  -3.998  0.00  0.00    -0.292 NA
ATOM      2  C   UNL     1      -0.746  -7.545  -4.589  0.00  0.00    +0.100 C 
ATOM      3  C   UNL     1      -1.005  -7.924  -6.049  0.00  0.00    +0.100 C 
ATOM      4  N   UNL     1      -2.088  -8.916  -6.109  0.00  0.00    -0.292 NA
ATOM      5  C   UNL     1      -3.322  -8.381  -5.519  0.00  0.00    +0.100 C 
ATOM      6  C   UNL     1      -3.063  -8.001  -4.059  0.00  0.00    +0.100 C 
ENDROOT
BRANCH   1   7
ATOM      7  C   UNL     1      -1.753  -6.562  -2.618  0.00  0.00    +0.180 C 
BRANCH   7   9
ATOM      8  N   UNL     1      -0.465  -4.798  -1.457  0.00  0.00    -0.314 N 
ATOM      9  C   UNL     1      -0.819  -5.380  -2.620  0.00  0.00    +0.227 C 
ATOM     10  O   UNL     1      -0.385  -4.952  -3.668  0.00  0.00    -0.274 OA
ATOM     11  H   UNL     1      -0.811  -5.141  -0.618  0.00  0.00    +0.149 HD
BRANCH   8  12
ATOM     12  C   UNL     1       0.444  -3.649  -1.459  0.00  0.00    +0.108 C 
BRANCH  12  13
ATOM     13  C   UNL     1       0.681  -3.183  -0.021  0.00  0.00    +0.052 C 
BRANCH  13  20
ATOM     14  C   UNL     1      -0.051   1.346   0.027  0.00  0.00    +0.001 A 
ATOM     15  C   UNL     1       1.126   2.106   0.017  0.00  0.00    +0.002 A 
ATOM     16  C   UNL     1       2.355   1.547  -0.004  0.00  0.00    +0.026 A 
ATOM     17  C   UNL     1       2.500   0.132  -0.018  0.00  0.00    +0.043 A 
ATOM     18  N   UNL     1       3.562  -0.636  -0.039  0.00  0.00    -0.380 N 
ATOM     19  C   UNL     1       3.127  -2.037  -0.045  0.00  0.00    +0.144 C 
ATOM     20  C   UNL     1       1.615  -2.001  -0.023  0.00  0.00    -0.040 C 
ATOM     21  C   UNL     1       1.271  -0.693  -0.008  0.00  0.00    -0.001 A 
ATOM     22  C   UNL     1      -0.026  -0.006   0.016  0.00  0.00    +0.010 A 
ATOM     23  H   UNL     1       4.483  -0.329  -0.050  0.00  0.00    +0.160 HD
ENDBRANCH  13  20
ENDBRANCH  12  13
ENDBRANCH   8  12
ENDBRANCH   7   9
ENDBRANCH   1   7
BRANCH   4  24
ATOM     24  C   UNL     1      -2.316  -9.363  -7.490  0.00  0.00    +0.180 C 
BRANCH  24  25
ATOM     25  C   UNL     1      -3.250 -10.546  -7.488  0.00  0.00    +0.231 C 
ATOM     26  O   UNL     1      -3.683 -10.974  -6.439  0.00  0.00    -0.274 OA
ATOM     27  N   UNL     1      -3.604 -11.127  -8.651  0.00  0.00    -0.284 N 
ATOM     28  H   UNL     1      -3.312 -10.745  -9.493  0.00  0.00    +0.155 HD
BRANCH  27  29
ATOM     29  C   UNL     1      -4.393 -12.284  -8.644  0.00  0.00    +0.034 A 
ATOM     30  C   UNL     1      -4.189 -13.271  -9.599  0.00  0.00    +0.026 A 
ATOM     31  C   UNL     1      -4.969 -14.411  -9.590  0.00  0.00    +0.040 A 
ATOM     32  C   UNL     1      -5.954 -14.569  -8.630  0.00  0.00    +0.124 A 
ATOM     33  C   UNL     1      -6.159 -13.586  -7.676  0.00  0.00    +0.040 A 
ATOM     34  C   UNL     1      -5.378 -12.448  -7.678  0.00  0.00    +0.026 A 
ATOM     35  F   UNL     1      -6.716 -15.685  -8.623  0.00  0.00    -0.205 F 
ENDBRANCH  27  29
ENDBRANCH  24  25
ENDBRANCH   4  24
TORSDOF 8
