REMARK  Name = ZINC39661732
REMARK  9 active torsions:
REMARK  status: ('A' for Active; 'I' for Inactive)
REMARK    1  A    between atoms: C_3  and  O_33
REMARK    2  A    between atoms: C_4  and  O_32
REMARK    3  A    between atoms: C_6  and  C_7
REMARK    4  A    between atoms: C_7  and  C_8
REMARK    5  A    between atoms: C_8  and  N_9
REMARK    6  A    between atoms: C_10  and  C_12
REMARK    7  A    between atoms: C_23  and  C_25
REMARK    8  A    between atoms: C_25  and  C_26
REMARK    9  A    between atoms: C_26  and  C_27
REMARK                            x       y       z     vdW  Elec       q    Type
REMARK                         _______ _______ _______ _____ _____    ______ ____
ROOT
ATOM      1  C   UNL     1      -4.892  -2.882  -2.577  0.00  0.00    +0.100 C 
ATOM      2  C   UNL     1      -4.663  -4.314  -2.043  0.00  0.00    +0.121 C 
ATOM      3  N   UNL     1      -5.556  -5.166  -2.863  0.00  0.00    -0.300 N 
ATOM      4  C   UNL     1      -5.455  -4.599  -4.229  0.00  0.00    +0.115 C 
ATOM      5  C   UNL     1      -5.410  -3.073  -4.012  0.00  0.00    -0.004 C 
ATOM      6  C   UNL     1      -4.454  -2.426  -5.010  0.00  0.00    -0.010 C 
ATOM      7  C   UNL     1      -5.020  -2.579  -6.424  0.00  0.00    -0.082 C 
ATOM      8  N   UNL     1      -6.340  -1.940  -6.497  0.00  0.00    +0.379 N 
ATOM      9  C   UNL     1      -7.278  -2.628  -5.602  0.00  0.00    -0.082 C 
ATOM     10  C   UNL     1      -6.808  -2.478  -4.153  0.00  0.00    -0.010 C 
ATOM     11  C   UNL     1      -6.295  -6.218  -2.459  0.00  0.00    +0.216 C 
ATOM     12  O   UNL     1      -6.982  -6.820  -3.257  0.00  0.00    -0.276 OA
ATOM     13  H   UNL     1      -6.260  -0.974  -6.219  0.00  0.00    -0.086 HD
ATOM     14  H   UNL     1      -6.684  -1.988  -7.444  0.00  0.00    -0.086 HD
ENDROOT
BRANCH   1  16
ATOM     15  N   UNL     1      -3.607  -0.772  -2.446  0.00  0.00    -0.315 N 
ATOM     16  C   UNL     1      -3.596  -2.112  -2.585  0.00  0.00    +0.218 C 
ATOM     17  O   UNL     1      -2.543  -2.699  -2.716  0.00  0.00    -0.275 OA
ATOM     18  H   UNL     1      -4.450  -0.302  -2.341  0.00  0.00    +0.149 HD
BRANCH  15  19
ATOM     19  C   UNL     1      -2.348  -0.024  -2.454  0.00  0.00    +0.109 C 
BRANCH  19  20
ATOM     20  C   UNL     1      -2.640   1.468  -2.281  0.00  0.00    +0.054 C 
BRANCH  20  26
ATOM     21  C   UNL     1      -0.831   2.712  -3.481  0.00  0.00    +0.007 A 
ATOM     22  C   UNL     1       0.357   3.419  -3.494  0.00  0.00    +0.049 A 
ATOM     23  C   UNL     1       1.037   3.653  -2.310  0.00  0.00    +0.158 A 
ATOM     24  C   UNL     1       0.521   3.175  -1.109  0.00  0.00    +0.158 A 
ATOM     25  C   UNL     1      -0.670   2.468  -1.103  0.00  0.00    +0.052 A 
ATOM     26  C   UNL     1      -1.344   2.238  -2.289  0.00  0.00    -0.042 A 
BRANCH  24  27
ATOM     27  O   UNL     1       1.185   3.401   0.056  0.00  0.00    -0.503 OA
ATOM     28  H   UNL     1       0.929   4.221   0.501  0.00  0.00    +0.292 HD
ENDBRANCH  24  27
BRANCH  23  29
ATOM     29  O   UNL     1       2.206   4.347  -2.321  0.00  0.00    -0.503 OA
ATOM     30  H   UNL     1       2.097   5.302  -2.216  0.00  0.00    +0.292 HD
ENDBRANCH  23  29
ENDBRANCH  20  26
ENDBRANCH  19  20
ENDBRANCH  15  19
ENDBRANCH   1  16
BRANCH  11  31
ATOM     31  C   UNL     1      -6.268  -6.647  -1.014  0.00  0.00    +0.096 C 
BRANCH  31  32
ATOM     32  C   UNL     1      -7.186  -7.855  -0.824  0.00  0.00    +0.013 C 
BRANCH  32  33
ATOM     33  C   UNL     1      -7.159  -8.291   0.643  0.00  0.00    -0.011 C 
ATOM     34  C   UNL     1      -5.770  -8.861   0.999  0.00  0.00    +0.003 C 
ATOM     35  C   UNL     1      -6.076 -10.030   1.967  0.00  0.00    +0.000 C 
ATOM     36  C   UNL     1      -7.363 -10.645   1.364  0.00  0.00    +0.000 C 
ATOM     37  C   UNL     1      -8.172  -9.425   0.875  0.00  0.00    +0.003 C 
ENDBRANCH  32  33
ENDBRANCH  31  32
ENDBRANCH  11  31
TORSDOF 9
