REMARK  Name = ZINC66087966
REMARK  7 active torsions:
REMARK  status: ('A' for Active; 'I' for Inactive)
REMARK    1  A    between atoms: C_5  and  C_7
REMARK    2  A    between atoms: C_9  and  C_21
REMARK    3  A    between atoms: C_11  and  C_12
REMARK    4  A    between atoms: C_11  and  C_14
REMARK    5  A    between atoms: C_14  and  N_20
REMARK    6  A    between atoms: C_15  and  C_16
REMARK    7  A    between atoms: C_15  and  C_18
REMARK                            x       y       z     vdW  Elec       q    Type
REMARK                         _______ _______ _______ _____ _____    ______ ____
ROOT
ATOM      1  C   UNL     1       1.262  -2.184  -0.018  0.00  0.00    +0.066 C 
ATOM      2  C   UNL     1      -0.060  -2.917  -0.255  0.00  0.00    +0.127 C 
ATOM      3  C   UNL     1       0.574  -2.912   1.138  0.00  0.00    +0.120 C 
ENDROOT
BRANCH   1   8
ATOM      4  C   UNL     1      -0.010   1.371  -0.020  0.00  0.00    +0.000 A 
ATOM      5  C   UNL     1       1.172   2.088   0.009  0.00  0.00    +0.001 A 
ATOM      6  C   UNL     1       2.383   1.423   0.028  0.00  0.00    +0.020 A 
ATOM      7  C   UNL     1       2.413   0.040   0.020  0.00  0.00    +0.045 A 
ATOM      8  C   UNL     1       1.230  -0.677  -0.008  0.00  0.00    -0.023 A 
ATOM      9  C   UNL     1       0.019  -0.011  -0.028  0.00  0.00    +0.005 A 
ATOM     10 CL   UNL     1       3.934  -0.796   0.044  0.00  0.00    -0.083 Cl
ENDBRANCH   1   8
BRANCH   3  11
ATOM     11  C   UNL     1      -0.068  -2.088   2.175  0.00  0.00    +0.077 C 
ATOM     12  N   UNL     1      -0.564  -1.452   2.975  0.00  0.00    -0.196 NA
ENDBRANCH   3  11
BRANCH   3  13
ATOM     13  C   UNL     1       1.199  -4.195   1.622  0.00  0.00    +0.051 C 
ATOM     14  C   UNL     1       0.439  -5.340   1.712  0.00  0.00    +0.146 C 
BRANCH  13  15
ATOM     15  N   UNL     1       2.513  -4.223   1.970  0.00  0.00    -0.358 N 
ATOM     16  H   UNL     1       3.027  -3.400   1.988  0.00  0.00    +0.142 HD
ATOM     17  H   UNL     1       2.936  -5.064   2.201  0.00  0.00    +0.142 HD
ENDBRANCH  13  15
BRANCH  14  18
ATOM     18  C   UNL     1       1.033  -6.559   2.172  0.00  0.00    +0.112 C 
ATOM     19  N   UNL     1       1.504  -7.527   2.537  0.00  0.00    -0.190 NA
ENDBRANCH  14  18
BRANCH  14  20
ATOM     20  C   UNL     1      -0.945  -5.312   1.345  0.00  0.00    +0.112 C 
ATOM     21  N   UNL     1      -2.043  -5.289   1.054  0.00  0.00    -0.190 NA
ENDBRANCH  14  20
ENDBRANCH   3  13
BRANCH   2  22
ATOM     22  C   UNL     1      -0.012  -4.174  -1.020  0.00  0.00    +0.069 C 
ATOM     23  N   UNL     1       0.025  -5.144  -1.610  0.00  0.00    -0.196 NA
ENDBRANCH   2  22
TORSDOF 7
