REMARK  Name = ZINC36853007
REMARK  5 active torsions:
REMARK  status: ('A' for Active; 'I' for Inactive)
REMARK    1  A    between atoms: C_1  and  C_2
REMARK    2  A    between atoms: C_7  and  N_12
REMARK    3  A    between atoms: C_9  and  C_11
REMARK    4  A    between atoms: N_12  and  C_13
REMARK    5  A    between atoms: N_18  and  C_21
REMARK                            x       y       z     vdW  Elec       q    Type
REMARK                         _______ _______ _______ _____ _____    ______ ____
ROOT
ATOM      1  C   UNL     1       1.598  -3.990   2.355  0.00  0.00    +0.026 C 
ATOM      2  C   UNL     1       2.278  -4.536   3.627  0.00  0.00    +0.090 C 
ATOM      3  C   UNL     1       3.538  -5.190   3.103  0.00  0.00    +0.221 C 
ATOM      4  O   UNL     1       4.372  -5.751   3.781  0.00  0.00    -0.275 OA
ATOM      5  N   UNL     1       3.585  -5.051   1.772  0.00  0.00    -0.240 N 
ATOM      6  C   UNL     1       2.542  -4.392   1.243  0.00  0.00    +0.208 C 
ATOM      7  O   UNL     1       2.381  -4.156   0.065  0.00  0.00    -0.277 OA
ENDROOT
BRANCH   5   8
ATOM      8  C   UNL     1       4.684  -5.578   0.959  0.00  0.00    +0.084 C 
ATOM      9  C   UNL     1       4.826  -7.098   1.182  0.00  0.00    +0.023 C 
ATOM     10  C   UNL     1       6.354  -7.346   1.147  0.00  0.00    +0.002 C 
ATOM     11  C   UNL     1       6.920  -6.099   1.872  0.00  0.00    +0.002 C 
ATOM     12  C   UNL     1       6.015  -4.943   1.397  0.00  0.00    +0.023 C 
ENDBRANCH   5   8
BRANCH   1  13
ATOM     13  N   UNL     1       1.473  -2.527   2.423  0.00  0.00    +0.389 N 
ATOM     14  H   UNL     1       2.393  -2.113   2.459  0.00  0.00    -0.084 HD
ATOM     15  H   UNL     1       0.957  -2.272   3.251  0.00  0.00    -0.084 HD
BRANCH  13  21
ATOM     16  C   UNL     1      -0.019   1.526   0.010  0.00  0.00    +0.008 C 
ATOM     17  C   UNL     1       0.002  -0.004   0.002  0.00  0.00    -0.013 C 
ATOM     18  C   UNL     1      -1.433  -0.534   0.013  0.00  0.00    +0.003 C 
ATOM     19  C   UNL     1      -1.413  -2.063   0.004  0.00  0.00    -0.001 C 
ATOM     20  C   UNL     1      -0.673  -2.570   1.244  0.00  0.00    -0.015 C 
ATOM     21  C   UNL     1       0.763  -2.041   1.233  0.00  0.00    -0.068 C 
ATOM     22  C   UNL     1       0.742  -0.511   1.242  0.00  0.00    -0.025 C 
ATOM     23  C   UNL     1       0.026  -0.018   2.500  0.00  0.00    +0.006 C 
ENDBRANCH  13  21
ENDBRANCH   1  13
TORSDOF 3
