REMARK  Name = ZINC32859544
REMARK  7 active torsions:
REMARK  status: ('A' for Active; 'I' for Inactive)
REMARK    1  A    between atoms: C_1  and  C_2
REMARK    2  A    between atoms: C_2  and  C_3
REMARK    3  A    between atoms: C_3  and  C_26
REMARK    4  A    between atoms: N_6  and  C_10
REMARK    5  A    between atoms: C_10  and  C_11
REMARK    6  A    between atoms: C_13  and  O_14
REMARK    7  A    between atoms: C_23  and  C_25
REMARK                            x       y       z     vdW  Elec       q    Type
REMARK                         _______ _______ _______ _____ _____    ______ ____
ROOT
ATOM      1  C   UNL     1       3.188  -1.308   0.543  0.00  0.00    +0.154 C 
ENDROOT
BRANCH   1   2
ATOM      2  C   UNL     1       1.942  -0.472   0.682  0.00  0.00    -0.012 A 
ATOM      3  C   UNL     1       1.695   0.230   1.819  0.00  0.00    +0.093 A 
ATOM      4  C   UNL     1       0.522   1.006   1.924  0.00  0.00    +0.285 A 
ATOM      5  O   UNL     1      -0.370   1.074   0.923  0.00  0.00    -0.425 OA
ATOM      6  C   UNL     1      -0.185   0.402  -0.233  0.00  0.00    +0.141 A 
ATOM      7  C   UNL     1       0.964  -0.393  -0.406  0.00  0.00    +0.022 A 
ATOM      8  C   UNL     1       1.160  -1.092  -1.602  0.00  0.00    +0.014 A 
ATOM      9  C   UNL     1       0.233  -1.002  -2.600  0.00  0.00    +0.024 A 
ATOM     10  C   UNL     1      -0.907  -0.217  -2.435  0.00  0.00    +0.037 A 
ATOM     11  C   UNL     1      -1.116   0.483  -1.256  0.00  0.00    +0.070 A 
ATOM     12  N   UNL     1      -1.845  -0.134  -3.465  0.00  0.00    -0.286 N 
ATOM     13  C   UNL     1      -3.159  -0.047  -3.175  0.00  0.00    +0.214 C 
ATOM     14  O   UNL     1      -3.520   0.041  -2.021  0.00  0.00    -0.276 OA
ATOM     15  C   UNL     1      -4.178  -0.059  -4.285  0.00  0.00    +0.109 C 
ATOM     16  H   UNL     1      -1.513  -0.140  -4.514  0.00  0.00    +0.155 HD
BRANCH   4  17
ATOM     17  O   UNL     1       0.314   1.630   2.949  0.00  0.00    -0.480 OA
ATOM     18  H   UNL     1      -0.597   2.239   3.046  0.00  0.00    +0.295 HD
ENDBRANCH   4  17
ENDBRANCH   1   2
BRANCH   1  22
ATOM     19  C   UNL     1       5.687  -0.303   3.100  0.00  0.00    +0.138 C 
ATOM     20  C   UNL     1       5.077  -0.198   1.716  0.00  0.00    +0.251 C 
ATOM     21  O   UNL     1       5.431   0.530   0.813  0.00  0.00    -0.272 OA
ATOM     22  N   UNL     1       4.059  -1.081   1.698  0.00  0.00    -0.220 N 
ATOM     23  C   UNL     1       3.947  -1.728   2.864  0.00  0.00    +0.310 C 
ATOM     24  O   UNL     1       3.106  -2.575   3.088  0.00  0.00    -0.252 OA
ATOM     25  N   UNL     1       4.870  -1.335   3.761  0.00  0.00    -0.281 N 
ATOM     26  H   UNL     1       5.089  -1.629   4.798  0.00  0.00    +0.152 HD
BRANCH  19  27
ATOM     27  C   UNL     1       7.125  -0.743   3.009  0.00  0.00    -0.015 A 
ATOM     28  C   UNL     1       8.138   0.198   3.005  0.00  0.00    +0.006 A 
ATOM     29  C   UNL     1       9.457  -0.206   2.926  0.00  0.00    +0.000 A 
ATOM     30  C   UNL     1       9.764  -1.552   2.841  0.00  0.00    +0.000 A 
ATOM     31  C   UNL     1       8.752  -2.493   2.840  0.00  0.00    +0.000 A 
ATOM     32  C   UNL     1       7.432  -2.089   2.924  0.00  0.00    +0.006 A 
ENDBRANCH  19  27
BRANCH  19  34
ATOM     33  C   UNL     1       4.117   1.475   3.884  0.00  0.00    +0.007 C 
ATOM     34  C   UNL     1       5.580   1.028   3.846  0.00  0.00    +0.037 C 
ENDBRANCH  19  34
ENDBRANCH   1  22
TORSDOF 5
