REMARK  Name = ZINC62777424
REMARK  5 active torsions:
REMARK  status: ('A' for Active; 'I' for Inactive)
REMARK    1  A    between atoms: C_1  and  N_2
REMARK    2  A    between atoms: C_5  and  C_14
REMARK    3  A    between atoms: N_9  and  C_12
REMARK    4  A    between atoms: C_14  and  C_16
REMARK    5  A    between atoms: C_14  and  N_22
REMARK                            x       y       z     vdW  Elec       q    Type
REMARK                         _______ _______ _______ _____ _____    ______ ____
ROOT
ATOM      1  C   UNL     1      -0.018   1.461   0.010  0.00  0.00    +0.154 C 
ATOM      2  N   UNL     1       0.002  -0.004   0.002  0.00  0.00    -0.295 N 
ATOM      3  C   UNL     1      -1.117  -0.835   0.003  0.00  0.00    +0.070 A 
ATOM      4  C   UNL     1      -2.482  -0.592   0.011  0.00  0.00    +0.031 A 
ATOM      5  C   UNL     1      -3.368  -1.651   0.010  0.00  0.00    -0.042 A 
ATOM      6  C   UNL     1      -2.899  -2.954   0.001  0.00  0.00    +0.022 A 
ATOM      7  C   UNL     1      -1.541  -3.206  -0.007  0.00  0.00    +0.043 A 
ATOM      8  C   UNL     1      -0.643  -2.148  -0.007  0.00  0.00    +0.071 A 
ATOM      9  N   UNL     1       0.748  -2.075  -0.013  0.00  0.00    -0.295 N 
ATOM     10  C   UNL     1       1.104  -0.777  -0.013  0.00  0.00    +0.330 A 
ATOM     11  O   UNL     1       2.249  -0.365  -0.023  0.00  0.00    -0.246 OA
ATOM     12  C   UNL     1       1.666  -3.217  -0.023  0.00  0.00    +0.154 C 
ATOM     13 BR   UNL     1      -4.124  -4.396   0.001  0.00  0.00    -0.050 Br
ENDROOT
BRANCH   5  14
ATOM     14  C   UNL     1      -4.852  -1.387   0.019  0.00  0.00    -0.009 C 
BRANCH  14  15
ATOM     15  C   UNL     1      -5.397  -1.535  -1.378  0.00  0.00    -0.020 A 
ATOM     16  C   UNL     1      -6.048  -2.615  -1.869  0.00  0.00    +0.107 A 
ATOM     17  N   UNL     1      -6.371  -2.352  -3.152  0.00  0.00    -0.285 N 
ATOM     18  H   UNL     1      -6.844  -2.947  -3.755  0.00  0.00    +0.188 HD
ATOM     19  N   UNL     1      -5.902  -1.069  -3.461  0.00  0.00    -0.182 NA
ATOM     20  C   UNL     1      -5.324  -0.578  -2.396  0.00  0.00    +0.136 A 
ENDBRANCH  14  15
BRANCH  14  21
ATOM     21  N   UNL     1      -5.104  -0.023   0.501  0.00  0.00    +0.385 N 
ATOM     22  H   UNL     1      -6.097   0.154   0.507  0.00  0.00    -0.089 HD
ATOM     23  H   UNL     1      -4.739   0.076   1.437  0.00  0.00    -0.089 HD
ATOM     24  H   UNL     1      -4.648   0.639  -0.109  0.00  0.00    -0.089 HD
ENDBRANCH  14  21
ENDBRANCH   5  14
TORSDOF 3
