REMARK  Name = ZINC46036593
REMARK  4 active torsions:
REMARK  status: ('A' for Active; 'I' for Inactive)
REMARK    1  A    between atoms: C_1  and  C_2
REMARK    2  A    between atoms: N_5  and  S_8
REMARK    3  A    between atoms: S_8  and  N_11
REMARK    4  A    between atoms: N_11  and  C_12
REMARK                            x       y       z     vdW  Elec       q    Type
REMARK                         _______ _______ _______ _____ _____    ______ ____
ROOT
ATOM      1  N   UNL     1      -0.817  -5.169   1.546  0.00  0.00    -0.178 NA
ATOM      2  H   UNL     1      -1.533  -5.765   1.275  0.00  0.00    +0.149 HD
ENDROOT
BRANCH   1   3
ATOM      3  C   UNL     1       0.578  -5.596   1.421  0.00  0.00    +0.062 C 
ATOM      4  C   UNL     1       1.081  -5.394  -0.032  0.00  0.00    +0.000 C 
ATOM      5  C   UNL     1       1.391  -6.824  -0.550  0.00  0.00    -0.077 C 
ATOM      6  N   UNL     1       0.541  -7.684   0.290  0.00  0.00    +0.383 N 
ATOM      7  C   UNL     1       0.701  -7.105   1.655  0.00  0.00    -0.050 C 
ATOM      8  C   UNL     1      -0.391  -7.692   2.537  0.00  0.00    -0.014 C 
ATOM      9  C   UNL     1      -0.144  -9.206   2.630  0.00  0.00    -0.003 C 
ATOM     10  C   UNL     1      -0.082  -9.826   1.235  0.00  0.00    -0.019 C 
ATOM     11  C   UNL     1       0.937  -9.084   0.346  0.00  0.00    -0.078 C 
ATOM     12  H   UNL     1      -0.420  -7.611  -0.008  0.00  0.00    -0.081 HD
ENDBRANCH   1   3
BRANCH   1  13
ATOM     13  S   UNL     1      -1.173  -3.668   2.148  0.00  0.00    +0.097 S 
ATOM     14  O   UNL     1      -0.421  -3.521   3.344  0.00  0.00    -0.141 OA
ATOM     15  O   UNL     1      -2.589  -3.544   2.119  0.00  0.00    -0.141 OA
BRANCH  13  20
ATOM     16  C   UNL     1      -0.019   1.526   0.010  0.00  0.00    +0.007 C 
ATOM     17  C   UNL     1       0.002  -0.004   0.002  0.00  0.00    -0.012 C 
ATOM     18  C   UNL     1      -1.434  -0.533   0.011  0.00  0.00    +0.020 C 
ATOM     19  C   UNL     1      -1.409  -2.065  -0.032  0.00  0.00    +0.111 C 
ATOM     20  N   UNL     1      -0.578  -2.556   1.075  0.00  0.00    -0.167 NA
ATOM     21  C   UNL     1       0.791  -2.042   1.212  0.00  0.00    +0.111 C 
ATOM     22  C   UNL     1       0.742  -0.511   1.242  0.00  0.00    +0.020 C 
ENDBRANCH  13  20
ENDBRANCH   1  13
TORSDOF 3
