REMARK  Name = ZINC03839876
REMARK  7 active torsions:
REMARK  status: ('A' for Active; 'I' for Inactive)
REMARK    1  A    between atoms: CD1_1  and  CG_2
REMARK    2  A    between atoms: CG_2  and  CD2_3
REMARK    3  A    between atoms: CG_2  and  CB_4
REMARK    4  A    between atoms: CB_4  and  CA_5
REMARK    5  A    between atoms: C_12  and  O_20
REMARK    6  A    between atoms: O_20  and  C_21
REMARK    7  A    between atoms: C_21  and  C_22
REMARK                            x       y       z     vdW  Elec       q    Type
REMARK                         _______ _______ _______ _____ _____    ______ ____
ROOT
ATOM      1  CA  LEU A   2       1.192   3.317   0.075  0.00  0.00    +0.159 C 
ATOM      2  C   LEU A   2      -0.023   3.928   0.716  0.00  0.00    +0.237 C 
ATOM      3  O   LEU A   2       0.086   4.976   1.316  0.00  0.00    -0.274 OA
ATOM      4  N   UNK A   1      -1.221   3.340   0.637  0.00  0.00    -0.288 N 
ATOM      5  C   UNK A   1      -2.460   4.105   0.862  0.00  0.00    +0.111 C 
ATOM      6  C   UNK A   1      -3.301   3.991  -0.418  0.00  0.00    +0.050 C 
ATOM      7  C   UNK A   1      -3.531   2.519  -0.761  0.00  0.00    +0.123 C 
ATOM      8  C   UNK A   1      -2.191   1.805  -0.974  0.00  0.00    +0.063 C 
ATOM      9  C   UNK A   1      -1.370   1.921   0.303  0.00  0.00    +0.164 C 
ATOM     10  C   UNK A   1      -0.060   1.218   0.216  0.00  0.00    +0.234 C 
ATOM     11  O   UNK A   1      -0.055   0.005   0.227  0.00  0.00    -0.274 OA
ATOM     12  N   LEU A   2       1.113   1.859   0.120  0.00  0.00    -0.302 N 
ATOM     13  H   LEU A   2       1.932   1.341   0.080  0.00  0.00    +0.150 HD
ENDROOT
BRANCH   1  14
ATOM     14  CB  LEU A   2       2.445   3.779   0.823  0.00  0.00    +0.034 C 
BRANCH  14  16
ATOM     15  CD1 LEU A   2       3.830   5.764   1.441  0.00  0.00    +0.007 C 
ATOM     16  CG  LEU A   2       2.645   5.280   0.603  0.00  0.00    -0.015 C 
ATOM     17  CD2 LEU A   2       2.925   5.545  -0.878  0.00  0.00    +0.007 C 
ENDBRANCH  14  16
ENDBRANCH   1  14
BRANCH   7  18
ATOM     18  O   UNK A   1      -4.307   2.427  -1.957  0.00  0.00    -0.364 OA
BRANCH  18  19
ATOM     19  C   UNK A   1      -5.718   2.396  -1.734  0.00  0.00    +0.248 C 
BRANCH  19  20
ATOM     20  C   UNK A   1      -6.418   2.302  -3.026  0.00  0.00    -0.077 C 
ATOM     21  C   UNK A   1      -6.975   2.226  -4.056  0.00  0.00    +0.006 C 
ENDBRANCH  19  20
ENDBRANCH  18  19
ENDBRANCH   7  18
TORSDOF 5
