REMARK  Name = ZINC39327256
REMARK  4 active torsions:
REMARK  status: ('A' for Active; 'I' for Inactive)
REMARK    1  A    between atoms: C_1  and  C_2
REMARK    2  A    between atoms: C_4  and  C_16
REMARK    3  A    between atoms: C_6  and  C_14
REMARK    4  A    between atoms: C_7  and  N_13
REMARK                            x       y       z     vdW  Elec       q    Type
REMARK                         _______ _______ _______ _____ _____    ______ ____
ROOT
ATOM      1  C   UNL     1      -0.018   1.503   0.010  0.00  0.00    +0.067 C 
ATOM      2  C   UNL     1       0.002  -0.004   0.002  0.00  0.00    +0.066 C 
ATOM      3  C   UNL     1      -1.064  -0.768   0.003  0.00  0.00    +0.030 C 
ATOM      4  C   UNL     1      -2.537  -0.492  -0.122  0.00  0.00    +0.104 C 
ATOM      5  C   UNL     1      -3.075  -1.565  -1.050  0.00  0.00    +0.098 C 
ATOM      6  C   UNL     1      -2.317  -2.612  -1.438  0.00  0.00    +0.195 C 
ATOM      7  O   UNL     1      -1.033  -2.841  -1.107  0.00  0.00    -0.448 OA
ATOM      8  C   UNL     1      -0.528  -2.199   0.066  0.00  0.00    +0.343 C 
ATOM      9  N   UNL     1       0.921  -1.985   0.002  0.00  0.00    -0.138 NA
ATOM     10  N   UNL     1       1.127  -0.765  -0.013  0.00  0.00    -0.155 NA
ENDROOT
BRANCH   4  11
ATOM     11  C   UNL     1      -3.201  -0.585   1.227  0.00  0.00    +0.004 A 
ATOM     12  C   UNL     1      -3.891   0.364   1.906  0.00  0.00    +0.013 A 
ATOM     13  C   UNL     1      -4.419   0.052   3.145  0.00  0.00    +0.028 A 
ATOM     14  C   UNL     1      -4.231  -1.196   3.644  0.00  0.00    +0.078 A 
ATOM     15  S   UNL     1      -3.289  -1.976   2.343  0.00  0.00    -0.081 S 
ATOM     16 CL   UNL     1      -4.772  -1.863   5.153  0.00  0.00    -0.076 Cl
ENDBRANCH   4  11
BRANCH   6  17
ATOM     17  N   UNL     1      -2.917  -3.538  -2.254  0.00  0.00    -0.329 N 
ATOM     18  H   UNL     1      -3.842  -3.421  -2.523  0.00  0.00    +0.145 HD
ATOM     19  H   UNL     1      -2.417  -4.310  -2.562  0.00  0.00    +0.145 HD
ENDBRANCH   6  17
BRANCH   5  20
ATOM     20  C   UNL     1      -4.422  -1.466  -1.525  0.00  0.00    +0.101 C 
ATOM     21  N   UNL     1      -5.491  -1.387  -1.903  0.00  0.00    -0.191 NA
ENDBRANCH   5  20
TORSDOF 3
