REMARK  Name = ZINC53862007
REMARK  7 active torsions:
REMARK  status: ('A' for Active; 'I' for Inactive)
REMARK    1  A    between atoms: C_1  and  C_2
REMARK    2  A    between atoms: C_2  and  C_3
REMARK    3  A    between atoms: C_7  and  N_20
REMARK    4  A    between atoms: C_9  and  C_12
REMARK    5  A    between atoms: C_12  and  N_13
REMARK    6  A    between atoms: N_20  and  C_21
REMARK    7  A    between atoms: C_21  and  C_22
REMARK                            x       y       z     vdW  Elec       q    Type
REMARK                         _______ _______ _______ _____ _____    ______ ____
ROOT
ATOM      1  C   UNL     1       0.556  -0.686   0.922  0.00  0.00    -0.011 C 
ATOM      2  C   UNL     1       2.003  -0.258   0.670  0.00  0.00    +0.002 C 
ATOM      3  C   UNL     1       2.860  -0.619   1.884  0.00  0.00    -0.015 C 
ATOM      4  C   UNL     1       2.808  -2.131   2.114  0.00  0.00    -0.070 C 
ATOM      5  C   UNL     1       1.361  -2.559   2.366  0.00  0.00    -0.042 C 
ATOM      6  C   UNL     1       0.503  -2.197   1.151  0.00  0.00    +0.003 C 
ENDROOT
BRANCH   4   7
ATOM      7  N   UNL     1       3.631  -2.478   3.280  0.00  0.00    +0.381 N 
ATOM      8  H   UNL     1       3.329  -1.939   4.077  0.00  0.00    -0.086 HD
ATOM      9  H   UNL     1       3.532  -3.462   3.481  0.00  0.00    -0.086 HD
BRANCH   7  10
ATOM     10  C   UNL     1       5.040  -2.177   2.991  0.00  0.00    -0.086 C 
ATOM     11  C   UNL     1       5.898  -2.539   4.206  0.00  0.00    -0.017 C 
ENDBRANCH   7  10
ENDBRANCH   4   7
BRANCH   1  13
ATOM     12  C   UNL     1      -0.351   1.197  -0.448  0.00  0.00    +0.004 C 
ATOM     13  C   UNL     1      -0.302  -0.324  -0.292  0.00  0.00    +0.000 C 
ENDBRANCH   1  13
BRANCH   5  14
ATOM     14  C   UNL     1       1.309  -4.071   2.595  0.00  0.00    -0.077 C 
BRANCH  14  15
ATOM     15  N   UNL     1      -0.070  -4.472   2.905  0.00  0.00    +0.380 N 
ATOM     16  C   UNL     1      -0.480  -3.824   4.166  0.00  0.00    -0.079 C 
ATOM     17  C   UNL     1      -1.984  -3.719   4.178  0.00  0.00    -0.019 C 
ATOM     18  C   UNL     1      -2.625  -4.891   4.944  0.00  0.00    -0.002 C 
ATOM     19  C   UNL     1      -1.919  -6.228   4.639  0.00  0.00    -0.002 C 
ATOM     20  C   UNL     1      -1.570  -6.374   3.180  0.00  0.00    -0.019 C 
ATOM     21  C   UNL     1      -0.131  -5.865   2.953  0.00  0.00    -0.079 C 
ATOM     22  H   UNL     1      -0.675  -4.147   2.165  0.00  0.00    -0.082 HD
ENDBRANCH  14  15
ENDBRANCH   5  14
TORSDOF 5
