REMARK  Name = ZINC36738609
REMARK  3 active torsions:
REMARK  status: ('A' for Active; 'I' for Inactive)
REMARK    1  A    between atoms: C_5  and  C_6
REMARK    2  A    between atoms: N_8  and  C_9
REMARK    3  A    between atoms: C_14  and  N_15
REMARK                            x       y       z     vdW  Elec       q    Type
REMARK                         _______ _______ _______ _____ _____    ______ ____
ROOT
ATOM      1  C   UNL     1      -1.998  -3.128   0.097  0.00  0.00    +0.057 A 
ATOM      2  C   UNL     1      -3.283  -2.605   0.098  0.00  0.00    +0.052 A 
ATOM      3  C   UNL     1      -4.373  -3.454   0.196  0.00  0.00    +0.078 A 
ATOM      4  C   UNL     1      -4.181  -4.831   0.293  0.00  0.00    +0.144 A 
ATOM      5  C   UNL     1      -2.899  -5.354   0.291  0.00  0.00    +0.072 A 
ATOM      6  C   UNL     1      -1.806  -4.505   0.188  0.00  0.00    +0.050 A 
ATOM      7  O   UNL     1      -5.262  -5.652   0.391  0.00  0.00    -0.481 OA
ATOM      8  C   UNL     1      -6.400  -5.136   1.086  0.00  0.00    +0.325 C 
ATOM      9  C   UNL     1      -6.694  -3.736   0.608  0.00  0.00    +0.255 C 
ATOM     10  O   UNL     1      -7.835  -3.326   0.590  0.00  0.00    -0.272 OA
ATOM     11  N   UNL     1      -5.681  -2.942   0.198  0.00  0.00    -0.280 N 
ATOM     12  H   UNL     1      -5.854  -2.032  -0.089  0.00  0.00    +0.155 HD
ENDROOT
BRANCH   1  15
ATOM     13  C   UNL     1      -1.027  -1.060  -0.579  0.00  0.00    +0.255 C 
ATOM     14  O   UNL     1      -2.080  -0.751  -1.105  0.00  0.00    -0.269 OA
ATOM     15  N   UNL     1      -0.892  -2.271  -0.002  0.00  0.00    -0.279 N 
ATOM     16  H   UNL     1      -0.030  -2.549   0.346  0.00  0.00    +0.155 HD
BRANCH  13  21
ATOM     17  C   UNL     1       0.163   1.161  -1.107  0.00  0.00    +0.022 A 
ATOM     18  C   UNL     1       1.363   1.811  -0.946  0.00  0.00    +0.024 A 
ATOM     19  C   UNL     1       2.373   1.179  -0.296  0.00  0.00    +0.056 A 
ATOM     20  S   UNL     1       1.726  -0.315   0.116  0.00  0.00    -0.077 S 
ATOM     21  C   UNL     1       0.094  -0.118  -0.575  0.00  0.00    +0.075 A 
ATOM     22 BR   UNL     1       4.111   1.832   0.064  0.00  0.00    -0.043 Br
ENDBRANCH  13  21
ENDBRANCH   1  15
BRANCH   6  23
ATOM     23  N   UNL     1      -0.508  -5.034   0.180  0.00  0.00    -0.356 N 
ATOM     24  H   UNL     1       0.256  -4.441   0.112  0.00  0.00    +0.142 HD
ATOM     25  H   UNL     1      -0.374  -5.992   0.243  0.00  0.00    +0.142 HD
ENDBRANCH   6  23
TORSDOF 3
