REMARK  Name = ZINC21811075
REMARK  11 active torsions:
REMARK  status: ('A' for Active; 'I' for Inactive)
REMARK    1  A    between atoms: C_1  and  C_2
REMARK    2  A    between atoms: C_2  and  N_3
REMARK    3  A    between atoms: N_3  and  C_4
REMARK    4  A    between atoms: N_3  and  C_6
REMARK    5  A    between atoms: C_4  and  C_5
REMARK    6  A    between atoms: C_6  and  C_7
REMARK    7  A    between atoms: C_7  and  N_8
REMARK    8  A    between atoms: C_17  and  C_18
REMARK    9  A    between atoms: C_17  and  C_19
REMARK   10  A    between atoms: N_21  and  C_22
REMARK   11  A    between atoms: C_25  and  C_28
REMARK                            x       y       z     vdW  Elec       q    Type
REMARK                         _______ _______ _______ _____ _____    ______ ____
ROOT
ATOM      1  N   UNL     1      -2.246  -0.093  -0.381  0.00  0.00    -0.282 N 
ATOM      2  C   UNL     1      -1.061  -0.721  -0.199  0.00  0.00    +0.264 C 
ATOM      3  O   UNL     1      -0.995  -1.919   0.007  0.00  0.00    -0.268 OA
ATOM      4  C   UNL     1       0.141   0.120  -0.264  0.00  0.00    +0.109 A 
ATOM      5  C   UNL     1       1.461  -0.220  -0.307  0.00  0.00    +0.079 A 
ATOM      6  C   UNL     1       2.199   0.970  -0.391  0.00  0.00    +0.153 A 
ATOM      7  C   UNL     1       1.293   2.030  -0.392  0.00  0.00    +0.088 A 
ATOM      8  N   UNL     1       0.038   1.508  -0.305  0.00  0.00    -0.331 N 
ATOM      9  C   UNL     1      -1.262   2.184  -0.246  0.00  0.00    +0.157 C 
ATOM     10  C   UNL     1      -2.327   1.280  -0.865  0.00  0.00    +0.128 C 
ATOM     11  C   UNL     1      -2.150   1.280  -2.384  0.00  0.00    +0.043 C 
ATOM     12  C   UNL     1       2.070   3.210  -0.483  0.00  0.00    +0.067 A 
ATOM     13  C   UNL     1       3.360   2.836  -0.528  0.00  0.00    +0.198 A 
ATOM     14  O   UNL     1       3.440   1.496  -0.470  0.00  0.00    -0.461 OA
ENDROOT
BRANCH  10  15
ATOM     15  C   UNL     1      -3.688   1.834  -0.533  0.00  0.00    +0.238 C 
ATOM     16  O   UNL     1      -3.849   2.485   0.477  0.00  0.00    -0.273 OA
ATOM     17  N   UNL     1      -4.728   1.606  -1.360  0.00  0.00    -0.311 N 
ATOM     18  H   UNL     1      -4.605   0.941  -2.228  0.00  0.00    +0.149 HD
BRANCH  17  19
ATOM     19  C   UNL     1      -6.022   2.242  -1.102  0.00  0.00    +0.073 C 
ATOM     20  C   UNL     1      -6.867   1.335  -0.205  0.00  0.00    +0.022 C 
ATOM     21  C   UNL     1      -8.219   2.000   0.064  0.00  0.00    +0.005 C 
ATOM     22  C   UNL     1      -8.948   2.228  -1.261  0.00  0.00    -0.014 C 
ATOM     23  C   UNL     1      -8.103   3.135  -2.159  0.00  0.00    +0.005 C 
ATOM     24  C   UNL     1      -6.752   2.470  -2.428  0.00  0.00    +0.022 C 
ATOM     25  C   UNL     1     -10.299   2.893  -0.992  0.00  0.00    +0.007 C 
ENDBRANCH  17  19
ENDBRANCH  10  15
BRANCH   1  26
ATOM     26  C   UNL     1      -3.486  -0.816  -0.084  0.00  0.00    +0.091 C 
BRANCH  26  27
ATOM     27  C   UNL     1      -3.789  -0.713   1.412  0.00  0.00    -0.060 C 
BRANCH  27  28
ATOM     28  N   UNL     1      -4.962  -1.538   1.732  0.00  0.00    +0.380 N 
ATOM     29  H   UNL     1      -5.744  -1.316   0.990  0.00  0.00    -0.082 HD
BRANCH  28  31
ATOM     30  C   UNL     1      -5.937  -3.780   1.592  0.00  0.00    -0.017 C 
ATOM     31  C   UNL     1      -4.641  -2.968   1.636  0.00  0.00    -0.082 C 
ENDBRANCH  28  31
BRANCH  28  32
ATOM     32  C   UNL     1      -5.493  -1.206   3.061  0.00  0.00    -0.082 C 
ATOM     33  C   UNL     1      -6.246   0.124   2.991  0.00  0.00    -0.017 C 
ENDBRANCH  28  32
ENDBRANCH  27  28
ENDBRANCH  26  27
ENDBRANCH   1  26
TORSDOF 7
