REMARK  Name = ZINC66334707
REMARK  10 active torsions:
REMARK  status: ('A' for Active; 'I' for Inactive)
REMARK    1  A    between atoms: C_1  and  C_2
REMARK    2  A    between atoms: C_6  and  O_8
REMARK    3  A    between atoms: O_8  and  C_9
REMARK    4  A    between atoms: C_9  and  C_10
REMARK    5  A    between atoms: C_10  and  C_12
REMARK    6  A    between atoms: C_10  and  O_28
REMARK    7  A    between atoms: C_12  and  N_13
REMARK    8  A    between atoms: N_16  and  C_17
REMARK    9  A    between atoms: C_17  and  C_18
REMARK   10  A    between atoms: C_18  and  C_19
REMARK                            x       y       z     vdW  Elec       q    Type
REMARK                         _______ _______ _______ _____ _____    ______ ____
ROOT
ATOM      1  N   UNL     1      -0.130  -6.881   4.945  0.00  0.00    -0.297 N 
ATOM      2  C   UNL     1      -0.234  -8.214   5.114  0.00  0.00    +0.300 C 
ATOM      3  O   UNL     1      -0.240  -8.951   4.147  0.00  0.00    -0.253 OA
ATOM      4  N   UNL     1      -0.332  -8.730   6.355  0.00  0.00    -0.299 N 
ATOM      5  H   UNL     1      -0.125  -6.293   5.716  0.00  0.00    +0.150 HD
ATOM      6  H   UNL     1      -0.327  -8.142   7.127  0.00  0.00    +0.150 HD
ENDROOT
BRANCH   1   7
ATOM      7  C   UNL     1      -0.023  -6.320   3.595  0.00  0.00    +0.140 C 
BRANCH   7   8
ATOM      8  C   UNL     1       0.083  -4.796   3.683  0.00  0.00    +0.169 C 
BRANCH   8   9
ATOM      9  O   UNL     1       1.302  -4.441   4.338  0.00  0.00    -0.387 OA
ATOM     10  H   UNL     1       2.097  -4.756   3.887  0.00  0.00    +0.210 HD
ENDBRANCH   8   9
BRANCH   8  11
ATOM     11  C   UNL     1       0.069  -4.202   2.274  0.00  0.00    +0.261 C 
BRANCH  11  12
ATOM     12  O   UNL     1       0.050  -2.776   2.358  0.00  0.00    -0.489 OA
BRANCH  12  18
ATOM     13  C   UNL     1      -0.018   1.503   0.010  0.00  0.00    +0.044 C 
ATOM     14  C   UNL     1       0.002  -0.004   0.002  0.00  0.00    -0.047 A 
ATOM     15  C   UNL     1       0.006  -0.688  -1.200  0.00  0.00    +0.003 A 
ATOM     16  C   UNL     1       0.024  -2.071  -1.211  0.00  0.00    +0.004 A 
ATOM     17  C   UNL     1       0.039  -2.772  -0.020  0.00  0.00    +0.045 A 
ATOM     18  C   UNL     1       0.035  -2.088   1.186  0.00  0.00    +0.121 A 
ATOM     19  C   UNL     1       0.023  -0.700   1.195  0.00  0.00    +0.049 A 
ENDBRANCH  12  18
ENDBRANCH  11  12
ENDBRANCH   8  11
ENDBRANCH   7   8
ENDBRANCH   1   7
BRANCH   4  20
ATOM     20  C   UNL     1      -0.446 -10.179   6.539  0.00  0.00    +0.112 C 
BRANCH  20  21
ATOM     21  C   UNL     1      -0.542 -10.497   8.033  0.00  0.00    +0.073 C 
BRANCH  21  22
ATOM     22  C   UNL     1      -0.659 -11.988   8.222  0.00  0.00    +0.035 A 
ATOM     23  C   UNL     1      -1.799 -12.706   8.169  0.00  0.00    +0.108 A 
ATOM     24  N   UNL     1      -1.454 -14.005   8.393  0.00  0.00    -0.336 N 
ATOM     25  C   UNL     1      -0.113 -14.042   8.578  0.00  0.00    +0.087 A 
ATOM     26  N   UNL     1       0.355 -12.834   8.468  0.00  0.00    -0.347 N 
ATOM     27  C   UNL     1       0.666 -15.306   8.858  0.00  0.00    +0.072 C 
ATOM     28  C   UNL     1      -0.326 -16.396   9.283  0.00  0.00    +0.009 C 
ATOM     29  C   UNL     1      -1.486 -16.440   8.285  0.00  0.00    +0.022 C 
ATOM     30  C   UNL     1      -2.337 -15.174   8.434  0.00  0.00    +0.123 C 
ATOM     31  H   UNL     1       1.288 -12.582   8.552  0.00  0.00    +0.167 HD
ENDBRANCH  21  22
ENDBRANCH  20  21
ENDBRANCH   4  20
TORSDOF 9
