REMARK  Name = ZINC15016366
REMARK  4 active torsions:
REMARK  status: ('A' for Active; 'I' for Inactive)
REMARK    1  A    between atoms: C_1  and  N_2
REMARK    2  A    between atoms: N_15  and  N_16
REMARK    3  A    between atoms: C_17  and  C_18
REMARK    4  A    between atoms: C_23  and  O_24
REMARK                            x       y       z     vdW  Elec       q    Type
REMARK                         _______ _______ _______ _____ _____    ______ ____
ROOT
ATOM      1  C   UNL     1      -3.710   3.689   0.055  0.00  0.00    +0.151 C 
ATOM      2  N   UNL     1      -2.289   4.045   0.043  0.00  0.00    -0.326 N 
ATOM      3  C   UNL     1      -1.246   3.134   0.030  0.00  0.00    +0.053 A 
ATOM      4  C   UNL     1      -1.219   1.743   0.017  0.00  0.00    +0.026 A 
ATOM      5  C   UNL     1      -0.013   1.076   0.008  0.00  0.00    +0.002 A 
ATOM      6  C   UNL     1       1.182   1.780   0.000  0.00  0.00    +0.001 A 
ATOM      7  C   UNL     1       1.176   3.158   0.007  0.00  0.00    +0.012 A 
ATOM      8  C   UNL     1      -0.036   3.845   0.022  0.00  0.00    +0.029 A 
ATOM      9  C   UNL     1      -0.394   5.273   0.032  0.00  0.00    +0.138 A 
ATOM     10  C   UNL     1      -1.803   5.329   0.045  0.00  0.00    +0.165 A 
ATOM     11  N   UNL     1      -2.388   6.523   0.055  0.00  0.00    -0.192 NA
ATOM     12  C   UNL     1      -1.634   7.614   0.053  0.00  0.00    +0.256 A 
ATOM     13  N   UNL     1      -0.307   7.537   0.041  0.00  0.00    -0.111 NA
ATOM     14  N   UNL     1       0.302   6.401   0.030  0.00  0.00    -0.142 NA
ATOM     15  N   UNL     1      -2.241   8.858   0.064  0.00  0.00    -0.204 N 
ATOM     16  H   UNL     1      -3.209   8.926   0.073  0.00  0.00    +0.177 HD
ENDROOT
BRANCH  15  17
ATOM     17  N   UNL     1      -1.458  10.020   0.061  0.00  0.00    -0.187 NA
ATOM     18  C   UNL     1      -2.027  11.187   0.071  0.00  0.00    +0.142 C 
BRANCH  18  19
ATOM     19  C   UNL     1      -1.203  12.409   0.069  0.00  0.00    +0.038 A 
ATOM     20  C   UNL     1      -1.812  13.666   0.080  0.00  0.00    +0.033 A 
ATOM     21  C   UNL     1      -1.035  14.807   0.078  0.00  0.00    +0.043 A 
ATOM     22  C   UNL     1       0.347  14.710   0.065  0.00  0.00    +0.039 A 
ATOM     23  C   UNL     1       0.961  13.470   0.055  0.00  0.00    +0.061 A 
ATOM     24  C   UNL     1       0.195  12.316   0.062  0.00  0.00    +0.139 A 
ATOM     25 BR   UNL     1       2.848  13.351   0.036  0.00  0.00    -0.046 Br
ATOM     26 CL   UNL     1      -1.792  16.369   0.092  0.00  0.00    -0.083 Cl
BRANCH  24  27
ATOM     27  O   UNL     1       0.797  11.098   0.057  0.00  0.00    -0.505 OA
ATOM     28  H   UNL     1       0.967  10.746  -0.828  0.00  0.00    +0.292 HD
ENDBRANCH  24  27
ENDBRANCH  18  19
ENDBRANCH  15  17
TORSDOF 3
