REMARK  Name = ZINC04294131
REMARK  5 active torsions:
REMARK  status: ('A' for Active; 'I' for Inactive)
REMARK    1  A    between atoms: C_1  and  C_2
REMARK    2  A    between atoms: C_3  and  C_26
REMARK    3  A    between atoms: C_4  and  C_17
REMARK    4  A    between atoms: C_10  and  C_12
REMARK    5  A    between atoms: C_21  and  N_23
REMARK                            x       y       z     vdW  Elec       q    Type
REMARK                         _______ _______ _______ _____ _____    ______ ____
ROOT
ATOM      1  C   UNL     1       0.457   1.363  -0.001  0.00  0.00    +0.064 C 
ATOM      2  C   UNL     1       0.265  -0.131   0.025  0.00  0.00    +0.026 C 
ATOM      3  C   UNL     1      -1.005  -0.637   0.005  0.00  0.00    +0.059 C 
ATOM      4  C   UNL     1      -1.151  -2.148   0.032  0.00  0.00    +0.164 C 
ATOM      5  N   UNL     1       0.099  -2.917   0.077  0.00  0.00    -0.209 N 
ATOM      6  C   UNL     1       1.296  -2.240   0.091  0.00  0.00    +0.215 C 
ATOM      7  N   UNL     1       1.331  -0.914   0.061  0.00  0.00    -0.330 N 
ATOM      8  N   UNL     1       2.276  -3.152   0.133  0.00  0.00    -0.197 NA
ATOM      9  C   UNL     1       1.767  -4.374   0.145  0.00  0.00    +0.153 C 
ATOM     10  N   UNL     1       0.396  -4.282   0.111  0.00  0.00    -0.244 N 
ATOM     11  H   UNL     1       2.202  -0.487   0.069  0.00  0.00    +0.168 HD
ATOM     12  H   UNL     1      -0.237  -5.016   0.112  0.00  0.00    +0.172 HD
ENDROOT
BRANCH   4  13
ATOM     13  C   UNL     1      -1.970  -2.520   1.242  0.00  0.00    -0.019 A 
ATOM     14  C   UNL     1      -1.437  -2.373   2.509  0.00  0.00    +0.006 A 
ATOM     15  C   UNL     1      -2.187  -2.713   3.618  0.00  0.00    +0.003 A 
ATOM     16  C   UNL     1      -3.471  -3.202   3.461  0.00  0.00    +0.033 A 
ATOM     17  C   UNL     1      -4.004  -3.348   2.194  0.00  0.00    +0.127 A 
ATOM     18  C   UNL     1      -3.255  -3.003   1.084  0.00  0.00    +0.038 A 
BRANCH  17  19
ATOM     19  N   UNL     1      -5.379  -3.872   2.025  0.00  0.00    +0.056 N 
ATOM     20  O   UNL     1      -6.035  -4.170   2.995  0.00  0.00    -0.126 OA
ATOM     21  O   UNL     1      -5.845  -4.000   0.917  0.00  0.00    -0.126 OA
ENDBRANCH  17  19
ENDBRANCH   4  13
BRANCH   9  22
ATOM     22  C   UNL     1       2.536  -5.617   0.188  0.00  0.00    +0.053 A 
ATOM     23  C   UNL     1       3.913  -5.793   0.230  0.00  0.00    +0.019 A 
ATOM     24  C   UNL     1       4.346  -7.096   0.265  0.00  0.00    +0.008 A 
ATOM     25  C   UNL     1       3.430  -8.096   0.256  0.00  0.00    +0.046 A 
ATOM     26  S   UNL     1       1.951  -7.301   0.208  0.00  0.00    -0.094 S 
ENDBRANCH   9  22
BRANCH   3  27
ATOM     27  C   UNL     1      -2.129   0.207  -0.037  0.00  0.00    +0.241 C 
ATOM     28  O   UNL     1      -1.989   1.414   0.058  0.00  0.00    -0.271 OA
ATOM     29  N   UNL     1      -3.362  -0.319  -0.183  0.00  0.00    -0.325 N 
ATOM     30  H   UNL     1      -3.481  -1.282  -0.190  0.00  0.00    +0.145 HD
ATOM     31  H   UNL     1      -4.130   0.265  -0.282  0.00  0.00    +0.145 HD
ENDBRANCH   3  27
TORSDOF 4
