REMARK  Name = ZINC64885246
REMARK  10 active torsions:
REMARK  status: ('A' for Active; 'I' for Inactive)
REMARK    1  A    between atoms: C_1  and  C_2
REMARK    2  A    between atoms: C_5  and  C_8
REMARK    3  A    between atoms: C_8  and  C_10
REMARK    4  A    between atoms: C_10  and  C_11
REMARK    5  A    between atoms: C_11  and  C_12
REMARK    6  A    between atoms: N_14  and  N_15
REMARK    7  A    between atoms: N_18  and  C_19
REMARK    8  A    between atoms: C_19  and  C_20
REMARK    9  A    between atoms: C_20  and  C_21
REMARK   10  A    between atoms: C_21  and  N_22
REMARK                            x       y       z     vdW  Elec       q    Type
REMARK                         _______ _______ _______ _____ _____    ______ ____
ROOT
ATOM      1  C   UNL     1       0.109  -7.269   2.293  0.00  0.00    +0.230 C 
ATOM      2  O   UNL     1       0.107  -6.668   3.346  0.00  0.00    -0.274 OA
ATOM      3  N   UNL     1       0.127  -8.617   2.285  0.00  0.00    -0.233 N 
ATOM      4  H   UNL     1       0.128  -9.097   1.443  0.00  0.00    +0.173 HD
ENDROOT
BRANCH   3   5
ATOM      5  N   UNL     1       0.142  -9.324   3.495  0.00  0.00    -0.218 N 
ATOM      6  C   UNL     1       0.159 -10.671   3.487  0.00  0.00    +0.316 C 
ATOM      7  O   UNL     1       0.172 -11.285   4.537  0.00  0.00    -0.251 OA
ATOM      8  N   UNL     1       0.162 -11.339   2.316  0.00  0.00    -0.298 N 
ATOM      9  H   UNL     1       0.140  -8.843   4.337  0.00  0.00    +0.174 HD
ATOM     10  H   UNL     1       0.151 -10.849   1.479  0.00  0.00    +0.150 HD
BRANCH   8  11
ATOM     11  C   UNL     1       0.181 -12.804   2.308  0.00  0.00    +0.107 C 
BRANCH  11  12
ATOM     12  C   UNL     1       0.180 -13.306   0.863  0.00  0.00    +0.040 C 
BRANCH  12  13
ATOM     13  C   UNL     1       0.200 -14.836   0.855  0.00  0.00    +0.124 C 
BRANCH  13  14
ATOM     14  N   UNL     1       0.199 -15.316  -0.529  0.00  0.00    -0.338 N 
ATOM     15  C   UNL     1      -0.903 -15.591  -1.293  0.00  0.00    +0.104 A 
ATOM     16  C   UNL     1      -0.453 -16.004  -2.493  0.00  0.00    +0.101 A 
ATOM     17  N   UNL     1       0.888 -15.981  -2.463  0.00  0.00    -0.352 N 
ATOM     18  C   UNL     1       1.285 -15.565  -1.292  0.00  0.00    +0.173 A 
ATOM     19  H   UNL     1       1.470 -16.230  -3.198  0.00  0.00    +0.166 HD
ENDBRANCH  13  14
ENDBRANCH  12  13
ENDBRANCH  11  12
ENDBRANCH   8  11
ENDBRANCH   3   5
BRANCH   1  20
ATOM     20  C   UNL     1       0.093  -6.508   0.992  0.00  0.00    +0.105 C 
BRANCH  20  21
ATOM     21  C   UNL     1       0.075  -5.006   1.280  0.00  0.00    +0.089 C 
BRANCH  21  22
ATOM     22  C   UNL     1       0.058  -4.245  -0.021  0.00  0.00    +0.164 C 
ATOM     23  O   UNL     1       0.060  -4.846  -1.075  0.00  0.00    -0.292 OA
BRANCH  22  28
ATOM     24  C   UNL     1      -0.018   1.503   0.010  0.00  0.00    +0.044 C 
ATOM     25  C   UNL     1       0.002  -0.004   0.002  0.00  0.00    -0.050 A 
ATOM     26  C   UNL     1       0.006  -0.686  -1.202  0.00  0.00    +0.004 A 
ATOM     27  C   UNL     1       0.024  -2.064  -1.218  0.00  0.00    +0.011 A 
ATOM     28  C   UNL     1       0.039  -2.774  -0.013  0.00  0.00    +0.017 A 
ATOM     29  C   UNL     1       0.036  -2.078   1.200  0.00  0.00    +0.011 A 
ATOM     30  C   UNL     1       0.023  -0.699   1.199  0.00  0.00    +0.004 A 
ENDBRANCH  22  28
ENDBRANCH  21  22
ENDBRANCH  20  21
ENDBRANCH   1  20
TORSDOF 9
