REMARK  Name = ZINC33886932
REMARK  5 active torsions:
REMARK  status: ('A' for Active; 'I' for Inactive)
REMARK    1  A    between atoms: C_1  and  N_2
REMARK    2  A    between atoms: N_2  and  C_3
REMARK    3  A    between atoms: C_3  and  C_4
REMARK    4  A    between atoms: C_6  and  C_9
REMARK    5  A    between atoms: N_11  and  C_12
REMARK                            x       y       z     vdW  Elec       q    Type
REMARK                         _______ _______ _______ _____ _____    ______ ____
ROOT
ATOM      1  C   UNL     1      -1.305  -5.264   1.530  0.00  0.00    +0.266 C 
ATOM      2  O   UNL     1      -1.293  -6.378   1.042  0.00  0.00    -0.268 OA
ATOM      3  N   UNL     1      -1.300  -5.115   2.870  0.00  0.00    -0.299 N 
ATOM      4  H   UNL     1      -1.310  -4.227   3.259  0.00  0.00    +0.150 HD
ENDROOT
BRANCH   3   5
ATOM      5  C   UNL     1      -1.280  -6.295   3.738  0.00  0.00    +0.135 C 
ATOM      6  C   UNL     1      -2.689  -6.756   4.021  0.00  0.00    -0.015 A 
ATOM      7  C   UNL     1      -3.702  -7.196   3.196  0.00  0.00    +0.006 A 
ATOM      8  C   UNL     1      -4.923  -7.564   3.734  0.00  0.00    +0.000 A 
ATOM      9  C   UNL     1      -5.129  -7.492   5.100  0.00  0.00    +0.001 A 
ATOM     10  C   UNL     1      -4.120  -7.053   5.933  0.00  0.00    +0.009 A 
ATOM     11  C   UNL     1      -2.886  -6.680   5.397  0.00  0.00    -0.012 A 
ATOM     12  C   UNL     1      -1.649  -6.181   6.047  0.00  0.00    -0.012 A 
ATOM     13  C   UNL     1      -0.679  -5.945   5.077  0.00  0.00    -0.015 A 
ATOM     14  C   UNL     1       0.565  -5.474   5.438  0.00  0.00    +0.006 A 
ATOM     15  C   UNL     1       0.855  -5.233   6.769  0.00  0.00    +0.000 A 
ATOM     16  C   UNL     1      -0.102  -5.464   7.740  0.00  0.00    +0.001 A 
ATOM     17  C   UNL     1      -1.350  -5.936   7.388  0.00  0.00    +0.009 A 
ENDBRANCH   3   5
BRANCH   1  20
ATOM     18  C   UNL     1      -1.356  -2.019   0.004  0.00  0.00    +0.179 A 
ATOM     19  N   UNL     1      -1.341  -2.777   1.059  0.00  0.00    -0.210 NA
ATOM     20  C   UNL     1      -1.325  -4.077   0.657  0.00  0.00    +0.163 A 
ATOM     21  C   UNL     1      -1.332  -4.074  -0.704  0.00  0.00    +0.230 A 
ATOM     22  O   UNL     1      -1.356  -2.789  -1.093  0.00  0.00    -0.449 OA
BRANCH  18  23
ATOM     23  C   UNL     1      -1.376  -0.512   0.012  0.00  0.00    +0.015 C 
BRANCH  23  25
ATOM     24  C   UNL     1      -0.018   1.465   0.010  0.00  0.00    -0.100 C 
ATOM     25  N   UNL     1       0.002  -0.004   0.002  0.00  0.00    +0.383 N 
ATOM     26  H   UNL     1       0.474  -0.330  -0.828  0.00  0.00    -0.086 HD
ATOM     27  H   UNL     1       0.490  -0.338   0.820  0.00  0.00    -0.086 HD
ENDBRANCH  23  25
ENDBRANCH  18  23
ENDBRANCH   1  20
TORSDOF 4
