REMARK  Name = ZINC63271262
REMARK  3 active torsions:
REMARK  status: ('A' for Active; 'I' for Inactive)
REMARK    1  A    between atoms: N_17  and  C_18
REMARK    2  A    between atoms: C_18  and  C_19
REMARK    3  A    between atoms: C_24  and  C_27
REMARK                            x       y       z     vdW  Elec       q    Type
REMARK                         _______ _______ _______ _____ _____    ______ ____
ROOT
ATOM      1  C   UNL     1      -0.019   1.345   0.015  0.00  0.00    +0.001 A 
ATOM      2  C   UNL     1       1.162   2.099   0.011  0.00  0.00    +0.002 A 
ATOM      3  C   UNL     1       2.387   1.532   0.000  0.00  0.00    +0.026 A 
ATOM      4  C   UNL     1       2.526   0.118  -0.008  0.00  0.00    +0.043 A 
ATOM      5  N   UNL     1       3.589  -0.655  -0.039  0.00  0.00    -0.376 N 
ATOM      6  C   UNL     1       3.153  -2.047   0.045  0.00  0.00    +0.124 C 
ATOM      7  C   UNL     1       3.651  -2.874  -1.145  0.00  0.00    +0.138 C 
ATOM      8  N   UNL     1       2.856  -4.111  -1.199  0.00  0.00    -0.283 N 
ATOM      9  C   UNL     1       1.399  -4.056  -1.362  0.00  0.00    +0.114 C 
ATOM     10  C   UNL     1       0.789  -3.239  -0.209  0.00  0.00    +0.052 C 
ATOM     11  C   UNL     1       1.636  -2.000  -0.029  0.00  0.00    -0.036 C 
ATOM     12  C   UNL     1       1.291  -0.704  -0.011  0.00  0.00    -0.001 A 
ATOM     13  C   UNL     1      -0.001  -0.006   0.005  0.00  0.00    +0.010 A 
ATOM     14  C   UNL     1       3.472  -5.306  -1.099  0.00  0.00    +0.303 C 
ATOM     15  O   UNL     1       4.686  -5.362  -1.058  0.00  0.00    -0.253 OA
ATOM     16  N   UNL     1       2.743  -6.438  -1.042  0.00  0.00    -0.291 N 
ATOM     17  H   UNL     1       1.779  -6.399  -1.148  0.00  0.00    +0.151 HD
ATOM     18  H   UNL     1       4.508  -0.352  -0.106  0.00  0.00    +0.160 HD
ENDROOT
BRANCH  16  19
ATOM     19  C   UNL     1       3.405  -7.726  -0.822  0.00  0.00    +0.201 C 
BRANCH  19  20
ATOM     20  C   UNL     1       2.373  -8.824  -0.801  0.00  0.00    +0.233 C 
ATOM     21  O   UNL     1       1.200  -8.557  -0.956  0.00  0.00    -0.274 OA
ATOM     22  N   UNL     1       2.753 -10.103  -0.612  0.00  0.00    -0.300 N 
ATOM     23  C   UNL     1       4.170 -10.441  -0.417  0.00  0.00    +0.108 C 
ATOM     24  C   UNL     1       4.310 -11.253   0.875  0.00  0.00    +0.032 C 
ATOM     25  C   UNL     1       3.377 -12.464   0.815  0.00  0.00    +0.078 C 
ATOM     26  C   UNL     1       1.927 -11.988   0.698  0.00  0.00    +0.032 C 
ATOM     27  C   UNL     1       1.759 -11.184  -0.589  0.00  0.00    +0.108 C 
BRANCH  25  28
ATOM     28  C   UNL     1       3.537 -13.284   2.069  0.00  0.00    +0.214 C 
ATOM     29  O   UNL     1       4.320 -12.933   2.927  0.00  0.00    -0.276 OA
ATOM     30  N   UNL     1       2.810 -14.406   2.239  0.00  0.00    -0.329 N 
ATOM     31  H   UNL     1       2.184 -14.686   1.553  0.00  0.00    +0.145 HD
ATOM     32  H   UNL     1       2.913 -14.933   3.046  0.00  0.00    +0.145 HD
ENDBRANCH  25  28
ENDBRANCH  19  20
ENDBRANCH  16  19
TORSDOF 3
