REMARK  Name = ZINC61640011
REMARK  5 active torsions:
REMARK  status: ('A' for Active; 'I' for Inactive)
REMARK    1  A    between atoms: C_8  and  S_10
REMARK    2  A    between atoms: S_10  and  C_11
REMARK    3  A    between atoms: C_11  and  C_12
REMARK    4  A    between atoms: C_16  and  N_18
REMARK    5  A    between atoms: N_18  and  N_19
REMARK                            x       y       z     vdW  Elec       q    Type
REMARK                         _______ _______ _______ _____ _____    ______ ____
ROOT
ATOM      1  C   UNL     1       5.389  -5.692  -0.080  0.00  0.00    +0.072 A 
ATOM      2  C   UNL     1       5.629  -6.341   1.117  0.00  0.00    +0.063 A 
ATOM      3  C   UNL     1       6.105  -7.646   1.099  0.00  0.00    +0.025 A 
ATOM      4  C   UNL     1       6.322  -8.252  -0.126  0.00  0.00    +0.046 A 
ATOM      5  C   UNL     1       6.059  -7.539  -1.290  0.00  0.00    +0.132 A 
ATOM      6  N   UNL     1       5.601  -6.298  -1.232  0.00  0.00    -0.234 NA
ATOM      7 CL   UNL     1       5.340  -5.533   2.626  0.00  0.00    -0.082 Cl
ENDROOT
BRANCH   5   8
ATOM      8  N   UNL     1       6.274  -8.137  -2.528  0.00  0.00    -0.268 N 
ATOM      9  H   UNL     1       6.606  -9.047  -2.575  0.00  0.00    +0.167 HD
BRANCH   8  10
ATOM     10  N   UNL     1       6.017  -7.442  -3.675  0.00  0.00    -0.255 NA
ATOM     11  H   UNL     1       6.533  -6.575  -3.696  0.00  0.00    +0.140 HD
ATOM     12  H   UNL     1       6.220  -8.002  -4.490  0.00  0.00    +0.140 HD
ENDBRANCH   8  10
ENDBRANCH   5   8
BRANCH   1  13
ATOM     13  C   UNL     1       4.873  -4.276  -0.067  0.00  0.00    +0.133 C 
BRANCH  13  14
ATOM     14  S   UNL     1       3.059  -4.293  -0.050  0.00  0.00    -0.093 S 
BRANCH  14  22
ATOM     15  C   UNL     1      -0.017   1.366   0.010  0.00  0.00    +0.002 A 
ATOM     16  C   UNL     1       1.156   2.107   0.002  0.00  0.00    +0.001 A 
ATOM     17  C   UNL     1       2.373   1.449  -0.013  0.00  0.00    +0.017 A 
ATOM     18  C   UNL     1       2.401   0.077  -0.021  0.00  0.00    +0.040 A 
ATOM     19  C   UNL     1       1.227  -0.710  -0.013  0.00  0.00    +0.079 A 
ATOM     20  C   UNL     1       0.002  -0.004   0.002  0.00  0.00    +0.029 A 
ATOM     21  N   UNL     1       1.419  -2.047  -0.023  0.00  0.00    -0.233 NA
ATOM     22  C   UNL     1       2.617  -2.588  -0.037  0.00  0.00    +0.136 A 
ATOM     23  S   UNL     1       3.683  -1.153  -0.039  0.00  0.00    -0.061 S 
ENDBRANCH  14  22
ENDBRANCH  13  14
ENDBRANCH   1  13
TORSDOF 5
