REMARK  Name = ZINC67605864
REMARK  7 active torsions:
REMARK  status: ('A' for Active; 'I' for Inactive)
REMARK    1  A    between atoms: C_1  and  C_2
REMARK    2  A    between atoms: C_2  and  N_3
REMARK    3  A    between atoms: N_3  and  C_4
REMARK    4  A    between atoms: C_4  and  C_5
REMARK    5  A    between atoms: C_6  and  C_8
REMARK    6  A    between atoms: C_11  and  N_24
REMARK    7  A    between atoms: C_15  and  C_17
REMARK                            x       y       z     vdW  Elec       q    Type
REMARK                         _______ _______ _______ _____ _____    ______ ____
ROOT
ATOM      1  C   UNL     1      -3.407  -1.272   1.195  0.00  0.00    +0.161 C 
ATOM      2  C   UNL     1      -4.397  -0.111   0.967  0.00  0.00    +0.017 C 
ATOM      3  C   UNL     1      -5.573  -0.465   1.915  0.00  0.00    -0.055 C 
ATOM      4  C   UNL     1      -4.826  -1.099   3.114  0.00  0.00    +0.093 C 
ATOM      5  N   UNL     1      -3.714  -1.859   2.508  0.00  0.00    -0.286 N 
ATOM      6  C   UNL     1      -3.084  -2.914   3.063  0.00  0.00    +0.267 C 
ATOM      7  O   UNL     1      -2.178  -3.463   2.467  0.00  0.00    -0.268 OA
ENDROOT
BRANCH   6   8
ATOM      8  C   UNL     1      -3.496  -3.402   4.393  0.00  0.00    +0.142 A 
ATOM      9  C   UNL     1      -2.844  -4.479   4.959  0.00  0.00    +0.119 A 
ATOM     10  N   UNL     1      -3.216  -4.929   6.175  0.00  0.00    -0.326 N 
ATOM     11  C   UNL     1      -4.227  -4.317   6.826  0.00  0.00    +0.267 A 
ATOM     12  C   UNL     1      -4.879  -3.213   6.221  0.00  0.00    +0.181 A 
ATOM     13  N   UNL     1      -4.497  -2.792   5.045  0.00  0.00    -0.244 NA
ATOM     14  O   UNL     1      -4.576  -4.710   7.925  0.00  0.00    -0.266 OA
ATOM     15  H   UNL     1      -2.761  -5.686   6.577  0.00  0.00    +0.168 HD
ENDBRANCH   6   8
BRANCH   3  16
ATOM     16  N   UNL     1      -6.300   0.744   2.325  0.00  0.00    +0.381 N 
ATOM     17  H   UNL     1      -6.671   1.207   1.509  0.00  0.00    -0.090 HD
ATOM     18  H   UNL     1      -7.059   0.487   2.940  0.00  0.00    -0.090 HD
ATOM     19  H   UNL     1      -5.671   1.367   2.809  0.00  0.00    -0.090 HD
ENDBRANCH   3  16
BRANCH   1  21
ATOM     20  N   UNL     1      -1.372  -0.511   0.012  0.00  0.00    -0.300 N 
ATOM     21  C   UNL     1      -1.993  -0.751   1.184  0.00  0.00    +0.236 C 
ATOM     22  O   UNL     1      -1.415  -0.546   2.230  0.00  0.00    -0.274 OA
BRANCH  20  24
ATOM     23  C   UNL     1      -0.019   1.526   0.010  0.00  0.00    +0.024 C 
ATOM     24  C   UNL     1       0.002  -0.004   0.002  0.00  0.00    +0.104 C 
ENDBRANCH  20  24
BRANCH  20  25
ATOM     25  C   UNL     1      -2.072  -0.758  -1.251  0.00  0.00    +0.104 C 
ATOM     26  C   UNL     1      -1.816  -2.197  -1.703  0.00  0.00    +0.024 C 
ENDBRANCH  20  25
ENDBRANCH   1  21
TORSDOF 5
