REMARK  Name = ZINC53858368
REMARK  7 active torsions:
REMARK  status: ('A' for Active; 'I' for Inactive)
REMARK    1  A    between atoms: C_1  and  C_2
REMARK    2  A    between atoms: C_2  and  N_3
REMARK    3  A    between atoms: N_3  and  C_4
REMARK    4  A    between atoms: C_10  and  C_12
REMARK    5  A    between atoms: C_12  and  N_13
REMARK    6  A    between atoms: N_13  and  C_14
REMARK    7  A    between atoms: N_13  and  C_15
REMARK                            x       y       z     vdW  Elec       q    Type
REMARK                         _______ _______ _______ _____ _____    ______ ____
ROOT
ATOM      1  C   UNL     1       0.205  -2.759  -1.370  0.00  0.00    -0.070 C 
ATOM      2  C   UNL     1       0.936  -3.389  -0.183  0.00  0.00    -0.016 C 
ATOM      3  C   UNL     1       2.067  -2.464   0.269  0.00  0.00    -0.002 C 
ATOM      4  C   UNL     1       3.051  -2.259  -0.885  0.00  0.00    +0.000 C 
ATOM      5  C   UNL     1       2.320  -1.628  -2.072  0.00  0.00    -0.000 C 
ATOM      6  C   UNL     1       1.189  -2.554  -2.524  0.00  0.00    -0.042 C 
ENDROOT
BRANCH   1   7
ATOM      7  N   UNL     1      -0.355  -1.462  -0.968  0.00  0.00    +0.381 N 
ATOM      8  H   UNL     1      -0.765  -1.009  -1.770  0.00  0.00    -0.086 HD
ATOM      9  H   UNL     1       0.380  -0.881  -0.592  0.00  0.00    -0.086 HD
BRANCH   7  11
ATOM     10  C   UNL     1      -1.969  -0.320   0.477  0.00  0.00    -0.017 C 
ATOM     11  C   UNL     1      -1.386  -1.671   0.058  0.00  0.00    -0.086 C 
ENDBRANCH   7  11
ENDBRANCH   1   7
BRANCH   6  12
ATOM     12  C   UNL     1       0.458  -1.923  -3.711  0.00  0.00    -0.077 C 
BRANCH  12  13
ATOM     13  N   UNL     1       1.048  -2.411  -4.965  0.00  0.00    +0.380 N 
ATOM     14  C   UNL     1       2.439  -1.949  -5.064  0.00  0.00    -0.096 C 
ATOM     15  H   UNL     1       1.027  -3.420  -4.976  0.00  0.00    -0.082 HD
BRANCH  13  16
ATOM     16  C   UNL     1       0.278  -1.892  -6.103  0.00  0.00    -0.069 C 
ATOM     17  C   UNL     1      -1.161  -2.441  -6.024  0.00  0.00    -0.015 C 
ATOM     18  C   UNL     1      -2.058  -1.550  -6.840  0.00  0.00    -0.002 C 
ATOM     19  C   UNL     1      -2.247  -2.063  -8.280  0.00  0.00    -0.000 C 
ATOM     20  C   UNL     1      -0.939  -2.585  -8.905  0.00  0.00    -0.000 C 
ATOM     21  C   UNL     1       0.241  -1.708  -8.588  0.00  0.00    -0.002 C 
ATOM     22  C   UNL     1       0.949  -2.270  -7.338  0.00  0.00    -0.015 C 
ENDBRANCH  13  16
ENDBRANCH  12  13
ENDBRANCH   6  12
TORSDOF 5
