REMARK  Name = ZINC41514148
REMARK  9 active torsions:
REMARK  status: ('A' for Active; 'I' for Inactive)
REMARK    1  A    between atoms: C_4  and  O_29
REMARK    2  A    between atoms: C_5  and  C_7
REMARK    3  A    between atoms: C_14  and  O_28
REMARK    4  A    between atoms: C_15  and  C_18
REMARK    5  A    between atoms: C_18  and  N_19
REMARK    6  A    between atoms: N_22  and  C_25
REMARK    7  A    between atoms: C_25  and  C_26
REMARK    8  A    between atoms: C_26  and  O_27
REMARK    9  A    between atoms: O_29  and  C_30
REMARK                            x       y       z     vdW  Elec       q    Type
REMARK                         _______ _______ _______ _____ _____    ______ ____
ROOT
ATOM      1  C   UNL     1       1.377  -2.957   0.815  0.00  0.00    +0.061 C 
ATOM      2  C   UNL     1       0.181  -3.590   0.927  0.00  0.00    +0.176 C 
ATOM      3  C   UNL     1      -0.022  -5.019   1.208  0.00  0.00    +0.231 C 
ATOM      4  O   UNL     1       0.829  -5.872   1.388  0.00  0.00    -0.283 OA
ATOM      5  C   UNL     1      -1.487  -5.187   1.224  0.00  0.00    +0.068 A 
ATOM      6  C   UNL     1      -2.318  -6.288   1.433  0.00  0.00    +0.019 A 
ATOM      7  C   UNL     1      -3.675  -6.135   1.385  0.00  0.00    +0.046 A 
ATOM      8  C   UNL     1      -4.229  -4.883   1.130  0.00  0.00    +0.122 A 
ATOM      9  C   UNL     1      -3.416  -3.782   0.921  0.00  0.00    +0.020 A 
ATOM     10  C   UNL     1      -2.034  -3.920   0.966  0.00  0.00    +0.144 A 
ATOM     11  O   UNL     1      -1.040  -3.019   0.805  0.00  0.00    -0.451 OA
ENDROOT
BRANCH   1  16
ATOM     12  C   UNL     1       0.336   0.528  -0.086  0.00  0.00    +0.001 A 
ATOM     13  C   UNL     1       1.506   1.231   0.153  0.00  0.00    +0.004 A 
ATOM     14  C   UNL     1       2.635   0.577   0.607  0.00  0.00    +0.046 A 
ATOM     15  C   UNL     1       2.606  -0.791   0.827  0.00  0.00    +0.134 A 
ATOM     16  C   UNL     1       1.422  -1.508   0.587  0.00  0.00    +0.020 A 
ATOM     17  C   UNL     1       0.285  -0.832   0.127  0.00  0.00    +0.011 A 
BRANCH  15  18
ATOM     18  O   UNL     1       3.714  -1.434   1.273  0.00  0.00    -0.434 OA
BRANCH  18  19
ATOM     19  C   UNL     1       4.881  -0.638   1.495  0.00  0.00    +0.541 C 
ATOM     20  F   UNL     1       5.259  -0.022   0.297  0.00  0.00    -0.166 F 
ATOM     21  F   UNL     1       4.602   0.340   2.455  0.00  0.00    -0.166 F 
ENDBRANCH  18  19
ENDBRANCH  15  18
ENDBRANCH   1  16
BRANCH   8  22
ATOM     22  O   UNL     1      -5.579  -4.742   1.085  0.00  0.00    -0.506 OA
ATOM     23  H   UNL     1      -5.981  -4.529   1.938  0.00  0.00    +0.292 HD
ENDBRANCH   8  22
BRANCH   9  24
ATOM     24  C   UNL     1      -4.030  -2.433   0.645  0.00  0.00    -0.035 C 
BRANCH  24  25
ATOM     25  N   UNL     1      -4.246  -1.725   1.914  0.00  0.00    +0.384 N 
ATOM     26  C   UNL     1      -2.950  -1.442   2.544  0.00  0.00    -0.063 C 
ATOM     27  C   UNL     1      -3.176  -0.721   3.874  0.00  0.00    +0.066 C 
ATOM     28  N   UNL     1      -3.906   0.531   3.632  0.00  0.00    -0.304 NA
ATOM     29  C   UNL     1      -5.195   0.266   2.979  0.00  0.00    +0.066 C 
ATOM     30  C   UNL     1      -4.953  -0.464   1.655  0.00  0.00    -0.063 C 
ATOM     31  H   UNL     1      -4.801  -2.301   2.530  0.00  0.00    -0.081 HD
BRANCH  28  32
ATOM     32  C   UNL     1      -4.093   1.282   4.881  0.00  0.00    +0.112 C 
BRANCH  32  33
ATOM     33  C   UNL     1      -2.775   1.950   5.277  0.00  0.00    +0.171 C 
BRANCH  33  34
ATOM     34  O   UNL     1      -2.461   2.980   4.337  0.00  0.00    -0.394 OA
ATOM     35  H   UNL     1      -1.636   3.447   4.526  0.00  0.00    +0.209 HD
ENDBRANCH  33  34
ENDBRANCH  32  33
ENDBRANCH  28  32
ENDBRANCH  24  25
ENDBRANCH   9  24
TORSDOF 9
