REMARK  Name = ZINC18322753
REMARK  5 active torsions:
REMARK  status: ('A' for Active; 'I' for Inactive)
REMARK    1  A    between atoms: C_1  and  C_2
REMARK    2  A    between atoms: C_4  and  C_11
REMARK    3  A    between atoms: C_5  and  C_9
REMARK    4  A    between atoms: C_6  and  N_8
REMARK    5  A    between atoms: C_14  and  N_17
REMARK                            x       y       z     vdW  Elec       q    Type
REMARK                         _______ _______ _______ _____ _____    ______ ____
ROOT
ATOM      1  C   UNL     1       0.073   5.672   0.029  0.00  0.00    +0.065 C 
ATOM      2  C   UNL     1       0.027   4.165   0.023  0.00  0.00    +0.041 A 
ATOM      3  C   UNL     1      -1.196   3.526   0.031  0.00  0.00    +0.033 A 
ATOM      4  C   UNL     1      -1.240   2.131   0.019  0.00  0.00    +0.004 A 
ATOM      5  C   UNL     1      -0.017   1.428   0.010  0.00  0.00    +0.099 A 
ATOM      6  C   UNL     1       1.181   2.161   0.002  0.00  0.00    +0.135 A 
ATOM      7  N   UNL     1       1.157   3.485   0.009  0.00  0.00    -0.236 NA
ENDROOT
BRANCH   4   8
ATOM      8  C   UNL     1      -2.534   1.409   0.022  0.00  0.00    -0.016 A 
ATOM      9  C   UNL     1      -2.774   0.400  -0.910  0.00  0.00    +0.011 A 
ATOM     10  C   UNL     1      -3.979  -0.272  -0.899  0.00  0.00    +0.033 A 
ATOM     11  C   UNL     1      -4.952   0.061   0.026  0.00  0.00    +0.126 A 
ATOM     12  C   UNL     1      -4.722   1.065   0.950  0.00  0.00    +0.033 A 
ATOM     13  C   UNL     1      -3.518   1.741   0.952  0.00  0.00    +0.011 A 
BRANCH  11  14
ATOM     14  N   UNL     1      -6.245  -0.660   0.029  0.00  0.00    +0.056 N 
ATOM     15  O   UNL     1      -7.103  -0.368   0.842  0.00  0.00    -0.126 OA
ATOM     16  O   UNL     1      -6.451  -1.544  -0.783  0.00  0.00    -0.126 OA
ENDBRANCH  11  14
ENDBRANCH   4   8
BRANCH   6  17
ATOM     17  N   UNL     1       2.394   1.495  -0.012  0.00  0.00    -0.342 N 
ATOM     18  H   UNL     1       2.415   0.525  -0.017  0.00  0.00    +0.144 HD
ATOM     19  H   UNL     1       3.223   1.998  -0.018  0.00  0.00    +0.144 HD
ENDBRANCH   6  17
BRANCH   5  20
ATOM     20  C   UNL     1       0.002  -0.004   0.002  0.00  0.00    +0.103 C 
ATOM     21  N   UNL     1       0.018  -1.140  -0.004  0.00  0.00    -0.191 NA
ENDBRANCH   5  20
TORSDOF 4
