REMARK  Name = ZINC39679066
REMARK  9 active torsions:
REMARK  status: ('A' for Active; 'I' for Inactive)
REMARK    1  A    between atoms: C_1  and  N_2
REMARK    2  A    between atoms: N_2  and  C_3
REMARK    3  A    between atoms: N_2  and  C_4
REMARK    4  A    between atoms: C_4  and  C_5
REMARK    5  A    between atoms: C_5  and  C_6
REMARK    6  A    between atoms: C_6  and  C_7
REMARK    7  A    between atoms: C_7  and  N_8
REMARK    8  A    between atoms: C_9  and  C_11
REMARK    9  A    between atoms: C_22  and  C_24
REMARK                            x       y       z     vdW  Elec       q    Type
REMARK                         _______ _______ _______ _____ _____    ______ ____
ROOT
ATOM      1  C   UNL     1       1.734  -0.808   8.851  0.00  0.00    +0.100 C 
ATOM      2  C   UNL     1       1.186  -2.251   8.777  0.00  0.00    +0.121 C 
ATOM      3  N   UNL     1       0.980  -2.646  10.190  0.00  0.00    -0.300 N 
ATOM      4  C   UNL     1       0.446  -1.425  10.840  0.00  0.00    +0.115 C 
ATOM      5  C   UNL     1       1.246  -0.269  10.206  0.00  0.00    -0.004 C 
ATOM      6  C   UNL     1       0.344   0.944   9.998  0.00  0.00    -0.010 C 
ATOM      7  C   UNL     1      -0.082   1.497  11.360  0.00  0.00    -0.082 C 
ATOM      8  N   UNL     1       1.109   1.875  12.131  0.00  0.00    +0.379 N 
ATOM      9  C   UNL     1       1.925   0.685  12.406  0.00  0.00    -0.082 C 
ATOM     10  C   UNL     1       2.435   0.097  11.088  0.00  0.00    -0.010 C 
ATOM     11  C   UNL     1       1.222  -3.844  10.757  0.00  0.00    +0.219 C 
ATOM     12  O   UNL     1       1.738  -4.729  10.107  0.00  0.00    -0.275 OA
ATOM     13  H   UNL     1       1.654   2.539  11.602  0.00  0.00    -0.086 HD
ATOM     14  H   UNL     1       0.825   2.295  13.003  0.00  0.00    -0.086 HD
ENDROOT
BRANCH  11  15
ATOM     15  C   UNL     1       0.854  -4.085  12.199  0.00  0.00    +0.079 C 
ATOM     16  C   UNL     1       1.744  -5.190  12.781  0.00  0.00    +0.017 C 
ATOM     17  C   UNL     1       1.472  -5.288  14.284  0.00  0.00    +0.027 C 
ATOM     18  C   UNL     1      -0.005  -5.364  14.538  0.00  0.00    -0.031 C 
ATOM     19  C   UNL     1      -0.908  -5.034  13.672  0.00  0.00    -0.030 C 
ATOM     20  C   UNL     1      -0.606  -4.535  12.288  0.00  0.00    +0.039 C 
ENDBRANCH  11  15
BRANCH   1  22
ATOM     21  N   UNL     1       1.881   1.067   7.244  0.00  0.00    -0.315 N 
ATOM     22  C   UNL     1       1.177   0.022   7.723  0.00  0.00    +0.218 C 
ATOM     23  O   UNL     1       0.094  -0.249   7.248  0.00  0.00    -0.275 OA
ATOM     24  H   UNL     1       2.746   1.284   7.625  0.00  0.00    +0.149 HD
BRANCH  21  25
ATOM     25  C   UNL     1       1.339   1.875   6.149  0.00  0.00    +0.104 C 
BRANCH  25  26
ATOM     26  C   UNL     1       2.329   2.987   5.798  0.00  0.00    +0.017 C 
BRANCH  26  27
ATOM     27  C   UNL     1       1.763   3.831   4.653  0.00  0.00    -0.017 C 
BRANCH  27  28
ATOM     28  C   UNL     1       2.753   4.944   4.303  0.00  0.00    -0.080 C 
BRANCH  28  30
ATOM     29  C   UNL     1       0.995   6.443   3.658  0.00  0.00    -0.097 C 
ATOM     30  N   UNL     1       2.210   5.753   3.204  0.00  0.00    +0.376 N 
ATOM     31  C   UNL     1       3.209   6.746   2.787  0.00  0.00    -0.097 C 
ATOM     32  H   UNL     1       1.985   5.154   2.424  0.00  0.00    -0.083 HD
ENDBRANCH  28  30
ENDBRANCH  27  28
ENDBRANCH  26  27
ENDBRANCH  25  26
ENDBRANCH  21  25
ENDBRANCH   1  22
TORSDOF 7
