REMARK  Name = ZINC55084912
REMARK  9 active torsions:
REMARK  status: ('A' for Active; 'I' for Inactive)
REMARK    1  A    between atoms: C_1  and  C_2
REMARK    2  A    between atoms: C_2  and  C_3
REMARK    3  A    between atoms: C_3  and  C_5
REMARK    4  A    between atoms: C_3  and  N_6
REMARK    5  A    between atoms: N_9  and  C_12
REMARK    6  A    between atoms: C_15  and  N_22
REMARK    7  A    between atoms: C_16  and  C_18
REMARK    8  A    between atoms: C_18  and  O_20
REMARK    9  A    between atoms: O_20  and  C_21
REMARK                            x       y       z     vdW  Elec       q    Type
REMARK                         _______ _______ _______ _____ _____    ______ ____
ROOT
ATOM      1  C   UNL     1      -4.851   2.513  -2.824  0.00  0.00    +0.030 A 
ATOM      2  C   UNL     1      -4.771   3.898  -2.938  0.00  0.00    +0.025 A 
ATOM      3  C   UNL     1      -5.911   4.646  -3.146  0.00  0.00    +0.025 A 
ATOM      4  C   UNL     1      -7.148   4.022  -3.244  0.00  0.00    +0.039 A 
ATOM      5  C   UNL     1      -7.235   2.626  -3.130  0.00  0.00    +0.081 A 
ATOM      6  C   UNL     1      -6.074   1.875  -2.925  0.00  0.00    +0.040 A 
ENDROOT
BRANCH   1  10
ATOM      7  N   UNL     1      -1.571   0.516  -1.280  0.00  0.00    +0.383 N 
ATOM      8  C   UNL     1      -2.933  -0.007  -1.116  0.00  0.00    -0.059 C 
ATOM      9  C   UNL     1      -3.756   0.313  -2.368  0.00  0.00    +0.086 C 
ATOM     10  N   UNL     1      -3.688   1.762  -2.613  0.00  0.00    -0.333 N 
ATOM     11  C   UNL     1      -2.362   2.400  -2.630  0.00  0.00    +0.086 C 
ATOM     12  C   UNL     1      -1.605   1.981  -1.366  0.00  0.00    -0.059 C 
ATOM     13  H   UNL     1      -1.169   0.140  -2.125  0.00  0.00    -0.081 HD
BRANCH   7  14
ATOM     14  C   UNL     1      -0.752   0.113  -0.128  0.00  0.00    -0.072 C 
ATOM     15  C   UNL     1      -1.437   0.561   1.165  0.00  0.00    -0.013 C 
BRANCH  14  17
ATOM     16  C   UNL     1       0.202  -1.844  -1.353  0.00  0.00    +0.002 C 
ATOM     17  C   UNL     1      -0.595  -1.409  -0.121  0.00  0.00    -0.019 C 
ENDBRANCH  14  17
ENDBRANCH   7  14
ENDBRANCH   1  10
BRANCH   4  18
ATOM     18  N   UNL     1      -8.296   4.778  -3.453  0.00  0.00    -0.357 N 
ATOM     19  H   UNL     1      -8.226   5.731  -3.623  0.00  0.00    +0.142 HD
ATOM     20  H   UNL     1      -9.168   4.353  -3.429  0.00  0.00    +0.142 HD
ENDBRANCH   4  18
BRANCH   5  21
ATOM     21  C   UNL     1      -8.543   1.955  -3.232  0.00  0.00    +0.341 C 
ATOM     22  O   UNL     1      -9.533   2.596  -3.525  0.00  0.00    -0.245 OA
BRANCH  21  23
ATOM     23  O   UNL     1      -8.640   0.631  -3.001  0.00  0.00    -0.464 OA
ATOM     24  C   UNL     1      -9.939   0.046  -3.118  0.00  0.00    +0.280 C 
ENDBRANCH  21  23
ENDBRANCH   5  21
TORSDOF 6
