REMARK  Name = ZINC35910728
REMARK  12 active torsions:
REMARK  status: ('A' for Active; 'I' for Inactive)
REMARK    1  A    between atoms: C_1  and  C_2
REMARK    2  A    between atoms: C_2  and  O_3
REMARK    3  A    between atoms: O_3  and  C_4
REMARK    4  A    between atoms: C_4  and  C_6
REMARK    5  A    between atoms: C_10  and  C_11
REMARK    6  A    between atoms: C_14  and  O_19
REMARK    7  A    between atoms: C_15  and  O_17
REMARK    8  A    between atoms: O_17  and  C_18
REMARK    9  A    between atoms: C_29  and  C_31
REMARK   10  A    between atoms: C_34  and  O_39
REMARK   11  A    between atoms: C_35  and  O_37
REMARK   12  A    between atoms: O_37  and  C_38
REMARK                            x       y       z     vdW  Elec       q    Type
REMARK                         _______ _______ _______ _____ _____    ______ ____
ROOT
ATOM      1  C   UNL     1      -2.651  -2.834   1.700  0.00  0.00    +0.110 C 
ATOM      2  C   UNL     1      -2.909  -3.990   1.004  0.00  0.00    +0.224 A 
ATOM      3  N   UNL     1      -4.140  -4.572   1.033  0.00  0.00    -0.242 N 
ATOM      4  C   UNL     1      -4.082  -5.726   0.231  0.00  0.00    +0.138 A 
ATOM      5  C   UNL     1      -5.087  -6.604  -0.020  0.00  0.00    +0.041 C 
ATOM      6  C   UNL     1      -2.707  -5.780  -0.279  0.00  0.00    +0.363 A 
ATOM      7  O   UNL     1      -2.237  -6.627  -1.015  0.00  0.00    -0.243 OA
ATOM      8  O   UNL     1      -2.067  -4.710   0.227  0.00  0.00    -0.403 OA
ATOM      9  C   UNL     1      -5.217  -4.053   1.754  0.00  0.00    +0.235 A 
ATOM     10  C   UNL     1      -5.104  -2.925   2.480  0.00  0.00    +0.119 A 
ATOM     11  N   UNL     1      -6.292  -2.675   3.057  0.00  0.00    -0.197 NA
ATOM     12  C   UNL     1      -7.130  -3.619   2.705  0.00  0.00    +0.287 A 
ATOM     13  O   UNL     1      -6.492  -4.485   1.899  0.00  0.00    -0.408 OA
ATOM     14  N   UNL     1      -8.454  -3.710   3.099  0.00  0.00    -0.313 N 
ATOM     15  C   UNL     1      -3.770  -2.217   2.511  0.00  0.00    +0.115 C 
ATOM     16  H   UNL     1      -8.858  -2.993   3.612  0.00  0.00    +0.147 HD
ATOM     17  H   UNL     1      -8.978  -4.491   2.861  0.00  0.00    +0.147 HD
ENDROOT
BRANCH   5  18
ATOM     18  C   UNL     1      -6.485  -6.175   0.109  0.00  0.00    -0.019 A 
ATOM     19  C   UNL     1      -6.907  -4.971  -0.469  0.00  0.00    +0.012 A 
ATOM     20  C   UNL     1      -8.220  -4.572  -0.346  0.00  0.00    +0.050 A 
ATOM     21  C   UNL     1      -9.127  -5.360   0.349  0.00  0.00    +0.158 A 
ATOM     22  C   UNL     1      -8.715  -6.560   0.928  0.00  0.00    +0.162 A 
ATOM     23  C   UNL     1      -7.402  -6.971   0.805  0.00  0.00    +0.057 A 
BRANCH  22  24
ATOM     24  O   UNL     1      -9.607  -7.328   1.609  0.00  0.00    -0.491 OA
ATOM     25  C   UNL     1      -9.117  -8.544   2.176  0.00  0.00    +0.277 C 
ENDBRANCH  22  24
BRANCH  21  26
ATOM     26  O   UNL     1     -10.420  -4.960   0.468  0.00  0.00    -0.503 OA
ATOM     27  H   UNL     1     -10.995  -5.273  -0.244  0.00  0.00    +0.292 HD
ENDBRANCH  21  26
ENDBRANCH   5  18
BRANCH  15  28
ATOM     28  C   UNL     1      -3.984  -0.811   2.014  0.00  0.00    -0.030 A 
ATOM     29  C   UNL     1      -4.342  -0.592   0.697  0.00  0.00    +0.008 A 
ATOM     30  C   UNL     1      -4.540   0.697   0.237  0.00  0.00    +0.049 A 
ATOM     31  C   UNL     1      -4.379   1.772   1.096  0.00  0.00    +0.158 A 
ATOM     32  C   UNL     1      -4.019   1.551   2.422  0.00  0.00    +0.162 A 
ATOM     33  C   UNL     1      -3.828   0.257   2.878  0.00  0.00    +0.054 A 
BRANCH  32  34
ATOM     34  O   UNL     1      -3.861   2.603   3.269  0.00  0.00    -0.491 OA
ATOM     35  C   UNL     1      -3.490   2.302   4.616  0.00  0.00    +0.277 C 
ENDBRANCH  32  34
BRANCH  31  36
ATOM     36  O   UNL     1      -4.573   3.040   0.644  0.00  0.00    -0.503 OA
ATOM     37  H   UNL     1      -5.482   3.356   0.736  0.00  0.00    +0.292 HD
ENDBRANCH  31  36
ENDBRANCH  15  28
BRANCH   1  38
ATOM     38  C   UNL     1      -1.380  -2.243   1.664  0.00  0.00    +0.341 C 
ATOM     39  O   UNL     1      -0.490  -2.752   1.006  0.00  0.00    -0.245 OA
BRANCH  38  40
ATOM     40  O   UNL     1      -1.143  -1.109   2.359  0.00  0.00    -0.462 OA
BRANCH  40  42
ATOM     41  C   UNL     1       0.252   0.711   3.123  0.00  0.00    +0.048 C 
ATOM     42  C   UNL     1       0.175  -0.562   2.277  0.00  0.00    +0.229 C 
ENDBRANCH  40  42
ENDBRANCH  38  40
ENDBRANCH   1  38
TORSDOF 9
