REMARK  Name = ZINC39638625
REMARK  8 active torsions:
REMARK  status: ('A' for Active; 'I' for Inactive)
REMARK    1  A    between atoms: C_1  and  C_2
REMARK    2  A    between atoms: C_2  and  O_3
REMARK    3  A    between atoms: O_3  and  C_4
REMARK    4  A    between atoms: C_9  and  C_10
REMARK    5  A    between atoms: C_10  and  N_11
REMARK    6  A    between atoms: C_12  and  C_14
REMARK    7  A    between atoms: C_25  and  C_27
REMARK    8  A    between atoms: C_27  and  C_33
REMARK                            x       y       z     vdW  Elec       q    Type
REMARK                         _______ _______ _______ _____ _____    ______ ____
ROOT
ATOM      1  C   UNL     1       5.349   0.466  -3.332  0.00  0.00    +0.100 C 
ATOM      2  C   UNL     1       5.155   1.393  -2.111  0.00  0.00    +0.121 C 
ATOM      3  N   UNL     1       6.151   2.474  -2.299  0.00  0.00    -0.300 N 
ATOM      4  C   UNL     1       6.125   2.750  -3.755  0.00  0.00    +0.115 C 
ATOM      5  C   UNL     1       5.985   1.361  -4.409  0.00  0.00    -0.004 C 
ATOM      6  C   UNL     1       7.358   0.822  -4.801  0.00  0.00    -0.010 C 
ATOM      7  C   UNL     1       7.946   1.695  -5.913  0.00  0.00    -0.082 C 
ATOM      8  N   UNL     1       7.045   1.686  -7.072  0.00  0.00    +0.379 N 
ATOM      9  C   UNL     1       5.758   2.291  -6.711  0.00  0.00    -0.082 C 
ATOM     10  C   UNL     1       5.077   1.443  -5.633  0.00  0.00    -0.010 C 
ATOM     11  C   UNL     1       6.909   3.071  -1.358  0.00  0.00    +0.222 C 
ATOM     12  O   UNL     1       7.623   4.004  -1.658  0.00  0.00    -0.275 OA
ATOM     13  H   UNL     1       7.463   2.212  -7.825  0.00  0.00    -0.086 HD
ATOM     14  H   UNL     1       6.896   0.735  -7.373  0.00  0.00    -0.086 HD
ENDROOT
BRANCH  11  15
ATOM     15  C   UNL     1       6.869   2.579   0.066  0.00  0.00    +0.044 C 
ATOM     16  C   UNL     1       5.424   2.592   0.569  0.00  0.00    +0.016 C 
ATOM     17  C   UNL     1       4.875   4.019   0.506  0.00  0.00    +0.001 C 
ATOM     18  C   UNL     1       5.729   4.933   1.386  0.00  0.00    +0.000 C 
ATOM     19  C   UNL     1       7.174   4.921   0.883  0.00  0.00    +0.001 C 
ATOM     20  C   UNL     1       7.724   3.494   0.945  0.00  0.00    +0.016 C 
ATOM     21  C   UNL     1       7.418   1.153   0.128  0.00  0.00    +0.021 C 
ENDBRANCH  11  15
BRANCH   1  23
ATOM     22  N   UNL     1       3.968  -1.177  -4.562  0.00  0.00    -0.311 N 
ATOM     23  C   UNL     1       4.020  -0.062  -3.807  0.00  0.00    +0.218 C 
ATOM     24  O   UNL     1       2.996   0.517  -3.510  0.00  0.00    -0.275 OA
ATOM     25  H   UNL     1       4.787  -1.640  -4.800  0.00  0.00    +0.149 HD
BRANCH  22  26
ATOM     26  C   UNL     1       2.676  -1.690  -5.023  0.00  0.00    +0.143 C 
BRANCH  26  32
ATOM     27  C   UNL     1       3.112  -4.153  -5.211  0.00  0.00    +0.125 A 
ATOM     28  C   UNL     1       3.307  -5.299  -5.967  0.00  0.00    +0.046 A 
ATOM     29  C   UNL     1       3.289  -5.227  -7.346  0.00  0.00    +0.004 A 
ATOM     30  C   UNL     1       3.077  -4.013  -7.973  0.00  0.00    +0.001 A 
ATOM     31  C   UNL     1       2.882  -2.869  -7.222  0.00  0.00    +0.009 A 
ATOM     32  C   UNL     1       2.894  -2.937  -5.842  0.00  0.00    +0.011 A 
BRANCH  27  33
ATOM     33  O   UNL     1       3.129  -4.221  -3.854  0.00  0.00    -0.492 OA
BRANCH  33  35
ATOM     34  C   UNL     1       3.344  -5.386  -1.747  0.00  0.00    +0.048 C 
ATOM     35  C   UNL     1       3.360  -5.506  -3.272  0.00  0.00    +0.225 C 
ENDBRANCH  33  35
ENDBRANCH  27  33
ENDBRANCH  26  32
ENDBRANCH  22  26
ENDBRANCH   1  23
TORSDOF 6
