REMARK  Name = ZINC67617900
REMARK  7 active torsions:
REMARK  status: ('A' for Active; 'I' for Inactive)
REMARK    1  A    between atoms: C_1  and  C_2
REMARK    2  A    between atoms: N_5  and  C_8
REMARK    3  A    between atoms: C_8  and  C_9
REMARK    4  A    between atoms: C_9  and  C_11
REMARK    5  A    between atoms: C_9  and  O_26
REMARK    6  A    between atoms: C_11  and  N_12
REMARK    7  A    between atoms: N_15  and  C_16
REMARK                            x       y       z     vdW  Elec       q    Type
REMARK                         _______ _______ _______ _____ _____    ______ ____
ROOT
ATOM      1  N   UNL     1       0.526  -6.331   4.079  0.00  0.00    -0.297 N 
ATOM      2  C   UNL     1       0.687  -7.641   4.351  0.00  0.00    +0.300 C 
ATOM      3  O   UNL     1       0.343  -8.477   3.538  0.00  0.00    -0.253 OA
ATOM      4  N   UNL     1       1.230  -8.024   5.523  0.00  0.00    -0.297 N 
ATOM      5  H   UNL     1       0.800  -5.664   4.727  0.00  0.00    +0.150 HD
ATOM      6  H   UNL     1       1.505  -7.357   6.171  0.00  0.00    +0.151 HD
ENDROOT
BRANCH   4   7
ATOM      7  C   UNL     1       1.405  -9.449   5.818  0.00  0.00    +0.075 C 
ATOM      8  C   UNL     1       0.108 -10.012   6.402  0.00  0.00    +0.027 C 
ATOM      9  C   UNL     1       0.290 -11.500   6.707  0.00  0.00    +0.067 C 
ATOM     10  C   UNL     1       1.427 -11.678   7.714  0.00  0.00    +0.170 C 
ATOM     11  C   UNL     1       2.725 -11.111   7.136  0.00  0.00    +0.067 C 
ATOM     12  C   UNL     1       2.539  -9.624   6.830  0.00  0.00    +0.027 C 
ATOM     13  O   UNL     1       1.101 -10.982   8.929  0.00  0.00    -0.346 OA
ATOM     14  C   UNL     1       0.518 -11.992   9.788  0.00  0.00    +0.191 C 
ATOM     15  C   UNL     1       1.357 -13.241   9.421  0.00  0.00    +0.191 C 
ATOM     16  O   UNL     1       1.597 -13.070   8.009  0.00  0.00    -0.346 OA
ENDBRANCH   4   7
BRANCH   1  17
ATOM     17  C   UNL     1      -0.065  -5.914   2.804  0.00  0.00    +0.135 C 
BRANCH  17  18
ATOM     18  C   UNL     1      -0.134  -4.387   2.750  0.00  0.00    +0.115 C 
BRANCH  18  19
ATOM     19  O   UNL     1      -0.941  -3.908   3.828  0.00  0.00    -0.392 OA
ATOM     20  H   UNL     1      -1.850  -4.235   3.814  0.00  0.00    +0.210 HD
ENDBRANCH  18  19
BRANCH  18  21
ATOM     21  C   UNL     1      -0.750  -3.952   1.419  0.00  0.00    -0.046 C 
BRANCH  21  26
ATOM     22  C   UNL     1      -0.019   1.526   0.010  0.00  0.00    +0.007 C 
ATOM     23  C   UNL     1       0.002  -0.004   0.002  0.00  0.00    -0.018 C 
ATOM     24  C   UNL     1      -1.434  -0.536   0.023  0.00  0.00    -0.016 C 
ATOM     25  C   UNL     1      -1.405  -2.064   0.095  0.00  0.00    -0.078 C 
ATOM     26  N   UNL     1      -0.707  -2.487   1.315  0.00  0.00    +0.381 N 
ATOM     27  C   UNL     1       0.691  -2.042   1.269  0.00  0.00    -0.078 C 
ATOM     28  C   UNL     1       0.743  -0.513   1.242  0.00  0.00    -0.016 C 
ATOM     29  H   UNL     1      -1.162  -2.082   2.119  0.00  0.00    -0.082 HD
ENDBRANCH  21  26
ENDBRANCH  18  21
ENDBRANCH  17  18
ENDBRANCH   1  17
TORSDOF 6
