REMARK  Name = ZINC66233662
REMARK  11 active torsions:
REMARK  status: ('A' for Active; 'I' for Inactive)
REMARK    1  A    between atoms: C_1  and  C_2
REMARK    2  A    between atoms: C_2  and  C_3
REMARK    3  A    between atoms: C_3  and  C_5
REMARK    4  A    between atoms: C_3  and  N_6
REMARK    5  A    between atoms: C_7  and  C_9
REMARK    6  A    between atoms: C_9  and  C_11
REMARK    7  A    between atoms: C_9  and  N_12
REMARK    8  A    between atoms: N_15  and  C_16
REMARK    9  A    between atoms: C_16  and  C_17
REMARK   10  A    between atoms: C_17  and  C_18
REMARK   11  A    between atoms: N_22  and  C_23
REMARK                            x       y       z     vdW  Elec       q    Type
REMARK                         _______ _______ _______ _____ _____    ______ ____
ROOT
ATOM      1  N   UNL     1       0.772   0.445   6.003  0.00  0.00    -0.288 N 
ATOM      2  C   UNL     1       0.466   1.221   7.061  0.00  0.00    +0.300 C 
ATOM      3  O   UNL     1      -0.568   1.859   7.068  0.00  0.00    -0.253 OA
ATOM      4  N   UNL     1       1.307   1.289   8.113  0.00  0.00    -0.299 N 
ATOM      5  H   UNL     1       1.598  -0.065   5.998  0.00  0.00    +0.151 HD
ATOM      6  H   UNL     1       2.133   0.780   8.107  0.00  0.00    +0.150 HD
ENDROOT
BRANCH   1   7
ATOM      7  C   UNL     1      -0.142   0.370   4.861  0.00  0.00    +0.157 C 
ATOM      8  C   UNL     1      -1.217  -0.683   5.136  0.00  0.00    +0.038 C 
BRANCH   7  10
ATOM      9  N   UNL     1      -0.008  -0.140   2.444  0.00  0.00    -0.311 N 
ATOM     10  C   UNL     1       0.630  -0.011   3.624  0.00  0.00    +0.233 C 
ATOM     11  O   UNL     1       1.826  -0.202   3.690  0.00  0.00    -0.274 OA
ATOM     12  H   UNL     1      -0.965   0.013   2.391  0.00  0.00    +0.149 HD
BRANCH   9  13
ATOM     13  C   UNL     1       0.742  -0.511   1.242  0.00  0.00    +0.070 C 
ATOM     14  C   UNL     1       0.872  -2.034   1.171  0.00  0.00    +0.028 C 
BRANCH  13  16
ATOM     15  C   UNL     1      -0.019   1.526   0.010  0.00  0.00    +0.005 C 
ATOM     16  C   UNL     1       0.002  -0.004   0.002  0.00  0.00    +0.018 C 
ENDBRANCH  13  16
ENDBRANCH   9  13
ENDBRANCH   7  10
ENDBRANCH   1   7
BRANCH   4  17
ATOM     17  C   UNL     1       0.974   2.133   9.263  0.00  0.00    +0.113 C 
BRANCH  17  18
ATOM     18  C   UNL     1       2.087   2.032  10.309  0.00  0.00    +0.091 C 
BRANCH  18  19
ATOM     19  C   UNL     1       1.745   2.900  11.492  0.00  0.00    +0.088 A 
ATOM     20  N   UNL     1       0.999   2.547  12.503  0.00  0.00    -0.350 N 
ATOM     21  C   UNL     1       0.911   3.570  13.366  0.00  0.00    +0.101 A 
ATOM     22  C   UNL     1       1.631   4.595  12.871  0.00  0.00    +0.104 A 
ATOM     23  N   UNL     1       2.164   4.169  11.685  0.00  0.00    -0.339 N 
ATOM     24  C   UNL     1       3.026   4.945  10.790  0.00  0.00    +0.150 C 
ATOM     25  H   UNL     1       0.574   1.682  12.613  0.00  0.00    +0.166 HD
ENDBRANCH  18  19
ENDBRANCH  17  18
ENDBRANCH   4  17
TORSDOF 7
