REMARK  Name = ZINC57662962
REMARK  12 active torsions:
REMARK  status: ('A' for Active; 'I' for Inactive)
REMARK    1  A    between atoms: C_1  and  C_2
REMARK    2  A    between atoms: C_2  and  C_3
REMARK    3  A    between atoms: C_3  and  O_4
REMARK    4  A    between atoms: O_4  and  C_5
REMARK    5  A    between atoms: C_8  and  C_12
REMARK    6  A    between atoms: C_10  and  N_11
REMARK    7  A    between atoms: C_12  and  C_14
REMARK    8  A    between atoms: C_12  and  O_26
REMARK    9  A    between atoms: C_14  and  C_15
REMARK   10  A    between atoms: C_15  and  N_16
REMARK   11  A    between atoms: C_17  and  C_25
REMARK   12  A    between atoms: C_22  and  C_24
REMARK                            x       y       z     vdW  Elec       q    Type
REMARK                         _______ _______ _______ _____ _____    ______ ____
ROOT
ATOM      1  C   UNL     1       3.229  -4.739  -5.594  0.00  0.00    +0.143 C 
ENDROOT
BRANCH   1   5
ATOM      2  C   UNL     1       1.234  -3.357  -2.072  0.00  0.00    +0.141 A 
ATOM      3  C   UNL     1       1.721  -2.449  -2.998  0.00  0.00    +0.048 A 
ATOM      4  C   UNL     1       2.366  -2.899  -4.135  0.00  0.00    +0.010 A 
ATOM      5  C   UNL     1       2.526  -4.255  -4.352  0.00  0.00    -0.017 A 
ATOM      6  C   UNL     1       2.043  -5.168  -3.433  0.00  0.00    +0.032 A 
ATOM      7  C   UNL     1       1.400  -4.723  -2.288  0.00  0.00    +0.067 A 
BRANCH   7   8
ATOM      8  N   UNL     1       0.915  -5.645  -1.353  0.00  0.00    -0.355 N 
ATOM      9  H   UNL     1       0.462  -5.333  -0.554  0.00  0.00    +0.142 HD
ATOM     10  H   UNL     1       1.032  -6.596  -1.504  0.00  0.00    +0.142 HD
ENDBRANCH   7   8
BRANCH   2  11
ATOM     11  O   UNL     1       0.599  -2.916  -0.953  0.00  0.00    -0.490 OA
BRANCH  11  12
ATOM     12  C   UNL     1       0.464  -1.501  -0.799  0.00  0.00    +0.229 C 
BRANCH  12  14
ATOM     13  C   UNL     1      -0.414   0.316   0.674  0.00  0.00    +0.007 C 
ATOM     14  C   UNL     1      -0.270  -1.199   0.509  0.00  0.00    +0.038 C 
ENDBRANCH  12  14
ENDBRANCH  11  12
ENDBRANCH   2  11
ENDBRANCH   1   5
BRANCH   1  15
ATOM     15  O   UNL     1       2.924  -3.867  -6.685  0.00  0.00    -0.387 OA
ATOM     16  H   UNL     1       3.195  -2.950  -6.543  0.00  0.00    +0.210 HD
ENDBRANCH   1  15
BRANCH   1  17
ATOM     17  C   UNL     1       4.740  -4.747  -5.355  0.00  0.00    +0.017 C 
BRANCH  17  18
ATOM     18  C   UNL     1       5.446  -5.355  -6.569  0.00  0.00    -0.075 C 
BRANCH  18  19
ATOM     19  N   UNL     1       6.900  -5.320  -6.358  0.00  0.00    +0.383 N 
ATOM     20  C   UNL     1       7.342  -3.925  -6.237  0.00  0.00    -0.071 C 
ATOM     21  C   UNL     1       8.865  -3.880  -6.099  0.00  0.00    -0.016 C 
ATOM     22  C   UNL     1       9.282  -4.659  -4.849  0.00  0.00    -0.003 C 
ATOM     23  C   UNL     1       8.752  -6.092  -4.952  0.00  0.00    -0.016 C 
ATOM     24  C   UNL     1       7.233  -6.056  -5.133  0.00  0.00    -0.071 C 
ATOM     25  C   UNL     1       6.698  -7.486  -5.236  0.00  0.00    -0.013 C 
ATOM     26  C   UNL     1       6.921  -3.148  -7.486  0.00  0.00    -0.013 C 
ATOM     27  H   UNL     1       7.363  -5.751  -7.144  0.00  0.00    -0.081 HD
ENDBRANCH  18  19
ENDBRANCH  17  18
ENDBRANCH   1  17
TORSDOF 9
