REMARK  Name = ZINC40431808
REMARK  4 active torsions:
REMARK  status: ('A' for Active; 'I' for Inactive)
REMARK    1  A    between atoms: C_4  and  N_7
REMARK    2  A    between atoms: N_7  and  C_8
REMARK    3  A    between atoms: N_7  and  C_16
REMARK    4  A    between atoms: C_13  and  N_15
REMARK                            x       y       z     vdW  Elec       q    Type
REMARK                         _______ _______ _______ _____ _____    ______ ____
ROOT
ATOM      1  N   UNL     1       2.904  -0.245  -2.361  0.00  0.00    +0.384 N 
ATOM      2  H   UNL     1       2.480  -0.102  -3.266  0.00  0.00    -0.081 HD
ENDROOT
BRANCH   1   6
ATOM      3  C   UNL     1      -0.530   1.461  -0.482  0.00  0.00    -0.000 C 
ATOM      4  C   UNL     1       0.728   2.322  -0.610  0.00  0.00    -0.002 C 
ATOM      5  C   UNL     1       1.636   1.741  -1.696  0.00  0.00    -0.015 C 
ATOM      6  C   UNL     1       2.032   0.312  -1.319  0.00  0.00    -0.068 C 
ATOM      7  C   UNL     1       0.774  -0.549  -1.191  0.00  0.00    -0.015 C 
ATOM      8  C   UNL     1      -0.134   0.032  -0.105  0.00  0.00    -0.002 C 
ENDBRANCH   1   6
BRANCH   1   9
ATOM      9  C   UNL     1       3.087  -1.684  -2.128  0.00  0.00    -0.068 C 
ATOM     10  C   UNL     1       3.839  -1.896  -0.813  0.00  0.00    -0.015 C 
ATOM     11  C   UNL     1       4.030  -3.395  -0.570  0.00  0.00    -0.002 C 
ATOM     12  C   UNL     1       4.835  -3.999  -1.722  0.00  0.00    -0.000 C 
ATOM     13  C   UNL     1       4.083  -3.787  -3.037  0.00  0.00    -0.002 C 
ATOM     14  C   UNL     1       3.892  -2.289  -3.280  0.00  0.00    -0.015 C 
ENDBRANCH   1   9
BRANCH   1  15
ATOM     15  C   UNL     1       4.209   0.427  -2.320  0.00  0.00    -0.083 C 
ATOM     16  C   UNL     1       4.022   1.952  -2.460  0.00  0.00    -0.017 C 
ATOM     17  C   UNL     1       5.228   2.406  -3.319  0.00  0.00    -0.003 C 
ATOM     18  C   UNL     1       5.378   1.247  -4.336  0.00  0.00    -0.018 C 
ATOM     19  C   UNL     1       5.071  -0.022  -3.513  0.00  0.00    -0.089 C 
BRANCH  19  20
ATOM     20  N   UNL     1       6.322  -0.624  -3.031  0.00  0.00    +0.379 N 
ATOM     21  H   UNL     1       6.110  -1.441  -2.477  0.00  0.00    -0.090 HD
ATOM     22  H   UNL     1       6.892  -0.891  -3.819  0.00  0.00    -0.090 HD
ATOM     23  H   UNL     1       6.821   0.045  -2.465  0.00  0.00    -0.090 HD
ENDBRANCH  19  20
ENDBRANCH   1  15
TORSDOF 4
