REMARK  Name = ZINC52482345
REMARK  9 active torsions:
REMARK  status: ('A' for Active; 'I' for Inactive)
REMARK    1  A    between atoms: C_1  and  C_2
REMARK    2  A    between atoms: C_2  and  C_4
REMARK    3  A    between atoms: C_2  and  N_11
REMARK    4  A    between atoms: C_4  and  C_5
REMARK    5  A    between atoms: C_5  and  C_6
REMARK    6  A    between atoms: C_6  and  N_7
REMARK    7  A    between atoms: N_7  and  C_8
REMARK    8  A    between atoms: C_8  and  C_9
REMARK    9  A    between atoms: C_8  and  C_10
REMARK                            x       y       z     vdW  Elec       q    Type
REMARK                         _______ _______ _______ _____ _____    ______ ____
ROOT
ATOM      1  C   UNL     1       0.329   1.513  -0.247  0.00  0.00    -0.013 C 
ATOM      2  C   UNL     1       0.234  -0.008  -0.104  0.00  0.00    -0.072 C 
ENDROOT
BRANCH   2   3
ATOM      3  N   UNL     1      -1.162  -0.430  -0.280  0.00  0.00    +0.382 N 
ATOM      4  C   UNL     1      -1.581  -0.165  -1.661  0.00  0.00    -0.078 C 
ATOM      5  C   UNL     1      -3.010  -0.671  -1.873  0.00  0.00    -0.015 C 
ATOM      6  C   UNL     1      -3.948   0.059  -0.905  0.00  0.00    -0.011 C 
ATOM      7  C   UNL     1      -3.931   1.556  -1.227  0.00  0.00    +0.004 C 
ATOM      8  C   UNL     1      -4.833   2.303  -0.244  0.00  0.00    +0.000 C 
ATOM      9  C   UNL     1      -4.320   2.088   1.181  0.00  0.00    +0.000 C 
ATOM     10  C   UNL     1      -4.343   0.594   1.508  0.00  0.00    +0.002 C 
ATOM     11  C   UNL     1      -3.460  -0.176   0.526  0.00  0.00    -0.025 C 
ATOM     12  C   UNL     1      -2.017   0.313   0.654  0.00  0.00    -0.075 C 
ATOM     13  H   UNL     1      -1.239  -1.418  -0.091  0.00  0.00    -0.081 HD
ENDBRANCH   2   3
BRANCH   2  14
ATOM     14  C   UNL     1       0.721  -0.421   1.286  0.00  0.00    -0.017 C 
BRANCH  14  15
ATOM     15  C   UNL     1       0.739  -1.947   1.388  0.00  0.00    -0.021 C 
BRANCH  15  16
ATOM     16  C   UNL     1       1.347  -2.362   2.729  0.00  0.00    -0.082 C 
BRANCH  16  17
ATOM     17  N   UNL     1       1.364  -3.828   2.827  0.00  0.00    +0.381 N 
ATOM     18  H   UNL     1       0.421  -4.180   2.762  0.00  0.00    -0.086 HD
ATOM     19  H   UNL     1       1.918  -4.208   2.075  0.00  0.00    -0.086 HD
BRANCH  17  20
ATOM     20  C   UNL     1       1.947  -4.226   4.115  0.00  0.00    -0.078 C 
ATOM     21  C   UNL     1       1.851  -5.745   4.270  0.00  0.00    -0.014 C 
ATOM     22  C   UNL     1       3.416  -3.800   4.163  0.00  0.00    -0.014 C 
ENDBRANCH  17  20
ENDBRANCH  16  17
ENDBRANCH  15  16
ENDBRANCH  14  15
ENDBRANCH   2  14
TORSDOF 6
