REMARK  Name = ZINC51608632
REMARK  6 active torsions:
REMARK  status: ('A' for Active; 'I' for Inactive)
REMARK    1  A    between atoms: C_1  and  C_2
REMARK    2  A    between atoms: C_4  and  C_16
REMARK    3  A    between atoms: C_6  and  S_8
REMARK    4  A    between atoms: S_8  and  C_9
REMARK    5  A    between atoms: C_9  and  C_10
REMARK    6  A    between atoms: C_11  and  N_15
REMARK                            x       y       z     vdW  Elec       q    Type
REMARK                         _______ _______ _______ _____ _____    ______ ____
ROOT
ATOM      1  S   UNL     1       0.053  -2.864   2.678  0.00  0.00    -0.080 S 
ENDROOT
BRANCH   1   7
ATOM      2  C   UNL     1      -0.018   1.503   0.010  0.00  0.00    +0.066 C 
ATOM      3  C   UNL     1       0.002  -0.004   0.002  0.00  0.00    +0.043 A 
ATOM      4  C   UNL     1       0.006  -0.699  -1.198  0.00  0.00    +0.046 A 
ATOM      5  C   UNL     1       0.025  -2.084  -1.161  0.00  0.00    +0.043 A 
ATOM      6  N   UNL     1       0.039  -2.699   0.010  0.00  0.00    -0.227 NA
ATOM      7  C   UNL     1       0.035  -2.005   1.140  0.00  0.00    +0.189 A 
ATOM      8  N   UNL     1       0.022  -0.679   1.139  0.00  0.00    -0.227 NA
ATOM      9  C   UNL     1       0.029  -2.881  -2.440  0.00  0.00    +0.066 C 
ENDBRANCH   1   7
BRANCH   1  10
ATOM     10  C   UNL     1       0.041  -1.542   3.919  0.00  0.00    +0.137 C 
BRANCH  10  11
ATOM     11  C   UNL     1       0.056  -2.148   5.299  0.00  0.00    +0.103 A 
ATOM     12  C   UNL     1      -1.097  -2.459   5.962  0.00  0.00    +0.107 A 
ATOM     13  S   UNL     1      -0.510  -3.085   7.408  0.00  0.00    +0.051 S 
ATOM     14  N   UNL     1       1.131  -2.927   7.111  0.00  0.00    -0.108 NA
ATOM     15  N   UNL     1       1.179  -2.413   5.928  0.00  0.00    -0.143 NA
BRANCH  12  16
ATOM     16  N   UNL     1      -2.417  -2.298   5.548  0.00  0.00    -0.350 N 
ATOM     17  H   UNL     1      -2.609  -1.918   4.677  0.00  0.00    +0.143 HD
ATOM     18  H   UNL     1      -3.144  -2.567   6.131  0.00  0.00    +0.143 HD
ENDBRANCH  12  16
ENDBRANCH  10  11
ENDBRANCH   1  10
TORSDOF 4
