REMARK  Name = ZINC62210958
REMARK  5 active torsions:
REMARK  status: ('A' for Active; 'I' for Inactive)
REMARK    1  A    between atoms: C_3  and  N_23
REMARK    2  A    between atoms: C_6  and  C_7
REMARK    3  A    between atoms: C_9  and  N_22
REMARK    4  A    between atoms: N_14  and  C_15
REMARK    5  A    between atoms: C_15  and  C_16
REMARK                            x       y       z     vdW  Elec       q    Type
REMARK                         _______ _______ _______ _____ _____    ______ ____
ROOT
ATOM      1  C   UNL     1      -1.293  -0.775   0.010  0.00  0.00    +0.092 C 
ATOM      2  C   UNL     1      -1.621  -1.284  -1.411  0.00  0.00    -0.041 C 
ATOM      3  C   UNL     1      -2.275  -2.653  -1.113  0.00  0.00    +0.082 C 
ATOM      4  C   UNL     1      -1.709  -3.049   0.233  0.00  0.00    +0.215 C 
ATOM      5  O   UNL     1      -1.744  -4.169   0.698  0.00  0.00    -0.276 OA
ATOM      6  N   UNL     1      -1.161  -1.980   0.838  0.00  0.00    -0.294 N 
ENDROOT
BRANCH   1  12
ATOM      7  C   UNL     1      -0.017   1.378   0.010  0.00  0.00    +0.007 A 
ATOM      8  C   UNL     1       1.171   2.086   0.002  0.00  0.00    +0.033 A 
ATOM      9  C   UNL     1       2.377   1.411  -0.013  0.00  0.00    +0.126 A 
ATOM     10  C   UNL     1       2.396   0.029  -0.020  0.00  0.00    +0.033 A 
ATOM     11  C   UNL     1       1.208  -0.679  -0.012  0.00  0.00    +0.007 A 
ATOM     12  C   UNL     1       0.002  -0.004   0.002  0.00  0.00    -0.028 A 
BRANCH   9  13
ATOM     13  N   UNL     1       3.649   2.168  -0.022  0.00  0.00    +0.056 N 
ATOM     14  O   UNL     1       3.633   3.377  -0.016  0.00  0.00    -0.126 OA
ATOM     15  O   UNL     1       4.704   1.578  -0.035  0.00  0.00    -0.126 OA
ENDBRANCH   9  13
ENDBRANCH   1  12
BRANCH   2  16
ATOM     16  N   UNL     1      -2.566  -0.384  -2.086  0.00  0.00    +0.382 N 
ATOM     17  H   UNL     1      -2.162   0.537  -2.157  0.00  0.00    -0.090 HD
ATOM     18  H   UNL     1      -2.765  -0.737  -3.010  0.00  0.00    -0.090 HD
ATOM     19  H   UNL     1      -3.422  -0.335  -1.554  0.00  0.00    -0.090 HD
ENDBRANCH   2  16
BRANCH   6  20
ATOM     20  C   UNL     1      -0.516  -2.013   2.153  0.00  0.00    +0.139 C 
BRANCH  20  21
ATOM     21  C   UNL     1      -1.556  -1.730   3.239  0.00  0.00    +0.136 C 
ATOM     22  C   UNL     1      -0.865  -1.643   4.617  0.00  0.00    +0.035 C 
ATOM     23  C   UNL     1      -1.885  -2.359   5.543  0.00  0.00    +0.031 C 
ATOM     24  C   UNL     1      -2.446  -3.439   4.584  0.00  0.00    +0.160 C 
ATOM     25  O   UNL     1      -2.503  -2.803   3.295  0.00  0.00    -0.375 OA
ENDBRANCH  20  21
ENDBRANCH   6  20
TORSDOF 5
