REMARK  Name = ZINC67332515
REMARK  7 active torsions:
REMARK  status: ('A' for Active; 'I' for Inactive)
REMARK    1  A    between atoms: C_1  and  C_2
REMARK    2  A    between atoms: C_2  and  C_4
REMARK    3  A    between atoms: C_2  and  N_21
REMARK    4  A    between atoms: N_6  and  C_7
REMARK    5  A    between atoms: C_7  and  C_8
REMARK    6  A    between atoms: N_13  and  C_14
REMARK    7  A    between atoms: C_14  and  C_15
REMARK                            x       y       z     vdW  Elec       q    Type
REMARK                         _______ _______ _______ _____ _____    ______ ____
ROOT
ATOM      1  C   UNL     1      -3.670  -0.782  -0.981  0.00  0.00    +0.089 C 
ENDROOT
BRANCH   1   2
ATOM      2  C   UNL     1      -4.416  -0.126  -2.144  0.00  0.00    -0.051 C 
ATOM      3  C   UNL     1      -5.857  -0.672  -2.218  0.00  0.00    -0.016 C 
ATOM      4  C   UNL     1      -6.109  -0.788  -3.744  0.00  0.00    -0.020 C 
ATOM      5  C   UNL     1      -4.712  -1.213  -4.261  0.00  0.00    -0.078 C 
ATOM      6  N   UNL     1      -3.752  -0.462  -3.418  0.00  0.00    +0.383 N 
ATOM      7  H   UNL     1      -3.474   0.386  -3.889  0.00  0.00    -0.081 HD
BRANCH   6   8
ATOM      8  C   UNL     1      -2.569  -1.291  -3.155  0.00  0.00    -0.075 C 
BRANCH   8   9
ATOM      9  C   UNL     1      -1.773  -1.468  -4.450  0.00  0.00    -0.028 C 
ATOM     10  C   UNL     1      -2.543  -2.387  -5.401  0.00  0.00    +0.002 C 
ATOM     11  C   UNL     1      -1.747  -2.564  -6.695  0.00  0.00    +0.000 C 
ATOM     12  C   UNL     1      -0.386  -3.185  -6.376  0.00  0.00    +0.000 C 
ATOM     13  C   UNL     1       0.384  -2.266  -5.426  0.00  0.00    +0.000 C 
ATOM     14  C   UNL     1      -0.412  -2.089  -4.131  0.00  0.00    +0.002 C 
ENDBRANCH   8   9
ENDBRANCH   6   8
ENDBRANCH   1   2
BRANCH   1  17
ATOM     15  C   UNL     1      -1.572  -0.486   0.223  0.00  0.00    +0.233 C 
ATOM     16  O   UNL     1      -1.911  -1.376   0.975  0.00  0.00    -0.274 OA
ATOM     17  N   UNL     1      -2.380  -0.113  -0.788  0.00  0.00    -0.315 N 
ATOM     18  H   UNL     1      -2.108   0.598  -1.389  0.00  0.00    +0.149 HD
BRANCH  15  20
ATOM     19  C   UNL     1      -0.476   1.694   0.663  0.00  0.00    +0.038 C 
ATOM     20  C   UNL     1      -0.245   0.202   0.421  0.00  0.00    +0.157 C 
BRANCH  20  21
ATOM     21  N   UNL     1       0.439  -0.381   1.577  0.00  0.00    -0.289 N 
ATOM     22  C   UNL     1       1.783  -0.320   1.667  0.00  0.00    +0.298 C 
ATOM     23  O   UNL     1       2.426   0.219   0.787  0.00  0.00    -0.253 OA
ATOM     24  N   UNL     1       2.413  -0.856   2.731  0.00  0.00    -0.313 N 
ATOM     25  H   UNL     1      -0.074  -0.811   2.279  0.00  0.00    +0.151 HD
ATOM     26  H   UNL     1       1.899  -1.286   3.432  0.00  0.00    +0.146 HD
ATOM     27  H   UNL     1       3.380  -0.812   2.795  0.00  0.00    +0.146 HD
ENDBRANCH  20  21
ENDBRANCH  15  20
ENDBRANCH   1  17
TORSDOF 6
