REMARK  Name = ZINC34685429
REMARK  7 active torsions:
REMARK  status: ('A' for Active; 'I' for Inactive)
REMARK    1  A    between atoms: C_1  and  C_2
REMARK    2  A    between atoms: C_2  and  C_3
REMARK    3  A    between atoms: C_2  and  N_4
REMARK    4  A    between atoms: C_5  and  C_7
REMARK    5  A    between atoms: C_10  and  C_12
REMARK    6  A    between atoms: C_12  and  N_13
REMARK    7  A    between atoms: C_19  and  C_21
REMARK                            x       y       z     vdW  Elec       q    Type
REMARK                         _______ _______ _______ _____ _____    ______ ____
ROOT
ATOM      1  C   UNL     1       1.203  -2.486  -5.790  0.00  0.00    +0.147 C 
ENDROOT
BRANCH   1   2
ATOM      2  N   UNL     1       1.443  -1.360  -6.702  0.00  0.00    -0.293 NA
ATOM      3  C   UNL     1       0.697  -0.169  -6.276  0.00  0.00    +0.104 C 
ATOM      4  C   UNL     1       1.112   1.026  -7.140  0.00  0.00    +0.123 C 
ATOM      5  N   UNL     1       0.944   0.660  -8.555  0.00  0.00    -0.293 N 
ATOM      6  C   UNL     1       1.550  -0.594  -9.026  0.00  0.00    +0.123 C 
ATOM      7  C   UNL     1       1.117  -1.726  -8.087  0.00  0.00    +0.104 C 
ATOM      8  C   UNL     1       0.254   1.454  -9.397  0.00  0.00    +0.282 C 
ATOM      9  O   UNL     1      -0.344   2.423  -8.968  0.00  0.00    -0.267 OA
BRANCH   8  10
ATOM     10  C   UNL     1       0.224   1.150 -10.832  0.00  0.00    +0.189 A 
ATOM     11  C   UNL     1      -0.544   1.779 -11.769  0.00  0.00    +0.054 A 
ATOM     12  C   UNL     1      -0.256   1.172 -13.001  0.00  0.00    +0.042 A 
ATOM     13  C   UNL     1       0.664   0.211 -12.765  0.00  0.00    +0.196 A 
ATOM     14  O   UNL     1       0.954   0.204 -11.457  0.00  0.00    -0.458 OA
ENDBRANCH   8  10
ENDBRANCH   1   2
BRANCH   1  18
ATOM     15  C   UNL     1       1.876  -1.385  -2.304  0.00  0.00    +0.133 A 
ATOM     16  C   UNL     1       3.169  -1.834  -2.312  0.00  0.00    +0.080 A 
ATOM     17  S   UNL     1       3.318  -2.477  -3.857  0.00  0.00    -0.078 S 
ATOM     18  C   UNL     1       1.773  -2.164  -4.432  0.00  0.00    +0.093 A 
ATOM     19  N   UNL     1       1.178  -1.580  -3.428  0.00  0.00    -0.238 NA
BRANCH  15  21
ATOM     20  N   UNL     1       0.006  -0.307  -1.157  0.00  0.00    -0.308 N 
ATOM     21  C   UNL     1       1.286  -0.730  -1.124  0.00  0.00    +0.263 C 
ATOM     22  O   UNL     1       1.953  -0.570  -0.120  0.00  0.00    -0.269 OA
ATOM     23  H   UNL     1      -0.526  -0.435  -1.958  0.00  0.00    +0.149 HD
BRANCH  20  25
ATOM     24  C   UNL     1      -0.241   1.836  -0.006  0.00  0.00    +0.027 C 
ATOM     25  C   UNL     1      -0.581   0.345   0.016  0.00  0.00    +0.067 C 
ATOM     26  C   UNL     1      -2.100   0.167  -0.008  0.00  0.00    +0.027 C 
ENDBRANCH  20  25
ENDBRANCH  15  21
ENDBRANCH   1  18
TORSDOF 5
