REMARK  Name = ZINC59464885
REMARK  7 active torsions:
REMARK  status: ('A' for Active; 'I' for Inactive)
REMARK    1  A    between atoms: C_1  and  N_2
REMARK    2  A    between atoms: N_2  and  C_3
REMARK    3  A    between atoms: N_2  and  C_4
REMARK    4  A    between atoms: C_7  and  C_13
REMARK    5  A    between atoms: C_9  and  N_10
REMARK    6  A    between atoms: C_14  and  C_15
REMARK    7  A    between atoms: C_14  and  C_17
REMARK                            x       y       z     vdW  Elec       q    Type
REMARK                         _______ _______ _______ _____ _____    ______ ____
ROOT
ATOM      1  C   UNL     1       0.231  -0.296  -1.458  0.00  0.00    +0.060 A 
ATOM      2  C   UNL     1       1.326  -0.386  -2.316  0.00  0.00    +0.026 A 
ATOM      3  C   UNL     1       1.262  -1.175  -3.427  0.00  0.00    +0.010 A 
ATOM      4  C   UNL     1       0.091  -1.897  -3.706  0.00  0.00    -0.021 A 
ATOM      5  C   UNL     1      -1.008  -1.802  -2.840  0.00  0.00    +0.042 A 
ATOM      6  C   UNL     1      -0.932  -1.014  -1.727  0.00  0.00    +0.148 A 
ENDROOT
BRANCH   1   8
ATOM      7  C   UNL     1      -0.112   1.913  -0.402  0.00  0.00    +0.129 C 
ATOM      8  N   UNL     1       0.301   0.509  -0.328  0.00  0.00    -0.334 N 
ATOM      9  C   UNL     1       0.789  -0.045   0.937  0.00  0.00    +0.129 C 
ENDBRANCH   1   8
BRANCH   6  10
ATOM     10  N   UNL     1      -2.088  -0.919  -0.809  0.00  0.00    +0.058 N 
ATOM     11  O   UNL     1      -3.098  -1.542  -1.042  0.00  0.00    -0.126 OA
ATOM     12  O   UNL     1      -2.024  -0.217   0.174  0.00  0.00    -0.126 OA
ENDBRANCH   6  10
BRANCH   4  13
ATOM     13  C   UNL     1       0.017  -2.744  -4.897  0.00  0.00    +0.032 C 
ATOM     14  C   UNL     1       1.081  -3.553  -5.235  0.00  0.00    +0.114 C 
BRANCH  14  15
ATOM     15  C   UNL     1       2.195  -3.735  -4.292  0.00  0.00    +0.252 C 
ATOM     16  O   UNL     1       2.118  -3.284  -3.165  0.00  0.00    -0.270 OA
ATOM     17  N   UNL     1       3.301  -4.402  -4.676  0.00  0.00    -0.325 N 
ATOM     18  H   UNL     1       3.363  -4.762  -5.575  0.00  0.00    +0.145 HD
ATOM     19  H   UNL     1       4.036  -4.521  -4.054  0.00  0.00    +0.145 HD
ENDBRANCH  14  15
BRANCH  14  20
ATOM     20  C   UNL     1       1.101  -4.217  -6.503  0.00  0.00    +0.104 C 
ATOM     21  N   UNL     1       1.117  -4.744  -7.510  0.00  0.00    -0.191 NA
ENDBRANCH  14  20
ENDBRANCH   4  13
TORSDOF 5
