REMARK  Name = ZINC59186827
REMARK  3 active torsions:
REMARK  status: ('A' for Active; 'I' for Inactive)
REMARK    1  A    between atoms: C_1  and  N_2
REMARK    2  A    between atoms: C_4  and  C_5
REMARK    3  A    between atoms: C_10  and  N_11
REMARK                            x       y       z     vdW  Elec       q    Type
REMARK                         _______ _______ _______ _____ _____    ______ ____
ROOT
ATOM      1  C   UNL     1      -0.859   1.077  -1.905  0.00  0.00    +0.138 C 
ATOM      2  N   UNL     1      -0.617  -0.283  -1.418  0.00  0.00    -0.274 N 
ATOM      3  C   UNL     1      -1.352  -0.956  -0.436  0.00  0.00    +0.101 C 
ATOM      4  C   UNL     1      -2.422  -0.495   0.257  0.00  0.00    +0.039 C 
ATOM      5  C   UNL     1      -0.704  -2.277  -0.321  0.00  0.00    +0.284 C 
ATOM      6  O   UNL     1      -1.027  -3.188   0.424  0.00  0.00    -0.267 OA
ATOM      7  N   UNL     1       0.308  -2.277  -1.199  0.00  0.00    -0.146 NA
ATOM      8  C   UNL     1       0.360  -1.130  -1.841  0.00  0.00    +0.177 C 
ATOM      9  N   UNL     1       1.281  -0.827  -2.807  0.00  0.00    -0.333 N 
ATOM     10  H   UNL     1       1.263   0.042  -3.238  0.00  0.00    +0.145 HD
ATOM     11  H   UNL     1       1.952  -1.480  -3.060  0.00  0.00    +0.145 HD
ENDROOT
BRANCH   4  12
ATOM     12  C   UNL     1      -2.801   0.922   0.168  0.00  0.00    +0.007 A 
ATOM     13  C   UNL     1      -1.877   1.920   0.497  0.00  0.00    +0.010 A 
ATOM     14  C   UNL     1      -2.240   3.247   0.410  0.00  0.00    +0.001 A 
ATOM     15  C   UNL     1      -3.516   3.594  -0.000  0.00  0.00    +0.002 A 
ATOM     16  C   UNL     1      -4.436   2.613  -0.328  0.00  0.00    +0.033 A 
ATOM     17  C   UNL     1      -4.087   1.281  -0.252  0.00  0.00    +0.133 A 
BRANCH  17  18
ATOM     18  N   UNL     1      -5.071   0.235  -0.608  0.00  0.00    +0.057 N 
ATOM     19  O   UNL     1      -6.211   0.540  -0.868  0.00  0.00    -0.126 OA
ATOM     20  O   UNL     1      -4.734  -0.926  -0.639  0.00  0.00    -0.126 OA
ENDBRANCH  17  18
ENDBRANCH   4  12
TORSDOF 2
