REMARK  Name = ZINC04128333
REMARK  6 active torsions:
REMARK  status: ('A' for Active; 'I' for Inactive)
REMARK    1  A    between atoms: C_1  and  N_55
REMARK    2  A    between atoms: C_2  and  N_55
REMARK    3  A    between atoms: C_3  and  C_4
REMARK    4  A    between atoms: C_3  and  N_55
REMARK    5  A    between atoms: C_10  and  C_12
REMARK    6  A    between atoms: C_12  and  O_27
REMARK                            x       y       z     vdW  Elec       q    Type
REMARK                         _______ _______ _______ _____ _____    ______ ____
ROOT
ATOM      1  C   UNL     1      -3.058  -2.348  -1.413  0.00  0.00    +0.120 C 
ATOM      2  C   UNL     1      -3.235  -2.619   0.016  0.00  0.00    -0.007 A 
ATOM      3  C   UNL     1      -4.530  -2.281   0.469  0.00  0.00    +0.007 A 
ATOM      4  C   UNL     1      -4.933  -2.539   1.754  0.00  0.00    +0.000 A 
ATOM      5  C   UNL     1      -4.037  -3.154   2.611  0.00  0.00    +0.000 A 
ATOM      6  C   UNL     1      -2.776  -3.437   2.164  0.00  0.00    +0.005 A 
ATOM      7  C   UNL     1      -2.350  -3.135   0.841  0.00  0.00    -0.031 A 
ATOM      8  C   UNL     1      -0.878  -3.493   0.746  0.00  0.00    +0.109 C 
ATOM      9  S   UNL     1      -0.460  -4.434  -0.721  0.00  0.00    -0.120 S 
ATOM     10  C   UNL     1      -0.905  -3.442  -2.121  0.00  0.00    +0.014 A 
ATOM     11  C   UNL     1      -1.973  -2.679  -2.336  0.00  0.00    +0.002 A 
ATOM     12  C   UNL     1      -2.148  -2.067  -3.599  0.00  0.00    +0.008 A 
ATOM     13  C   UNL     1      -1.228  -2.203  -4.606  0.00  0.00    +0.000 A 
ATOM     14  C   UNL     1      -0.091  -2.957  -4.373  0.00  0.00    +0.001 A 
ATOM     15  C   UNL     1       0.065  -3.561  -3.155  0.00  0.00    +0.015 A 
ENDROOT
BRANCH   1  21
ATOM     16  C   UNL     1      -1.999  -0.120  -1.015  0.00  0.00    -0.021 C 
ATOM     17  C   UNL     1      -2.183   1.393  -1.152  0.00  0.00    +0.002 C 
ATOM     18  C   UNL     1      -3.410   1.832  -0.351  0.00  0.00    +0.000 C 
ATOM     19  C   UNL     1      -4.652   1.117  -0.886  0.00  0.00    +0.000 C 
ATOM     20  C   UNL     1      -4.468  -0.396  -0.749  0.00  0.00    +0.007 C 
ATOM     21  C   UNL     1      -3.241  -0.835  -1.550  0.00  0.00    +0.031 C 
BRANCH  16  22
ATOM     22  C   UNL     1      -1.801  -0.478   0.460  0.00  0.00    -0.076 C 
BRANCH  22  25
ATOM     23  C   UNL     1      -1.152   1.530   1.647  0.00  0.00    -0.097 C 
ATOM     24  C   UNL     1       0.116  -0.512   1.939  0.00  0.00    -0.097 C 
ATOM     25  N   UNL     1      -0.661   0.304   0.983  0.00  0.00    +0.376 N 
ATOM     26  H   UNL     1      -0.052   0.571   0.200  0.00  0.00    -0.083 HD
ENDBRANCH  22  25
ENDBRANCH  16  22
ENDBRANCH   1  21
BRANCH   1  27
ATOM     27  O   UNL     1      -4.236  -2.867  -2.032  0.00  0.00    -0.379 OA
ATOM     28  H   UNL     1      -4.287  -3.833  -2.034  0.00  0.00    +0.211 HD
ENDBRANCH   1  27
TORSDOF 4
