REMARK  Name = ZINC51958028
REMARK  9 active torsions:
REMARK  status: ('A' for Active; 'I' for Inactive)
REMARK    1  A    between atoms: C_1  and  C_2
REMARK    2  A    between atoms: C_5  and  O_8
REMARK    3  A    between atoms: O_8  and  C_9
REMARK    4  A    between atoms: C_12  and  O_15
REMARK    5  A    between atoms: O_15  and  C_16
REMARK    6  A    between atoms: C_16  and  C_17
REMARK    7  A    between atoms: C_16  and  C_18
REMARK    8  A    between atoms: C_16  and  C_19
REMARK    9  A    between atoms: C_19  and  N_20
REMARK                            x       y       z     vdW  Elec       q    Type
REMARK                         _______ _______ _______ _____ _____    ______ ____
ROOT
ATOM      1  C   UNL     1       1.943  -5.737   0.633  0.00  0.00    +0.129 A 
ATOM      2  C   UNL     1       1.751  -4.836   1.670  0.00  0.00    +0.050 A 
ATOM      3  C   UNL     1       1.301  -5.281   2.897  0.00  0.00    +0.049 A 
ATOM      4  C   UNL     1       1.041  -6.629   3.093  0.00  0.00    +0.121 A 
ATOM      5  C   UNL     1       1.232  -7.530   2.056  0.00  0.00    +0.049 A 
ATOM      6  C   UNL     1       1.677  -7.084   0.827  0.00  0.00    +0.050 A 
ENDROOT
BRANCH   1   7
ATOM      7  O   UNL     1       2.386  -5.298  -0.575  0.00  0.00    -0.456 OA
BRANCH   7  12
ATOM      8  C   UNL     1       7.933  -4.596  -1.261  0.00  0.00    +0.044 C 
ATOM      9  C   UNL     1       6.449  -4.784  -1.078  0.00  0.00    -0.050 A 
ATOM     10  C   UNL     1       5.951  -5.196   0.145  0.00  0.00    +0.007 A 
ATOM     11  C   UNL     1       4.591  -5.369   0.316  0.00  0.00    +0.046 A 
ATOM     12  C   UNL     1       3.724  -5.128  -0.741  0.00  0.00    +0.128 A 
ATOM     13  C   UNL     1       4.226  -4.714  -1.966  0.00  0.00    +0.046 A 
ATOM     14  C   UNL     1       5.586  -4.538  -2.130  0.00  0.00    +0.007 A 
ENDBRANCH   7  12
ENDBRANCH   1   7
BRANCH   4  15
ATOM     15  O   UNL     1       0.598  -7.068   4.301  0.00  0.00    -0.488 OA
BRANCH  15  16
ATOM     16  C   UNL     1       0.467  -8.481   4.471  0.00  0.00    +0.090 C 
ATOM     17  C   UNL     1       0.069  -8.787   5.916  0.00  0.00    +0.053 C 
ATOM     18  C   UNL     1      -0.611  -9.010   3.522  0.00  0.00    +0.053 C 
BRANCH  16  19
ATOM     19  C   UNL     1       1.802  -9.158   4.154  0.00  0.00    -0.038 C 
BRANCH  19  20
ATOM     20  N   UNL     1       2.805  -8.750   5.147  0.00  0.00    +0.381 N 
ATOM     21  H   UNL     1       2.921  -7.749   5.116  0.00  0.00    -0.090 HD
ATOM     22  H   UNL     1       2.498  -9.025   6.068  0.00  0.00    -0.090 HD
ATOM     23  H   UNL     1       3.685  -9.197   4.939  0.00  0.00    -0.090 HD
ENDBRANCH  19  20
ENDBRANCH  16  19
ENDBRANCH  15  16
ENDBRANCH   4  15
TORSDOF 6
