REMARK  Name = ZINC40824283
REMARK  6 active torsions:
REMARK  status: ('A' for Active; 'I' for Inactive)
REMARK    1  A    between atoms: C_1  and  C_2
REMARK    2  A    between atoms: C_6  and  C_7
REMARK    3  A    between atoms: C_12  and  C_15
REMARK    4  A    between atoms: C_15  and  O_17
REMARK    5  A    between atoms: O_17  and  C_18
REMARK    6  A    between atoms: N_23  and  N_24
REMARK                            x       y       z     vdW  Elec       q    Type
REMARK                         _______ _______ _______ _____ _____    ______ ____
ROOT
ATOM      1  C   UNL     1       0.544   1.438   0.013  0.00  0.00    +0.048 C 
ATOM      2  C   UNL     1       0.192  -0.028   0.003  0.00  0.00    +0.009 A 
ATOM      3  C   UNL     1       0.034  -0.846  -1.122  0.00  0.00    +0.042 A 
ATOM      4  C   UNL     1      -0.285  -2.106  -0.674  0.00  0.00    +0.115 A 
ATOM      5  O   UNL     1      -0.321  -2.073   0.656  0.00  0.00    -0.454 OA
ATOM      6  C   UNL     1      -0.030  -0.826   1.091  0.00  0.00    +0.193 A 
ATOM      7  C   UNL     1      -0.538  -3.267  -1.602  0.00  0.00    +0.075 C 
ATOM      8  C   UNL     1      -0.891  -2.737  -2.994  0.00  0.00    +0.014 C 
ATOM      9  C   UNL     1       0.175  -1.752  -3.484  0.00  0.00    +0.058 C 
ATOM     10  C   UNL     1       0.161  -0.539  -2.564  0.00  0.00    +0.070 C 
ATOM     11  N   UNL     1       0.252   0.675  -3.012  0.00  0.00    -0.183 NA
ENDROOT
BRANCH   6  12
ATOM     12  C   UNL     1       0.032  -0.400   2.494  0.00  0.00    +0.282 C 
ATOM     13  O   UNL     1       0.156   0.780   2.766  0.00  0.00    -0.267 OA
ATOM     14  N   UNL     1      -0.047  -1.315   3.480  0.00  0.00    -0.295 N 
ATOM     15  C   UNL     1      -0.157  -0.894   4.884  0.00  0.00    +0.109 C 
ATOM     16  C   UNL     1       0.949  -1.581   5.691  0.00  0.00    +0.033 C 
ATOM     17  C   UNL     1       0.865  -3.094   5.480  0.00  0.00    +0.101 C 
ATOM     18  C   UNL     1       1.077  -3.417   3.999  0.00  0.00    +0.033 C 
ATOM     19  C   UNL     1      -0.033  -2.751   3.172  0.00  0.00    +0.109 C 
BRANCH  17  20
ATOM     20  C   UNL     1       1.930  -3.776   6.300  0.00  0.00    +0.310 C 
ATOM     21  O   UNL     1       2.679  -3.119   6.983  0.00  0.00    -0.251 OA
BRANCH  20  22
ATOM     22  O   UNL     1       2.046  -5.113   6.271  0.00  0.00    -0.468 OA
ATOM     23  C   UNL     1       3.078  -5.691   7.073  0.00  0.00    +0.280 C 
ENDBRANCH  20  22
ENDBRANCH  17  20
ENDBRANCH   6  12
BRANCH  11  24
ATOM     24  N   UNL     1       0.370   0.907  -4.388  0.00  0.00    -0.191 N 
ATOM     25  C   UNL     1       0.465   2.168  -4.853  0.00  0.00    +0.317 C 
ATOM     26  O   UNL     1       0.567   2.370  -6.048  0.00  0.00    -0.251 OA
ATOM     27  N   UNL     1       0.446   3.206  -3.994  0.00  0.00    -0.312 N 
ATOM     28  H   UNL     1       0.383   0.160  -5.007  0.00  0.00    +0.179 HD
ATOM     29  H   UNL     1       0.365   3.046  -3.041  0.00  0.00    +0.147 HD
ATOM     30  H   UNL     1       0.515   4.114  -4.329  0.00  0.00    +0.147 HD
ENDBRANCH  11  24
TORSDOF 4
