REMARK  Name = ZINC12458570
REMARK  11 active torsions:
REMARK  status: ('A' for Active; 'I' for Inactive)
REMARK    1  A    between atoms: C_1  and  C_2
REMARK    2  A    between atoms: C_5  and  C_10
REMARK    3  A    between atoms: C_10  and  N_11
REMARK    4  A    between atoms: C_12  and  C_14
REMARK    5  A    between atoms: C_14  and  C_15
REMARK    6  A    between atoms: C_22  and  C_23
REMARK    7  A    between atoms: C_22  and  N_59
REMARK    8  A    between atoms: C_27  and  O_31
REMARK    9  A    between atoms: C_28  and  O_29
REMARK   10  A    between atoms: O_29  and  C_30
REMARK   11  A    between atoms: O_31  and  C_32
REMARK                            x       y       z     vdW  Elec       q    Type
REMARK                         _______ _______ _______ _____ _____    ______ ____
ROOT
ATOM      1  C   UNL     1       1.403   3.229  -0.263  0.00  0.00    +0.028 C 
ATOM      2  C   UNL     1       1.567   1.741  -0.388  0.00  0.00    +0.200 C 
ATOM      3  O   UNL     1       2.689   1.279  -0.403  0.00  0.00    -0.278 OA
ATOM      4  N   UNL     1       0.529   0.904  -0.485  0.00  0.00    -0.318 N 
ATOM      5  C   UNL     1      -0.857   1.360  -0.519  0.00  0.00    +0.085 C 
ATOM      6  C   UNL     1      -0.951   2.789   0.024  0.00  0.00    -0.058 C 
ATOM      7  H   UNL     1       0.705  -0.049  -0.538  0.00  0.00    +0.149 HD
ATOM      8  N   UNL     1       0.045   3.612  -0.692  0.00  0.00    +0.391 N 
ATOM      9  H   UNL     1      -0.047   3.447  -1.702  0.00  0.00    -0.080 HD
ENDROOT
BRANCH   1  10
ATOM     10  C   UNL     1       2.423   3.930  -1.163  0.00  0.00    +0.089 C 
BRANCH  10  12
ATOM     11  N   UNL     1       3.007   3.974  -3.566  0.00  0.00    -0.311 N 
ATOM     12  C   UNL     1       2.161   3.563  -2.601  0.00  0.00    +0.212 C 
ATOM     13  O   UNL     1       1.189   2.897  -2.889  0.00  0.00    -0.276 OA
ATOM     14  H   UNL     1       3.784   4.506  -3.335  0.00  0.00    +0.149 HD
BRANCH  11  15
ATOM     15  C   UNL     1       2.752   3.616  -4.964  0.00  0.00    +0.142 C 
BRANCH  15  20
ATOM     16  C   UNL     1       6.910   5.838  -8.311  0.00  0.00    +0.047 C 
ATOM     17  C   UNL     1       5.827   5.257  -7.439  0.00  0.00    -0.012 A 
ATOM     18  C   UNL     1       4.603   5.893  -7.340  0.00  0.00    +0.006 A 
ATOM     19  C   UNL     1       3.608   5.359  -6.544  0.00  0.00    +0.008 A 
ATOM     20  C   UNL     1       3.837   4.194  -5.836  0.00  0.00    +0.008 A 
ATOM     21  C   UNL     1       5.061   3.556  -5.932  0.00  0.00    +0.163 A 
ATOM     22  C   UNL     1       6.058   4.088  -6.735  0.00  0.00    +0.162 A 
ATOM     23  F   UNL     1       7.254   3.467  -6.830  0.00  0.00    -0.202 F 
ATOM     24  F   UNL     1       5.284   2.415  -5.244  0.00  0.00    -0.202 F 
ENDBRANCH  15  20
ENDBRANCH  11  15
ENDBRANCH  10  12
ENDBRANCH   1  10
BRANCH   8  25
ATOM     25  C   UNL     1      -0.188   5.048  -0.415  0.00  0.00    -0.038 C 
BRANCH  25  26
ATOM     26  C   UNL     1      -1.499   5.460  -1.034  0.00  0.00    -0.019 A 
ATOM     27  C   UNL     1      -1.525   5.982  -2.314  0.00  0.00    +0.005 A 
ATOM     28  C   UNL     1      -2.726   6.361  -2.885  0.00  0.00    +0.004 A 
ATOM     29  C   UNL     1      -3.906   6.218  -2.178  0.00  0.00    +0.049 A 
ATOM     30  C   UNL     1      -3.887   5.695  -0.896  0.00  0.00    +0.162 A 
ATOM     31  C   UNL     1      -2.678   5.309  -0.323  0.00  0.00    +0.163 A 
BRANCH  31  32
ATOM     32  O   UNL     1      -2.654   4.790   0.934  0.00  0.00    -0.491 OA
ATOM     33  C   UNL     1      -2.502   5.714   2.014  0.00  0.00    +0.277 C 
ENDBRANCH  31  32
BRANCH  30  34
ATOM     34  O   UNL     1      -5.046   5.553  -0.200  0.00  0.00    -0.491 OA
ATOM     35  C   UNL     1      -6.249   5.965  -0.853  0.00  0.00    +0.277 C 
ENDBRANCH  30  34
ENDBRANCH  25  26
ENDBRANCH   8  25
TORSDOF 8
