REMARK  Name = ZINC39935646
REMARK  5 active torsions:
REMARK  status: ('A' for Active; 'I' for Inactive)
REMARK    1  A    between atoms: C_1  and  S_2
REMARK    2  A    between atoms: S_2  and  C_3
REMARK    3  A    between atoms: C_7  and  C_21
REMARK    4  A    between atoms: N_9  and  N_10
REMARK    5  A    between atoms: C_11  and  C_12
REMARK                            x       y       z     vdW  Elec       q    Type
REMARK                         _______ _______ _______ _____ _____    ______ ____
ROOT
ATOM      1  C   UNL     1      -1.726  -0.262   0.303  0.00  0.00    +0.234 C 
ATOM      2  N   UNL     1      -2.657   0.198   1.358  0.00  0.00    -0.224 NA
ATOM      3  N   UNL     1      -3.317   1.377   0.775  0.00  0.00    -0.229 NA
ATOM      4  C   UNL     1      -3.486   0.994  -0.651  0.00  0.00    +0.206 C 
ATOM      5  N   UNL     1      -2.254   0.244  -0.976  0.00  0.00    -0.205 N 
ATOM      6  H   UNL     1      -3.331  -0.518   1.583  0.00  0.00    +0.144 HD
ATOM      7  H   UNL     1      -4.210   1.546   1.213  0.00  0.00    +0.143 HD
ENDROOT
BRANCH   4   8
ATOM      8  C   UNL     1      -3.603   2.222  -1.517  0.00  0.00    -0.010 A 
ATOM      9  C   UNL     1      -3.308   2.147  -2.865  0.00  0.00    +0.007 A 
ATOM     10  C   UNL     1      -3.415   3.274  -3.660  0.00  0.00    +0.000 A 
ATOM     11  C   UNL     1      -3.817   4.474  -3.105  0.00  0.00    +0.000 A 
ATOM     12  C   UNL     1      -4.113   4.549  -1.757  0.00  0.00    +0.000 A 
ATOM     13  C   UNL     1      -4.010   3.421  -0.964  0.00  0.00    +0.007 A 
ENDBRANCH   4   8
BRANCH   1  15
ATOM     14  C   UNL     1      -0.321   2.208   0.617  0.00  0.00    +0.087 C 
ATOM     15  S   UNL     1      -0.068   0.411   0.601  0.00  0.00    -0.124 S 
ENDBRANCH   1  15
BRANCH   5  16
ATOM     16  N   UNL     1      -1.742   0.068  -2.147  0.00  0.00    -0.188 NA
ATOM     17  C   UNL     1      -0.637  -0.626  -2.282  0.00  0.00    +0.136 C 
BRANCH  17  18
ATOM     18  C   UNL     1      -0.082  -0.817  -3.550  0.00  0.00    +0.000 C 
ATOM     19  C   UNL     1       1.077  -1.528  -3.867  0.00  0.00    +0.004 A 
ATOM     20  C   UNL     1       2.006  -2.237  -3.076  0.00  0.00    +0.010 A 
ATOM     21  C   UNL     1       3.065  -2.847  -3.666  0.00  0.00    +0.001 A 
ATOM     22  C   UNL     1       3.264  -2.793  -5.047  0.00  0.00    +0.002 A 
ATOM     23  C   UNL     1       2.412  -2.131  -5.867  0.00  0.00    +0.026 A 
ATOM     24  C   UNL     1       1.282  -1.468  -5.323  0.00  0.00    +0.043 A 
ATOM     25  N   UNL     1       0.322  -0.768  -5.895  0.00  0.00    -0.380 N 
ATOM     26  C   UNL     1      -0.616  -0.302  -4.869  0.00  0.00    +0.150 C 
ATOM     27  H   UNL     1       0.246  -0.592  -6.846  0.00  0.00    +0.160 HD
ENDBRANCH  17  18
ENDBRANCH   5  16
TORSDOF 4
