REMARK  Name = ZINC54908080
REMARK  8 active torsions:
REMARK  status: ('A' for Active; 'I' for Inactive)
REMARK    1  A    between atoms: C_1  and  C_2
REMARK    2  A    between atoms: C_2  and  N_3
REMARK    3  A    between atoms: N_3  and  C_4
REMARK    4  A    between atoms: C_4  and  C_5
REMARK    5  A    between atoms: N_10  and  C_11
REMARK    6  A    between atoms: N_10  and  C_12
REMARK    7  A    between atoms: C_15  and  C_19
REMARK    8  A    between atoms: C_17  and  C_18
REMARK                            x       y       z     vdW  Elec       q    Type
REMARK                         _______ _______ _______ _____ _____    ______ ____
ROOT
ATOM      1  C   UNL     1      -2.770  -2.503   0.015  0.00  0.00    -0.006 A 
ATOM      2  C   UNL     1      -3.589  -2.802  -1.022  0.00  0.00    +0.122 A 
ATOM      3  N   UNL     1      -4.796  -3.248  -0.726  0.00  0.00    -0.233 NA
ATOM      4  C   UNL     1      -5.178  -3.394   0.525  0.00  0.00    +0.165 A 
ATOM      5  S   UNL     1      -3.825  -2.905   1.398  0.00  0.00    -0.059 S 
ATOM      6  N   UNL     1      -6.398  -3.845   1.007  0.00  0.00    -0.282 N 
ATOM      7  C   UNL     1      -6.627  -3.934   2.451  0.00  0.00    +0.137 C 
ENDROOT
BRANCH   6   8
ATOM      8  C   UNL     1      -7.408  -4.215   0.115  0.00  0.00    +0.038 A 
ATOM      9  C   UNL     1      -7.498  -5.528  -0.329  0.00  0.00    +0.024 A 
ATOM     10  C   UNL     1      -8.498  -5.890  -1.210  0.00  0.00    +0.005 A 
ATOM     11  C   UNL     1      -9.408  -4.947  -1.651  0.00  0.00    -0.050 A 
ATOM     12  C   UNL     1      -9.321  -3.639  -1.212  0.00  0.00    +0.008 A 
ATOM     13  C   UNL     1      -8.327  -3.271  -0.326  0.00  0.00    -0.029 A 
ATOM     14  C   UNL     1      -8.236  -1.847   0.157  0.00  0.00    +0.045 C 
ATOM     15  C   UNL     1     -10.498  -5.346  -2.613  0.00  0.00    +0.044 C 
ENDBRANCH   6   8
BRANCH   1  16
ATOM     16  C   UNL     1      -1.356  -1.981   0.004  0.00  0.00    -0.038 C 
BRANCH  16  17
ATOM     17  N   UNL     1      -1.376  -0.512   0.012  0.00  0.00    +0.382 N 
ATOM     18  H   UNL     1      -1.848  -0.187   0.843  0.00  0.00    -0.085 HD
ATOM     19  H   UNL     1      -1.864  -0.178  -0.805  0.00  0.00    -0.085 HD
BRANCH  17  21
ATOM     20  C   UNL     1      -0.019   1.526   0.010  0.00  0.00    -0.017 C 
ATOM     21  C   UNL     1       0.002  -0.004   0.002  0.00  0.00    -0.086 C 
ENDBRANCH  17  21
ENDBRANCH  16  17
ENDBRANCH   1  16
TORSDOF 4
