REMARK  Name = ZINC20203507
REMARK  6 active torsions:
REMARK  status: ('A' for Active; 'I' for Inactive)
REMARK    1  A    between atoms: C_1  and  C_2
REMARK    2  A    between atoms: C_11  and  C_21
REMARK    3  A    between atoms: C_21  and  N_22
REMARK    4  A    between atoms: N_22  and  C_23
REMARK    5  A    between atoms: C_28  and  C_30
REMARK    6  A    between atoms: C_28  and  C_31
REMARK                            x       y       z     vdW  Elec       q    Type
REMARK                         _______ _______ _______ _____ _____    ______ ____
ROOT
ATOM      1  C   UNL     1       0.346  -0.128  -0.947  0.00  0.00    +0.109 C 
ATOM      2  C   UNL     1      -0.869   0.193  -0.116  0.00  0.00    +0.213 C 
ATOM      3  O   UNL     1      -1.275  -0.609   0.699  0.00  0.00    -0.276 OA
ATOM      4  N   UNL     1      -1.508   1.368  -0.281  0.00  0.00    -0.299 N 
ATOM      5  C   UNL     1      -1.029   2.357  -1.258  0.00  0.00    +0.126 C 
ATOM      6  C   UNL     1      -2.214   2.771  -2.145  0.00  0.00    +0.125 C 
ATOM      7  N   UNL     1      -3.321   3.226  -1.293  0.00  0.00    -0.312 N 
ATOM      8  C   UNL     1      -3.815   2.141  -0.436  0.00  0.00    +0.125 C 
ATOM      9  C   UNL     1      -2.699   1.698   0.516  0.00  0.00    +0.126 C 
ATOM     10  C   UNL     1      -4.347   3.764  -2.057  0.00  0.00    +0.123 A 
ATOM     11  C   UNL     1      -4.755   5.084  -1.822  0.00  0.00    -0.024 A 
ATOM     12  C   UNL     1      -5.758   5.627  -2.567  0.00  0.00    +0.015 A 
ATOM     13  C   UNL     1      -6.365   4.825  -3.555  0.00  0.00    +0.001 A 
ATOM     14  C   UNL     1      -7.407   5.320  -4.355  0.00  0.00    +0.011 A 
ATOM     15  C   UNL     1      -7.970   4.518  -5.301  0.00  0.00    +0.021 A 
ATOM     16  C   UNL     1      -7.525   3.210  -5.485  0.00  0.00    +0.043 A 
ATOM     17  C   UNL     1      -6.517   2.698  -4.725  0.00  0.00    +0.048 A 
ATOM     18  C   UNL     1      -5.912   3.497  -3.740  0.00  0.00    +0.074 A 
ATOM     19  N   UNL     1      -4.918   3.019  -2.981  0.00  0.00    -0.232 NA
ATOM     20 CL   UNL     1      -8.268   2.217  -6.700  0.00  0.00    -0.083 Cl
ENDROOT
BRANCH  11  21
ATOM     21  C   UNL     1      -4.082   5.904  -0.751  0.00  0.00    -0.043 C 
BRANCH  21  22
ATOM     22  N   UNL     1      -2.788   6.390  -1.248  0.00  0.00    +0.384 N 
ATOM     23  H   UNL     1      -2.162   5.534  -1.540  0.00  0.00    -0.085 HD
ATOM     24  H   UNL     1      -2.950   7.039  -2.121  0.00  0.00    -0.085 HD
BRANCH  22  25
ATOM     25  C   UNL     1      -2.082   7.159  -0.214  0.00  0.00    -0.067 C 
ATOM     26  C   UNL     1      -1.291   6.203   0.684  0.00  0.00    +0.012 C 
ATOM     27  C   UNL     1      -0.498   7.019   1.709  0.00  0.00    +0.159 C 
ATOM     28  O   UNL     1       0.363   7.931   1.025  0.00  0.00    -0.374 OA
ATOM     29  C   UNL     1      -0.324   8.880   0.206  0.00  0.00    +0.063 C 
ATOM     30  C   UNL     1      -1.110   8.139  -0.879  0.00  0.00    +0.019 C 
ATOM     31  C   UNL     1       0.692   9.817  -0.450  0.00  0.00    +0.041 C 
ATOM     32  C   UNL     1      -1.288   9.695   1.069  0.00  0.00    +0.041 C 
ENDBRANCH  22  25
ENDBRANCH  21  22
ENDBRANCH  11  21
TORSDOF 3
