REMARK  Name = ZINC47551327
REMARK  6 active torsions:
REMARK  status: ('A' for Active; 'I' for Inactive)
REMARK    1  A    between atoms: C_1  and  C_2
REMARK    2  A    between atoms: C_5  and  N_8
REMARK    3  A    between atoms: N_8  and  C_9
REMARK    4  A    between atoms: N_8  and  C_18
REMARK    5  A    between atoms: C_9  and  C_10
REMARK    6  A    between atoms: C_18  and  C_19
REMARK                            x       y       z     vdW  Elec       q    Type
REMARK                         _______ _______ _______ _____ _____    ______ ____
ROOT
ATOM      1  N   UNL     1      -2.104  -0.116   3.615  0.00  0.00    +0.393 N 
ATOM      2  H   UNL     1      -1.851   0.842   3.419  0.00  0.00    -0.080 HD
ENDROOT
BRANCH   1   7
ATOM      3  C   UNL     1       0.791  -3.562   2.997  0.00  0.00    +0.007 C 
ATOM      4  C   UNL     1       0.140  -3.181   1.665  0.00  0.00    -0.014 C 
ATOM      5  C   UNL     1       0.469  -1.723   1.336  0.00  0.00    +0.002 C 
ATOM      6  C   UNL     1      -0.070  -0.816   2.445  0.00  0.00    -0.015 C 
ATOM      7  C   UNL     1      -1.587  -0.986   2.551  0.00  0.00    -0.067 C 
ATOM      8  C   UNL     1      -1.915  -2.444   2.880  0.00  0.00    -0.015 C 
ATOM      9  C   UNL     1      -1.376  -3.350   1.771  0.00  0.00    +0.002 C 
ENDBRANCH   1   7
BRANCH   1  10
ATOM     10  C   UNL     1      -3.567  -0.233   3.677  0.00  0.00    +0.020 C 
BRANCH  10  11
ATOM     11  C   UNL     1      -4.170   0.333   2.417  0.00  0.00    +0.206 C 
ATOM     12  O   UNL     1      -3.462   0.883   1.601  0.00  0.00    -0.277 OA
ATOM     13  N   UNL     1      -5.495   0.226   2.197  0.00  0.00    -0.226 N 
ATOM     14  C   UNL     1      -6.205   0.728   1.011  0.00  0.00    +0.136 C 
ATOM     15  C   UNL     1      -7.675   0.346   1.272  0.00  0.00    +0.125 C 
ATOM     16  N   UNL     1      -7.637  -0.331   2.577  0.00  0.00    -0.297 N 
ATOM     17  C   UNL     1      -6.374  -0.359   3.022  0.00  0.00    +0.309 C 
ATOM     18  O   UNL     1      -6.054  -0.866   4.079  0.00  0.00    -0.252 OA
ATOM     19  H   UNL     1      -8.404  -0.701   3.041  0.00  0.00    +0.150 HD
ENDBRANCH  10  11
ENDBRANCH   1  10
BRANCH   1  20
ATOM     20  C   UNL     1      -1.525  -0.521   4.903  0.00  0.00    +0.020 C 
BRANCH  20  21
ATOM     21  C   UNL     1      -0.146   0.069   5.042  0.00  0.00    +0.206 C 
ATOM     22  O   UNL     1       0.259   0.865   4.221  0.00  0.00    -0.277 OA
ATOM     23  N   UNL     1       0.638  -0.287   6.079  0.00  0.00    -0.226 N 
ATOM     24  C   UNL     1       1.996   0.217   6.333  0.00  0.00    +0.136 C 
ATOM     25  C   UNL     1       2.423  -0.507   7.625  0.00  0.00    +0.125 C 
ATOM     26  N   UNL     1       1.260  -1.341   7.962  0.00  0.00    -0.297 N 
ATOM     27  C   UNL     1       0.302  -1.152   7.045  0.00  0.00    +0.309 C 
ATOM     28  O   UNL     1      -0.773  -1.718   7.083  0.00  0.00    -0.252 OA
ATOM     29  H   UNL     1       1.196  -1.932   8.728  0.00  0.00    +0.150 HD
ENDBRANCH  20  21
ENDBRANCH   1  20
TORSDOF 5
