REMARK  Name = ZINC63498682
REMARK  5 active torsions:
REMARK  status: ('A' for Active; 'I' for Inactive)
REMARK    1  A    between atoms: C_4  and  N_7
REMARK    2  A    between atoms: N_7  and  C_8
REMARK    3  A    between atoms: C_8  and  C_9
REMARK    4  A    between atoms: N_11  and  N_12
REMARK    5  A    between atoms: C_13  and  C_14
REMARK                            x       y       z     vdW  Elec       q    Type
REMARK                         _______ _______ _______ _____ _____    ______ ____
ROOT
ATOM      1  C   UNL     1       5.069  -2.595  -0.061  0.00  0.00    +0.249 C 
ATOM      2  O   UNL     1       5.979  -1.793  -0.066  0.00  0.00    -0.272 OA
ATOM      3  N   UNL     1       5.335  -3.916  -0.071  0.00  0.00    -0.206 N 
ATOM      4  H   UNL     1       4.608  -4.558  -0.067  0.00  0.00    +0.177 HD
ENDROOT
BRANCH   3   5
ATOM      5  N   UNL     1       6.663  -4.364  -0.086  0.00  0.00    -0.188 NA
ATOM      6  C   UNL     1       6.921  -5.647  -0.096  0.00  0.00    +0.136 C 
BRANCH   6   7
ATOM      7  C   UNL     1       8.250  -6.095  -0.111  0.00  0.00    +0.000 C 
ATOM      8  C   UNL     1       8.694  -7.415  -0.128  0.00  0.00    +0.004 A 
ATOM      9  C   UNL     1       8.011  -8.651  -0.135  0.00  0.00    +0.010 A 
ATOM     10  C   UNL     1       8.717  -9.810  -0.152  0.00  0.00    +0.001 A 
ATOM     11  C   UNL     1      10.115  -9.816  -0.164  0.00  0.00    +0.002 A 
ATOM     12  C   UNL     1      10.835  -8.669  -0.158  0.00  0.00    +0.026 A 
ATOM     13  C   UNL     1      10.167  -7.415  -0.141  0.00  0.00    +0.043 A 
ATOM     14  N   UNL     1      10.628  -6.183  -0.132  0.00  0.00    -0.380 N 
ATOM     15  C   UNL     1       9.502  -5.245  -0.120  0.00  0.00    +0.150 C 
ATOM     16  H   UNL     1      11.566  -5.934  -0.137  0.00  0.00    +0.160 HD
ENDBRANCH   6   7
ENDBRANCH   3   5
BRANCH   1  17
ATOM     17  C   UNL     1       3.641  -2.114  -0.044  0.00  0.00    +0.199 C 
BRANCH  17  18
ATOM     18  N   UNL     1       3.620  -0.649  -0.036  0.00  0.00    -0.335 N 
ATOM     19  H   UNL     1       4.452  -0.152  -0.042  0.00  0.00    +0.147 HD
BRANCH  18  23
ATOM     20  C   UNL     1      -0.017   1.379   0.010  0.00  0.00    +0.000 A 
ATOM     21  C   UNL     1       1.169   2.089   0.002  0.00  0.00    +0.002 A 
ATOM     22  C   UNL     1       2.377   1.420  -0.013  0.00  0.00    +0.023 A 
ATOM     23  C   UNL     1       2.400   0.031  -0.021  0.00  0.00    +0.027 A 
ATOM     24  C   UNL     1       1.206  -0.680  -0.013  0.00  0.00    +0.023 A 
ATOM     25  C   UNL     1       0.002  -0.004   0.002  0.00  0.00    +0.002 A 
ENDBRANCH  18  23
ENDBRANCH  17  18
ENDBRANCH   1  17
TORSDOF 5
