REMARK  Name = ZINC33507344
REMARK  7 active torsions:
REMARK  status: ('A' for Active; 'I' for Inactive)
REMARK    1  A    between atoms: C_1  and  C_2
REMARK    2  A    between atoms: C_7  and  C_16
REMARK    3  A    between atoms: C_8  and  C_11
REMARK    4  A    between atoms: C_11  and  C_13
REMARK    5  A    between atoms: C_11  and  C_14
REMARK    6  A    between atoms: C_14  and  N_15
REMARK    7  A    between atoms: C_20  and  N_22
REMARK                            x       y       z     vdW  Elec       q    Type
REMARK                         _______ _______ _______ _____ _____    ______ ____
ROOT
ATOM      1  C   UNL     1      -1.772  11.012  -2.972  0.00  0.00    +0.045 C 
ATOM      2  C   UNL     1      -1.121  10.069  -1.993  0.00  0.00    -0.034 A 
ATOM      3  C   UNL     1      -0.139  10.548  -1.109  0.00  0.00    +0.008 A 
ATOM      4  C   UNL     1       0.447   9.695  -0.226  0.00  0.00    +0.047 A 
ATOM      5  C   UNL     1       0.058   8.340  -0.213  0.00  0.00    +0.138 A 
ATOM      6  N   UNL     1       0.451   7.311   0.522  0.00  0.00    -0.228 NA
ATOM      7  C   UNL     1      -0.230   6.216   0.146  0.00  0.00    +0.093 A 
ATOM      8  C   UNL     1      -1.077   6.566  -0.863  0.00  0.00    +0.052 A 
ATOM      9  N   UNL     1      -0.903   7.902  -1.088  0.00  0.00    -0.303 N 
ATOM     10  C   UNL     1      -1.482   8.770  -1.969  0.00  0.00    +0.096 A 
ENDROOT
BRANCH   7  11
ATOM     11  C   UNL     1      -0.081   4.858   0.725  0.00  0.00    +0.004 A 
ATOM     12  C   UNL     1       0.501   3.838  -0.025  0.00  0.00    +0.010 A 
ATOM     13  C   UNL     1       0.641   2.578   0.520  0.00  0.00    +0.003 A 
ATOM     14  C   UNL     1       0.196   2.324   1.805  0.00  0.00    +0.033 A 
ATOM     15  C   UNL     1      -0.382   3.333   2.554  0.00  0.00    +0.127 A 
ATOM     16  C   UNL     1      -0.523   4.598   2.021  0.00  0.00    +0.042 A 
BRANCH  15  17
ATOM     17  N   UNL     1      -0.851   3.055   3.930  0.00  0.00    +0.056 N 
ATOM     18  O   UNL     1      -0.728   1.939   4.402  0.00  0.00    -0.126 OA
ATOM     19  O   UNL     1      -1.361   3.942   4.591  0.00  0.00    -0.126 OA
ENDBRANCH  15  17
ENDBRANCH   7  11
BRANCH   8  20
ATOM     20  C   UNL     1      -2.027   5.651  -1.590  0.00  0.00    +0.018 C 
ATOM     21  C   UNL     1      -2.874   4.882  -0.574  0.00  0.00    +0.012 C 
BRANCH  20  22
ATOM     22  C   UNL     1      -1.231   4.661  -2.443  0.00  0.00    -0.077 C 
BRANCH  22  23
ATOM     23  N   UNL     1      -0.380   5.400  -3.385  0.00  0.00    +0.379 N 
ATOM     24  H   UNL     1       0.193   4.689  -3.998  0.00  0.00    -0.090 HD
ATOM     25  H   UNL     1       0.315   6.043  -2.824  0.00  0.00    -0.090 HD
ATOM     26  H   UNL     1      -1.010   6.023  -4.037  0.00  0.00    -0.090 HD
ENDBRANCH  22  23
ENDBRANCH  20  22
ENDBRANCH   8  20
TORSDOF 5
