REMARK  Name = ZINC49528686
REMARK  9 active torsions:
REMARK  status: ('A' for Active; 'I' for Inactive)
REMARK    1  A    between atoms: C_1  and  C_2
REMARK    2  A    between atoms: C_2  and  C_3
REMARK    3  A    between atoms: C_3  and  C_5
REMARK    4  A    between atoms: C_3  and  N_10
REMARK    5  A    between atoms: N_10  and  S_11
REMARK    6  A    between atoms: S_11  and  C_14
REMARK    7  A    between atoms: C_16  and  C_22
REMARK    8  A    between atoms: C_17  and  C_21
REMARK    9  A    between atoms: C_18  and  N_20
REMARK                            x       y       z     vdW  Elec       q    Type
REMARK                         _______ _______ _______ _____ _____    ______ ____
ROOT
ATOM      1  S   UNL     1       0.213   1.244  -3.337  0.00  0.00    +0.059 S 
ATOM      2  O   UNL     1      -0.718   1.336  -4.407  0.00  0.00    -0.153 OA
ATOM      3  O   UNL     1       0.427   2.309  -2.420  0.00  0.00    -0.153 OA
ENDROOT
BRANCH   1   4
ATOM      4  C   UNL     1       1.778   0.881  -4.061  0.00  0.00    +0.107 A 
ATOM      5  C   UNL     1       2.942   1.201  -3.386  0.00  0.00    +0.032 A 
ATOM      6  C   UNL     1       4.172   0.917  -3.950  0.00  0.00    -0.044 A 
ATOM      7  C   UNL     1       4.242   0.313  -5.190  0.00  0.00    -0.027 A 
ATOM      8  C   UNL     1       3.075  -0.010  -5.870  0.00  0.00    +0.030 A 
ATOM      9  C   UNL     1       1.841   0.271  -5.298  0.00  0.00    +0.051 A 
ATOM     10  C   UNL     1       5.583   0.005  -5.805  0.00  0.00    +0.046 C 
ATOM     11  C   UNL     1       5.438   1.269  -3.212  0.00  0.00    +0.044 C 
BRANCH   8  12
ATOM     12  N   UNL     1       3.142  -0.621  -7.125  0.00  0.00    -0.358 N 
ATOM     13  H   UNL     1       4.004  -0.820  -7.522  0.00  0.00    +0.142 HD
ATOM     14  H   UNL     1       2.326  -0.846  -7.599  0.00  0.00    +0.142 HD
ENDBRANCH   8  12
ENDBRANCH   1   4
BRANCH   1  15
ATOM     15  N   UNL     1      -0.229  -0.074  -2.438  0.00  0.00    -0.182 NA
ATOM     16  H   UNL     1      -1.007  -0.595  -2.690  0.00  0.00    +0.149 HD
BRANCH  15  17
ATOM     17  C   UNL     1       0.556  -0.454  -1.260  0.00  0.00    +0.113 C 
BRANCH  17  18
ATOM     18  C   UNL     1       1.209  -1.790  -1.502  0.00  0.00    +0.008 A 
ATOM     19  C   UNL     1       2.454  -2.206  -1.161  0.00  0.00    +0.013 A 
ATOM     20  C   UNL     1       2.844  -3.491  -1.487  0.00  0.00    +0.008 A 
ATOM     21  C   UNL     1       1.971  -4.297  -2.139  0.00  0.00    +0.045 A 
ATOM     22  S   UNL     1       0.543  -3.239  -2.304  0.00  0.00    -0.100 S 
ENDBRANCH  17  18
BRANCH  17  24
ATOM     23  C   UNL     1      -0.924   0.837   0.284  0.00  0.00    +0.006 C 
ATOM     24  C   UNL     1      -0.365  -0.549  -0.042  0.00  0.00    +0.022 C 
ENDBRANCH  17  24
ENDBRANCH  15  17
ENDBRANCH   1  15
TORSDOF 6
