REMARK  Name = ZINC39603780
REMARK  6 active torsions:
REMARK  status: ('A' for Active; 'I' for Inactive)
REMARK    1  A    between atoms: C_1  and  O_2
REMARK    2  A    between atoms: O_2  and  C_3
REMARK    3  A    between atoms: C_3  and  C_4
REMARK    4  A    between atoms: C_4  and  N_5
REMARK    5  A    between atoms: C_6  and  C_8
REMARK    6  A    between atoms: C_19  and  C_21
REMARK                            x       y       z     vdW  Elec       q    Type
REMARK                         _______ _______ _______ _____ _____    ______ ____
ROOT
ATOM      1  C   UNL     1       2.296  -4.277  -1.669  0.00  0.00    +0.100 C 
ATOM      2  C   UNL     1       3.754  -3.777  -1.566  0.00  0.00    +0.121 C 
ATOM      3  N   UNL     1       4.500  -4.914  -0.977  0.00  0.00    -0.300 N 
ATOM      4  C   UNL     1       3.916  -6.113  -1.625  0.00  0.00    +0.115 C 
ATOM      5  C   UNL     1       2.407  -5.811  -1.711  0.00  0.00    -0.004 C 
ATOM      6  C   UNL     1       1.835  -6.346  -3.020  0.00  0.00    -0.010 C 
ATOM      7  C   UNL     1       1.902  -7.876  -3.014  0.00  0.00    -0.082 C 
ATOM      8  N   UNL     1       1.138  -8.397  -1.874  0.00  0.00    +0.379 N 
ATOM      9  C   UNL     1       1.751  -7.953  -0.616  0.00  0.00    -0.082 C 
ATOM     10  C   UNL     1       1.677  -6.426  -0.521  0.00  0.00    -0.010 C 
ATOM     11  C   UNL     1       5.486  -4.869  -0.059  0.00  0.00    +0.219 C 
ATOM     12  O   UNL     1       6.002  -5.896   0.327  0.00  0.00    -0.275 OA
ATOM     13  H   UNL     1       0.190  -8.056  -1.923  0.00  0.00    -0.086 HD
ATOM     14  H   UNL     1       1.133  -9.405  -1.906  0.00  0.00    -0.086 HD
ENDROOT
BRANCH  11  15
ATOM     15  C   UNL     1       5.947  -3.542   0.487  0.00  0.00    +0.079 C 
ATOM     16  C   UNL     1       6.479  -2.675  -0.658  0.00  0.00    +0.041 C 
ATOM     17  C   UNL     1       7.017  -1.361  -0.084  0.00  0.00    +0.160 C 
ATOM     18  O   UNL     1       8.035  -1.645   0.878  0.00  0.00    -0.380 OA
ATOM     19  C   UNL     1       7.583  -2.413   1.995  0.00  0.00    +0.160 C 
ATOM     20  C   UNL     1       7.068  -3.769   1.505  0.00  0.00    +0.041 C 
ENDBRANCH  11  15
BRANCH   1  22
ATOM     21  N   UNL     1       0.175  -3.647  -0.562  0.00  0.00    -0.313 N 
ATOM     22  C   UNL     1       1.505  -3.841  -0.462  0.00  0.00    +0.218 C 
ATOM     23  O   UNL     1       2.066  -3.666   0.599  0.00  0.00    -0.275 OA
ATOM     24  H   UNL     1      -0.273  -3.787  -1.411  0.00  0.00    +0.149 HD
BRANCH  21  25
ATOM     25  C   UNL     1      -0.593  -3.223   0.610  0.00  0.00    +0.132 C 
BRANCH  25  26
ATOM     26  C   UNL     1      -2.067  -3.076   0.228  0.00  0.00    +0.178 C 
BRANCH  26  28
ATOM     27  C   UNL     1      -3.975  -4.328  -0.505  0.00  0.00    +0.194 C 
ATOM     28  O   UNL     1      -2.597  -4.354  -0.129  0.00  0.00    -0.381 OA
ENDBRANCH  26  28
ENDBRANCH  25  26
ENDBRANCH  21  25
ENDBRANCH   1  22
TORSDOF 5
