REMARK  Name = ZINC37950572
REMARK  6 active torsions:
REMARK  status: ('A' for Active; 'I' for Inactive)
REMARK    1  A    between atoms: C_1  and  C_2
REMARK    2  A    between atoms: C_2  and  C_3
REMARK    3  A    between atoms: C_2  and  C_10
REMARK    4  A    between atoms: C_2  and  N_13
REMARK    5  A    between atoms: N_13  and  C_14
REMARK    6  A    between atoms: C_14  and  C_15
REMARK                            x       y       z     vdW  Elec       q    Type
REMARK                         _______ _______ _______ _____ _____    ______ ____
ROOT
ATOM      1  C   UNL     1      -0.019   1.526   0.010  0.00  0.00    +0.004 C 
ATOM      2  C   UNL     1       0.002  -0.004   0.002  0.00  0.00    +0.033 C 
ENDROOT
BRANCH   2   3
ATOM      3  C   UNL     1       0.731  -0.503   1.223  0.00  0.00    -0.050 A 
ATOM      4  C   UNL     1       0.080  -1.317   2.132  0.00  0.00    +0.004 A 
ATOM      5  C   UNL     1       0.748  -1.775   3.251  0.00  0.00    +0.015 A 
ATOM      6  C   UNL     1       2.068  -1.420   3.462  0.00  0.00    +0.018 A 
ATOM      7  C   UNL     1       2.719  -0.606   2.553  0.00  0.00    +0.015 A 
ATOM      8  C   UNL     1       2.052  -0.152   1.431  0.00  0.00    +0.004 A 
ATOM      9 BR   UNL     1       2.983  -2.046   4.995  0.00  0.00    -0.050 Br
ENDBRANCH   2   3
BRANCH   2  10
ATOM     10  C   UNL     1       0.707  -0.490  -1.238  0.00  0.00    +0.204 C 
ATOM     11  O   UNL     1       1.522   0.219  -1.790  0.00  0.00    -0.277 OA
ATOM     12  N   UNL     1       0.433  -1.713  -1.733  0.00  0.00    -0.330 N 
ATOM     13  H   UNL     1      -0.218  -2.281  -1.292  0.00  0.00    +0.145 HD
ATOM     14  H   UNL     1       0.888  -2.026  -2.531  0.00  0.00    +0.145 HD
ENDBRANCH   2  10
BRANCH   2  15
ATOM     15  N   UNL     1      -1.376  -0.512   0.012  0.00  0.00    +0.393 N 
ATOM     16  H   UNL     1      -1.362  -1.521   0.007  0.00  0.00    -0.084 HD
ATOM     17  H   UNL     1      -1.848  -0.187   0.843  0.00  0.00    -0.084 HD
BRANCH  15  18
ATOM     18  C   UNL     1      -2.087  -0.026  -1.178  0.00  0.00    -0.049 C 
BRANCH  18  19
ATOM     19  C   UNL     1      -3.522  -0.555  -1.167  0.00  0.00    +0.101 C 
ATOM     20  C   UNL     1      -4.240  -0.150  -2.472  0.00  0.00    +0.032 C 
ATOM     21  C   UNL     1      -5.666   0.203  -1.968  0.00  0.00    +0.030 C 
ATOM     22  C   UNL     1      -5.346   0.803  -0.576  0.00  0.00    +0.160 C 
ATOM     23  O   UNL     1      -4.245   0.024  -0.075  0.00  0.00    -0.378 OA
ENDBRANCH  18  19
ENDBRANCH  15  18
ENDBRANCH   2  15
TORSDOF 5
