REMARK  Name = ZINC08934402
REMARK  10 active torsions:
REMARK  status: ('A' for Active; 'I' for Inactive)
REMARK    1  A    between atoms: C_1  and  C_2
REMARK    2  A    between atoms: C_2  and  C_3
REMARK    3  A    between atoms: C_2  and  C_4
REMARK    4  A    between atoms: C_2  and  O_5
REMARK    5  A    between atoms: O_5  and  C_6
REMARK    6  A    between atoms: C_15  and  C_27
REMARK    7  A    between atoms: C_17  and  C_23
REMARK    8  A    between atoms: C_17  and  C_25
REMARK    9  A    between atoms: C_18  and  N_22
REMARK   10  A    between atoms: C_19  and  C_20
REMARK                            x       y       z     vdW  Elec       q    Type
REMARK                         _______ _______ _______ _____ _____    ______ ____
ROOT
ATOM      1  C   UNL     1       1.704   2.712   1.418  0.00  0.00    +0.404 C 
ATOM      2  O   UNL     1       1.752   3.846   1.852  0.00  0.00    -0.226 OA
ATOM      3  N   UNL     1       0.820   2.398   0.450  0.00  0.00    -0.263 N 
ATOM      4  C   UNL     1       0.735   1.032  -0.099  0.00  0.00    +0.138 C 
ATOM      5  C   UNL     1      -0.692   0.575   0.067  0.00  0.00    -0.003 C 
ATOM      6  C   UNL     1      -1.688   1.438   0.104  0.00  0.00    -0.026 C 
ATOM      7  C   UNL     1      -1.530   2.921  -0.042  0.00  0.00    +0.048 C 
ATOM      8  C   UNL     1      -0.098   3.400  -0.102  0.00  0.00    +0.120 C 
ATOM      9  C   UNL     1      -2.313   3.606   1.080  0.00  0.00    +0.068 C 
ATOM     10  C   UNL     1      -3.799   3.280   0.917  0.00  0.00    +0.188 C 
ATOM     11  C   UNL     1      -4.027   1.807   0.760  0.00  0.00    +0.054 C 
ATOM     12  C   UNL     1      -3.062   0.935   0.376  0.00  0.00    +0.074 C 
ENDROOT
BRANCH   9  13
ATOM     13  C   UNL     1      -1.827   3.103   2.414  0.00  0.00    -0.041 A 
ATOM     14  C   UNL     1      -2.294   1.901   2.912  0.00  0.00    +0.005 A 
ATOM     15  C   UNL     1      -1.844   1.437   4.134  0.00  0.00    +0.015 A 
ATOM     16  C   UNL     1      -0.936   2.182   4.864  0.00  0.00    +0.018 A 
ATOM     17  C   UNL     1      -0.473   3.387   4.369  0.00  0.00    +0.015 A 
ATOM     18  C   UNL     1      -0.919   3.848   3.144  0.00  0.00    +0.005 A 
ATOM     19 BR   UNL     1      -0.326   1.551   6.539  0.00  0.00    -0.050 Br
ENDBRANCH   9  13
BRANCH  11  20
ATOM     20  N   UNL     1      -5.276   1.316   1.020  0.00  0.00    -0.358 N 
ATOM     21  H   UNL     1      -5.476   0.240   0.915  0.00  0.00    +0.142 HD
ATOM     22  H   UNL     1      -6.080   1.997   1.335  0.00  0.00    +0.142 HD
ENDBRANCH  11  20
BRANCH  12  23
ATOM     23  C   UNL     1      -3.364  -0.457   0.227  0.00  0.00    +0.101 C 
ATOM     24  N   UNL     1      -3.604  -1.561   0.108  0.00  0.00    -0.191 NA
ENDBRANCH  12  23
BRANCH  10  25
ATOM     25  C   UNL     1      -4.528   3.756   2.103  0.00  0.00    +0.091 C 
ATOM     26  N   UNL     1      -5.091   4.124   3.019  0.00  0.00    -0.194 NA
ENDBRANCH  10  25
BRANCH  10  27
ATOM     27  C   UNL     1      -4.315   3.975  -0.274  0.00  0.00    +0.091 C 
ATOM     28  N   UNL     1      -4.714   4.512  -1.192  0.00  0.00    -0.194 NA
ENDBRANCH  10  27
BRANCH   1  29
ATOM     29  O   UNL     1       2.533   1.769   1.905  0.00  0.00    -0.445 OA
BRANCH  29  31
ATOM     30  C   UNL     1       2.671   2.697   4.152  0.00  0.00    +0.055 C 
ATOM     31  C   UNL     1       3.458   2.179   2.946  0.00  0.00    +0.107 C 
ATOM     32  C   UNL     1       4.311   0.982   3.370  0.00  0.00    +0.055 C 
ATOM     33  C   UNL     1       4.365   3.290   2.414  0.00  0.00    +0.055 C 
ENDBRANCH  29  31
ENDBRANCH   1  29
TORSDOF 7
