REMARK  Name = ZINC35679377
REMARK  7 active torsions:
REMARK  status: ('A' for Active; 'I' for Inactive)
REMARK    1  A    between atoms: C_1  and  C_2
REMARK    2  A    between atoms: C_2  and  N_3
REMARK    3  A    between atoms: N_6  and  S_9
REMARK    4  A    between atoms: S_9  and  C_12
REMARK    5  A    between atoms: C_15  and  C_17
REMARK    6  A    between atoms: C_17  and  C_18
REMARK    7  A    between atoms: C_18  and  N_19
REMARK                            x       y       z     vdW  Elec       q    Type
REMARK                         _______ _______ _______ _____ _____    ______ ____
ROOT
ATOM      1  S   UNL     1      -4.589  -3.017  -1.580  0.00  0.00    +0.067 S 
ATOM      2  O   UNL     1      -4.898  -4.089  -0.700  0.00  0.00    -0.152 OA
ATOM      3  O   UNL     1      -5.594  -2.235  -2.212  0.00  0.00    -0.152 OA
ENDROOT
BRANCH   1   7
ATOM      4  N   UNL     1      -1.376  -0.512   0.012  0.00  0.00    -0.300 NA
ATOM      5  C   UNL     1      -2.077  -0.159  -1.229  0.00  0.00    +0.101 C 
ATOM      6  C   UNL     1      -3.555  -0.545  -1.105  0.00  0.00    +0.125 C 
ATOM      7  N   UNL     1      -3.637  -1.964  -0.728  0.00  0.00    -0.174 NA
ATOM      8  C   UNL     1      -2.850  -2.424   0.427  0.00  0.00    +0.125 C 
ATOM      9  C   UNL     1      -1.400  -1.963   0.243  0.00  0.00    +0.101 C 
BRANCH   4  11
ATOM     10  C   UNL     1      -0.019   1.526   0.010  0.00  0.00    +0.020 C 
ATOM     11  C   UNL     1       0.002  -0.004   0.002  0.00  0.00    +0.081 C 
ENDBRANCH   4  11
ENDBRANCH   1   7
BRANCH   1  12
ATOM     12  C   UNL     1      -3.595  -3.694  -2.868  0.00  0.00    +0.143 A 
ATOM     13  C   UNL     1      -2.823  -4.808  -2.854  0.00  0.00    +0.036 A 
ATOM     14  C   UNL     1      -2.122  -5.152  -3.995  0.00  0.00    +0.013 A 
ATOM     15  C   UNL     1      -2.226  -4.364  -5.093  0.00  0.00    -0.010 A 
ATOM     16  S   UNL     1      -3.348  -3.094  -4.531  0.00  0.00    -0.074 S 
BRANCH  15  17
ATOM     17  C   UNL     1      -1.570  -4.522  -6.440  0.00  0.00    +0.023 C 
BRANCH  17  18
ATOM     18  C   UNL     1      -2.470  -5.359  -7.351  0.00  0.00    -0.081 C 
BRANCH  18  19
ATOM     19  N   UNL     1      -1.831  -5.513  -8.664  0.00  0.00    +0.378 N 
ATOM     20  H   UNL     1      -2.425  -6.065  -9.265  0.00  0.00    -0.090 HD
ATOM     21  H   UNL     1      -1.686  -4.604  -9.077  0.00  0.00    -0.090 HD
ATOM     22  H   UNL     1      -0.942  -5.977  -8.553  0.00  0.00    -0.090 HD
ENDBRANCH  18  19
ENDBRANCH  17  18
ENDBRANCH  15  17
ENDBRANCH   1  12
TORSDOF 6
