REMARK  Name = ZINC00092027
REMARK  4 active torsions:
REMARK  status: ('A' for Active; 'I' for Inactive)
REMARK    1  A    between atoms: N_6  and  C_7
REMARK    2  A    between atoms: C_7  and  C_9
REMARK    3  A    between atoms: C_7  and  C_20
REMARK    4  A    between atoms: C_18  and  O_19
REMARK                            x       y       z     vdW  Elec       q    Type
REMARK                         _______ _______ _______ _____ _____    ______ ____
ROOT
ATOM      1  C   UNL     1      -1.338   2.086   0.020  0.00  0.00    +0.172 C 
ENDROOT
BRANCH   1   2
ATOM      2  C   UNL     1      -0.034   1.336  -0.073  0.00  0.00    +0.024 A 
ATOM      3  C   UNL     1       1.167   2.036   0.015  0.00  0.00    +0.010 A 
ATOM      4  C   UNL     1       2.362   1.389  -0.070  0.00  0.00    +0.010 A 
ATOM      5  C   UNL     1       2.389  -0.004  -0.249  0.00  0.00    +0.004 A 
ATOM      6  C   UNL     1       3.605  -0.707  -0.342  0.00  0.00    +0.011 A 
ATOM      7  C   UNL     1       3.554  -2.061  -0.516  0.00  0.00    +0.020 A 
ATOM      8  C   UNL     1       2.322  -2.706  -0.597  0.00  0.00    +0.111 A 
ATOM      9  N   UNL     1       1.192  -2.047  -0.510  0.00  0.00    -0.251 NA
ATOM     10  C   UNL     1       1.171  -0.722  -0.340  0.00  0.00    +0.113 A 
ATOM     11  C   UNL     1      -0.048  -0.018  -0.247  0.00  0.00    +0.148 A 
BRANCH  11  12
ATOM     12  O   UNL     1      -1.229  -0.684  -0.331  0.00  0.00    -0.504 OA
ATOM     13  H   UNL     1      -1.572  -0.764  -1.232  0.00  0.00    +0.292 HD
ENDBRANCH  11  12
ENDBRANCH   1   2
BRANCH   1  19
ATOM     14  C   UNL     1      -4.561   4.354  -1.421  0.00  0.00    +0.005 A 
ATOM     15  C   UNL     1      -4.328   5.653  -1.851  0.00  0.00    +0.018 A 
ATOM     16  C   UNL     1      -3.047   6.165  -1.795  0.00  0.00    +0.084 A 
ATOM     17  C   UNL     1      -2.228   4.193  -0.919  0.00  0.00    +0.097 A 
ATOM     18  C   UNL     1      -3.492   3.614  -0.947  0.00  0.00    +0.041 A 
ATOM     19  N   UNL     1      -1.145   3.461  -0.446  0.00  0.00    -0.317 N 
ATOM     20  H   UNL     1      -0.261   3.861  -0.425  0.00  0.00    +0.148 HD
ATOM     21  N   UNL     1      -1.975   5.469  -1.331  0.00  0.00    -0.350 N 
ATOM     22  H   UNL     1      -1.034   5.878  -1.292  0.00  0.00    +0.166 HD
ENDBRANCH   1  19
BRANCH   1  23
ATOM     23  C   UNL     1      -1.808   2.102   1.452  0.00  0.00    +0.130 A 
ATOM     24  C   UNL     1      -2.748   1.297   1.980  0.00  0.00    +0.047 A 
ATOM     25  C   UNL     1      -2.871   1.651   3.343  0.00  0.00    +0.041 A 
ATOM     26  C   UNL     1      -2.004   2.656   3.564  0.00  0.00    +0.195 A 
ATOM     27  O   UNL     1      -1.363   2.925   2.415  0.00  0.00    -0.466 OA
ENDBRANCH   1  23
TORSDOF 4
