REMARK  Name = ZINC57845439
REMARK  7 active torsions:
REMARK  status: ('A' for Active; 'I' for Inactive)
REMARK    1  A    between atoms: C_1  and  C_2
REMARK    2  A    between atoms: C_2  and  C_3
REMARK    3  A    between atoms: C_3  and  C_15
REMARK    4  A    between atoms: N_6  and  C_10
REMARK    5  A    between atoms: C_10  and  C_12
REMARK    6  A    between atoms: C_10  and  C_13
REMARK    7  A    between atoms: C_13  and  N_14
REMARK                            x       y       z     vdW  Elec       q    Type
REMARK                         _______ _______ _______ _____ _____    ______ ____
ROOT
ATOM      1  C   UNL     1      -1.433  -0.534   0.013  0.00  0.00    +0.138 C 
ATOM      2  C   UNL     1      -2.205   0.042   1.184  0.00  0.00    +0.251 C 
ATOM      3  O   UNL     1      -1.958  -0.098   2.363  0.00  0.00    -0.272 OA
ATOM      4  N   UNL     1      -3.222   0.740   0.642  0.00  0.00    -0.223 N 
ATOM      5  C   UNL     1      -3.200   0.687  -0.695  0.00  0.00    +0.310 C 
ATOM      6  O   UNL     1      -4.016   1.240  -1.406  0.00  0.00    -0.252 OA
ATOM      7  N   UNL     1      -2.175  -0.046  -1.163  0.00  0.00    -0.281 N 
ATOM      8  H   UNL     1      -1.964  -0.220  -2.094  0.00  0.00    +0.152 HD
ENDROOT
BRANCH   1   9
ATOM      9  C   UNL     1      -1.441  -2.040   0.057  0.00  0.00    -0.015 A 
ATOM     10  C   UNL     1      -0.413  -2.720   0.684  0.00  0.00    +0.006 A 
ATOM     11  C   UNL     1      -0.425  -4.099   0.718  0.00  0.00    +0.004 A 
ATOM     12  C   UNL     1      -1.463  -4.811   0.129  0.00  0.00    -0.044 A 
ATOM     13  C   UNL     1      -2.489  -4.133  -0.491  0.00  0.00    -0.044 A 
ATOM     14  C   UNL     1      -2.475  -2.744  -0.522  0.00  0.00    +0.010 A 
ATOM     15  C   UNL     1      -3.653  -4.838  -1.136  0.00  0.00    +0.035 C 
ATOM     16  C   UNL     1      -3.318  -6.306  -1.391  0.00  0.00    +0.005 C 
ATOM     17  C   UNL     1      -2.785  -6.914  -0.088  0.00  0.00    +0.005 C 
ATOM     18  C   UNL     1      -1.409  -6.315   0.196  0.00  0.00    +0.035 C 
ENDBRANCH   1   9
BRANCH   1  20
ATOM     19  C   UNL     1      -0.019   1.526   0.010  0.00  0.00    +0.007 C 
ATOM     20  C   UNL     1       0.002  -0.004   0.002  0.00  0.00    +0.037 C 
ENDBRANCH   1  20
BRANCH   4  21
ATOM     21  C   UNL     1      -4.228   1.468   1.421  0.00  0.00    +0.065 C 
ATOM     22  C   UNL     1      -4.182   2.952   1.053  0.00  0.00    +0.026 C 
BRANCH  21  23
ATOM     23  C   UNL     1      -5.617   0.908   1.109  0.00  0.00    -0.063 C 
BRANCH  23  24
ATOM     24  N   UNL     1      -5.626  -0.541   1.349  0.00  0.00    +0.379 N 
ATOM     25  H   UNL     1      -4.943  -0.985   0.753  0.00  0.00    -0.090 HD
ATOM     26  H   UNL     1      -5.399  -0.724   2.315  0.00  0.00    -0.090 HD
ATOM     27  H   UNL     1      -6.542  -0.911   1.143  0.00  0.00    -0.090 HD
ENDBRANCH  23  24
ENDBRANCH  21  23
ENDBRANCH   4  21
TORSDOF 5
