REMARK  Name = ZINC09434761
REMARK  6 active torsions:
REMARK  status: ('A' for Active; 'I' for Inactive)
REMARK    1  A    between atoms: C_1  and  C_2
REMARK    2  A    between atoms: C_3  and  C_10
REMARK    3  A    between atoms: C_7  and  C_8
REMARK    4  A    between atoms: C_13  and  C_15
REMARK    5  A    between atoms: N_22  and  C_25
REMARK    6  A    between atoms: C_30  and  C_31
REMARK                            x       y       z     vdW  Elec       q    Type
REMARK                         _______ _______ _______ _____ _____    ______ ____
ROOT
ATOM      1  C   UNL     1      -2.065   3.075   0.015  0.00  0.00    +0.064 C 
ATOM      2  C   UNL     1      -1.726   4.421   0.131  0.00  0.00    +0.103 C 
ATOM      3  C   UNL     1      -0.323   4.853   0.241  0.00  0.00    +0.255 C 
ATOM      4  O   UNL     1       0.584   4.041   0.232  0.00  0.00    -0.270 OA
ATOM      5  N   UNL     1      -0.069   6.174   0.346  0.00  0.00    -0.263 N 
ATOM      6  C   UNL     1      -1.058   7.078   0.362  0.00  0.00    +0.150 C 
ATOM      7  S   UNL     1      -0.642   8.733   0.505  0.00  0.00    -0.018 S 
ATOM      8  N   UNL     1      -2.356   6.755   0.271  0.00  0.00    -0.217 N 
ATOM      9  C   UNL     1      -2.756   5.472   0.156  0.00  0.00    +0.262 C 
ATOM     10  O   UNL     1      -3.938   5.192   0.075  0.00  0.00    -0.269 OA
ATOM     11  H   UNL     1       0.851   6.476   0.416  0.00  0.00    +0.157 HD
ENDROOT
BRANCH   8  12
ATOM     12  C   UNL     1      -3.318   7.773   0.297  0.00  0.00    +0.048 A 
ATOM     13  C   UNL     1      -3.861   8.187   1.506  0.00  0.00    +0.024 A 
ATOM     14  C   UNL     1      -4.806   9.194   1.529  0.00  0.00    +0.003 A 
ATOM     15  C   UNL     1      -5.219   9.784   0.348  0.00  0.00    +0.020 A 
ATOM     16  C   UNL     1      -4.684   9.371  -0.859  0.00  0.00    +0.046 A 
ATOM     17  C   UNL     1      -3.734   8.367  -0.887  0.00  0.00    -0.010 A 
ATOM     18  C   UNL     1      -3.150   7.917  -2.202  0.00  0.00    +0.047 C 
ATOM     19 CL   UNL     1      -5.205  10.114  -2.338  0.00  0.00    -0.083 Cl
ENDBRANCH   8  12
BRANCH   1  23
ATOM     20  C   UNL     1       0.763   1.175  -0.997  0.00  0.00    +0.136 A 
ATOM     21  C   UNL     1       0.116   0.227  -0.231  0.00  0.00    +0.050 A 
ATOM     22  C   UNL     1      -1.049   0.818   0.252  0.00  0.00    +0.050 A 
ATOM     23  C   UNL     1      -1.068   2.121  -0.232  0.00  0.00    +0.129 A 
ATOM     24  O   UNL     1       0.037   2.306  -0.985  0.00  0.00    -0.455 OA
BRANCH  20  27
ATOM     25  C   UNL     1       0.965   1.906  -3.788  0.00  0.00    +0.045 C 
ATOM     26  C   UNL     1       2.150   1.329  -3.056  0.00  0.00    -0.026 A 
ATOM     27  C   UNL     1       2.040   0.980  -1.710  0.00  0.00    +0.021 A 
ATOM     28  C   UNL     1       3.145   0.450  -1.037  0.00  0.00    +0.012 A 
ATOM     29  C   UNL     1       4.339   0.262  -1.704  0.00  0.00    +0.002 A 
ATOM     30  C   UNL     1       4.454   0.606  -3.037  0.00  0.00    +0.015 A 
ATOM     31  C   UNL     1       3.360   1.141  -3.721  0.00  0.00    +0.067 A 
BRANCH  31  32
ATOM     32  C   UNL     1       3.485   1.508  -5.147  0.00  0.00    +0.387 C 
ATOM     33  O   UNL     1       2.577   2.088  -5.707  0.00  0.00    -0.241 OA
ATOM     34  O   UNL     1       4.607   1.198  -5.826  0.00  0.00    -0.241 OA
ENDBRANCH  31  32
ENDBRANCH  20  27
ENDBRANCH   1  23
TORSDOF 4
