REMARK  Name = ZINC39673905
REMARK  7 active torsions:
REMARK  status: ('A' for Active; 'I' for Inactive)
REMARK    1  A    between atoms: C_1  and  C_2
REMARK    2  A    between atoms: C_2  and  C_3
REMARK    3  A    between atoms: C_3  and  C_4
REMARK    4  A    between atoms: C_4  and  C_6
REMARK    5  A    between atoms: C_4  and  N_7
REMARK    6  A    between atoms: C_8  and  C_10
REMARK    7  A    between atoms: C_21  and  C_23
REMARK                            x       y       z     vdW  Elec       q    Type
REMARK                         _______ _______ _______ _____ _____    ______ ____
ROOT
ATOM      1  C   UNL     1       2.131  -4.220  -1.602  0.00  0.00    +0.100 C 
ATOM      2  C   UNL     1       3.637  -4.213  -1.255  0.00  0.00    +0.121 C 
ATOM      3  N   UNL     1       3.924  -5.595  -0.805  0.00  0.00    -0.300 N 
ATOM      4  C   UNL     1       3.129  -6.452  -1.718  0.00  0.00    +0.115 C 
ATOM      5  C   UNL     1       1.803  -5.690  -1.908  0.00  0.00    -0.004 C 
ATOM      6  C   UNL     1       1.312  -5.834  -3.346  0.00  0.00    -0.010 C 
ATOM      7  C   UNL     1       0.937  -7.295  -3.609  0.00  0.00    -0.082 C 
ATOM      8  N   UNL     1      -0.112  -7.709  -2.669  0.00  0.00    +0.379 N 
ATOM      9  C   UNL     1       0.398  -7.657  -1.294  0.00  0.00    -0.082 C 
ATOM     10  C   UNL     1       0.751  -6.211  -0.933  0.00  0.00    -0.010 C 
ATOM     11  C   UNL     1       4.726  -5.986   0.205  0.00  0.00    +0.219 C 
ATOM     12  O   UNL     1       4.859  -7.165   0.452  0.00  0.00    -0.275 OA
ATOM     13  H   UNL     1      -0.904  -7.090  -2.756  0.00  0.00    -0.086 HD
ATOM     14  H   UNL     1      -0.401  -8.652  -2.884  0.00  0.00    -0.086 HD
ENDROOT
BRANCH  11  15
ATOM     15  C   UNL     1       5.457  -4.956   1.028  0.00  0.00    +0.079 C 
ATOM     16  C   UNL     1       6.387  -4.143   0.122  0.00  0.00    +0.041 C 
ATOM     17  C   UNL     1       7.183  -3.154   0.978  0.00  0.00    +0.160 C 
ATOM     18  O   UNL     1       7.913  -3.869   1.976  0.00  0.00    -0.380 OA
ATOM     19  C   UNL     1       7.092  -4.610   2.881  0.00  0.00    +0.160 C 
ATOM     20  C   UNL     1       6.293  -5.658   2.102  0.00  0.00    +0.041 C 
ENDBRANCH  11  15
BRANCH   1  22
ATOM     21  N   UNL     1       0.142  -3.114  -0.632  0.00  0.00    -0.312 N 
ATOM     22  C   UNL     1       1.321  -3.735  -0.427  0.00  0.00    +0.218 C 
ATOM     23  O   UNL     1       1.729  -3.902   0.702  0.00  0.00    -0.275 OA
ATOM     24  H   UNL     1      -0.185  -2.980  -1.536  0.00  0.00    +0.149 HD
BRANCH  21  25
ATOM     25  C   UNL     1      -0.646  -2.643   0.509  0.00  0.00    +0.070 C 
ATOM     26  C   UNL     1      -0.156  -1.256   0.929  0.00  0.00    +0.028 C 
BRANCH  25  27
ATOM     27  C   UNL     1      -2.122  -2.564   0.113  0.00  0.00    +0.022 C 
BRANCH  27  29
ATOM     28  C   UNL     1      -4.121  -3.892  -0.584  0.00  0.00    +0.004 C 
ATOM     29  C   UNL     1      -2.645  -3.970  -0.187  0.00  0.00    -0.002 C 
ENDBRANCH  27  29
ENDBRANCH  25  27
ENDBRANCH  21  25
ENDBRANCH   1  22
TORSDOF 5
