REMARK  Name = ZINC39415537
REMARK  8 active torsions:
REMARK  status: ('A' for Active; 'I' for Inactive)
REMARK    1  A    between atoms: C_1  and  C_2
REMARK    2  A    between atoms: C_2  and  C_3
REMARK    3  A    between atoms: C_8  and  C_12
REMARK    4  A    between atoms: C_12  and  C_14
REMARK    5  A    between atoms: C_14  and  O_15
REMARK    6  A    between atoms: O_15  and  C_16
REMARK    7  A    between atoms: C_16  and  C_18
REMARK    8  A    between atoms: C_21  and  N_24
REMARK                            x       y       z     vdW  Elec       q    Type
REMARK                         _______ _______ _______ _____ _____    ______ ____
ROOT
ATOM      1  O   UNL     1      -7.030  -2.388  -4.408  0.00  0.00    -0.453 OA
ENDROOT
BRANCH   1   2
ATOM      2  C   UNL     1      -7.605  -2.291  -5.623  0.00  0.00    +0.340 C 
ATOM      3  O   UNL     1      -6.987  -1.806  -6.550  0.00  0.00    -0.245 OA
BRANCH   2   4
ATOM      4  C   UNL     1      -8.983  -2.773  -5.827  0.00  0.00    +0.059 A 
ATOM      5  C   UNL     1      -9.698  -3.326  -4.761  0.00  0.00    +0.017 A 
ATOM      6  C   UNL     1     -10.985  -3.774  -4.955  0.00  0.00    +0.024 A 
ATOM      7  C   UNL     1     -11.574  -3.678  -6.212  0.00  0.00    +0.035 A 
ATOM      8  C   UNL     1     -10.866  -3.128  -7.276  0.00  0.00    +0.024 A 
ATOM      9  C   UNL     1      -9.581  -2.673  -7.088  0.00  0.00    +0.017 A 
BRANCH   7  10
ATOM     10  N   UNL     1     -12.878  -4.133  -6.405  0.00  0.00    -0.270 N 
ATOM     11  C   UNL     1     -13.782  -4.029  -5.411  0.00  0.00    +0.301 C 
ATOM     12  O   UNL     1     -13.490  -3.452  -4.381  0.00  0.00    -0.253 OA
ATOM     13  N   UNL     1     -15.010  -4.564  -5.558  0.00  0.00    -0.313 N 
ATOM     14  H   UNL     1     -13.134  -4.524  -7.255  0.00  0.00    +0.156 HD
ATOM     15  H   UNL     1     -15.243  -5.025  -6.380  0.00  0.00    +0.146 HD
ATOM     16  H   UNL     1     -15.661  -4.490  -4.843  0.00  0.00    +0.146 HD
ENDBRANCH   7  10
ENDBRANCH   2   4
ENDBRANCH   1   2
BRANCH   1  17
ATOM     17  C   UNL     1      -5.693  -1.902  -4.282  0.00  0.00    +0.311 C 
BRANCH  17  18
ATOM     18  C   UNL     1      -5.220  -2.092  -2.864  0.00  0.00    +0.199 C 
ATOM     19  O   UNL     1      -5.958  -2.596  -2.041  0.00  0.00    -0.289 OA
BRANCH  18  25
ATOM     20  C   UNL     1      -1.155  -1.247  -0.086  0.00  0.00    -0.024 A 
ATOM     21  C   UNL     1      -1.691  -1.754   1.045  0.00  0.00    +0.005 A 
ATOM     22  C   UNL     1      -2.996  -2.270   1.084  0.00  0.00    +0.001 A 
ATOM     23  C   UNL     1      -3.799  -2.294  -0.004  0.00  0.00    +0.010 A 
ATOM     24  C   UNL     1      -3.338  -1.788  -1.242  0.00  0.00    +0.007 A 
ATOM     25  C   UNL     1      -3.921  -1.685  -2.492  0.00  0.00    +0.027 C 
ATOM     26  C   UNL     1      -2.874  -1.046  -3.377  0.00  0.00    +0.152 C 
ATOM     27  N   UNL     1      -1.705  -0.817  -2.523  0.00  0.00    -0.380 N 
ATOM     28  C   UNL     1      -1.966  -1.230  -1.315  0.00  0.00    +0.046 A 
ATOM     29  H   UNL     1      -0.869  -0.417  -2.811  0.00  0.00    +0.160 HD
BRANCH  20  31
ATOM     30  C   UNL     1       0.209   0.811   0.139  0.00  0.00    +0.009 C 
ATOM     31  C   UNL     1       0.249  -0.701  -0.089  0.00  0.00    +0.034 C 
ENDBRANCH  20  31
ENDBRANCH  18  25
ENDBRANCH  17  18
ENDBRANCH   1  17
TORSDOF 7
