REMARK  Name = ZINC67401434
REMARK  8 active torsions:
REMARK  status: ('A' for Active; 'I' for Inactive)
REMARK    1  A    between atoms: C_1  and  C_2
REMARK    2  A    between atoms: C_5  and  N_8
REMARK    3  A    between atoms: N_11  and  C_12
REMARK    4  A    between atoms: N_20  and  C_22
REMARK    5  A    between atoms: C_22  and  C_24
REMARK    6  A    between atoms: C_22  and  C_25
REMARK    7  A    between atoms: N_27  and  C_28
REMARK    8  A    between atoms: C_28  and  C_29
REMARK                            x       y       z     vdW  Elec       q    Type
REMARK                         _______ _______ _______ _____ _____    ______ ____
ROOT
ATOM      1  C   UNL     1       0.247  -6.990   2.276  0.00  0.00    +0.038 A 
ATOM      2  C   UNL     1       0.245  -6.309   3.485  0.00  0.00    +0.023 A 
ATOM      3  C   UNL     1       0.273  -7.017   4.670  0.00  0.00    +0.002 A 
ATOM      4  C   UNL     1       0.304  -8.397   4.649  0.00  0.00    +0.002 A 
ATOM      5  C   UNL     1       0.306  -9.083   3.443  0.00  0.00    -0.059 A 
ATOM      6  C   UNL     1       0.271  -8.382   2.258  0.00  0.00    -0.027 A 
ATOM      7  C   UNL     1       0.258  -9.088   0.926  0.00  0.00    +0.019 C 
ATOM      8  C   UNL     1       0.688 -10.544   1.109  0.00  0.00    -0.073 C 
ATOM      9  N   UNL     1      -0.114 -11.139   2.189  0.00  0.00    +0.390 N 
ATOM     10  C   UNL     1       0.344 -10.588   3.472  0.00  0.00    -0.042 C 
ATOM     11  H   UNL     1      -1.088 -10.918   2.048  0.00  0.00    -0.080 HD
ENDROOT
BRANCH   1  15
ATOM     12  N   UNL     1       0.546  -4.284  -0.098  0.00  0.00    -0.269 N 
ATOM     13  C   UNL     1       0.681  -5.011   1.028  0.00  0.00    +0.308 C 
ATOM     14  O   UNL     1       1.219  -4.527   2.005  0.00  0.00    -0.252 OA
ATOM     15  N   UNL     1       0.219  -6.277   1.073  0.00  0.00    -0.269 N 
ATOM     16  H   UNL     1       0.042  -4.638  -0.847  0.00  0.00    +0.156 HD
ATOM     17  H   UNL     1      -0.133  -6.693   0.270  0.00  0.00    +0.156 HD
BRANCH  12  22
ATOM     18  C   UNL     1       2.924   0.854  -0.458  0.00  0.00    +0.044 C 
ATOM     19  C   UNL     1       2.292  -0.510  -0.362  0.00  0.00    -0.050 A 
ATOM     20  C   UNL     1       2.827  -1.460   0.489  0.00  0.00    +0.005 A 
ATOM     21  C   UNL     1       2.250  -2.712   0.579  0.00  0.00    +0.023 A 
ATOM     22  C   UNL     1       1.132  -3.016  -0.186  0.00  0.00    +0.035 A 
ATOM     23  C   UNL     1       0.598  -2.060  -1.040  0.00  0.00    +0.023 A 
ATOM     24  C   UNL     1       1.176  -0.808  -1.121  0.00  0.00    +0.005 A 
ENDBRANCH  12  22
ENDBRANCH   1  15
BRANCH   9  25
ATOM     25  C   UNL     1       0.067 -12.597   2.190  0.00  0.00    +0.017 C 
ATOM     26  C   UNL     1      -0.259 -13.151   0.802  0.00  0.00    -0.004 C 
BRANCH  25  27
ATOM     27  C   UNL     1      -0.857 -13.216   3.207  0.00  0.00    +0.199 C 
ATOM     28  O   UNL     1      -1.592 -12.513   3.867  0.00  0.00    -0.278 OA
ATOM     29  N   UNL     1      -0.865 -14.552   3.384  0.00  0.00    -0.313 N 
ATOM     30  H   UNL     1      -0.277 -15.115   2.857  0.00  0.00    +0.149 HD
BRANCH  29  31
ATOM     31  C   UNL     1      -1.762 -15.155   4.373  0.00  0.00    +0.131 C 
BRANCH  31  32
ATOM     32  C   UNL     1      -1.577 -16.650   4.374  0.00  0.00    -0.016 C 
ATOM     33  C   UNL     1      -1.288 -17.274   5.489  0.00  0.00    +0.005 C 
ENDBRANCH  31  32
ENDBRANCH  29  31
ENDBRANCH  25  27
ENDBRANCH   9  25
TORSDOF 6
