REMARK  Name = ZINC48449518
REMARK  5 active torsions:
REMARK  status: ('A' for Active; 'I' for Inactive)
REMARK    1  A    between atoms: N_4  and  C_6
REMARK    2  A    between atoms: C_6  and  C_7
REMARK    3  A    between atoms: C_7  and  N_8
REMARK    4  A    between atoms: N_8  and  C_9
REMARK    5  A    between atoms: C_15  and  C_17
REMARK                            x       y       z     vdW  Elec       q    Type
REMARK                         _______ _______ _______ _____ _____    ______ ____
ROOT
ATOM      1  C   UNL     1       4.089  -3.572  -2.373  0.00  0.00    -0.068 C 
ATOM      2  C   UNL     1       5.341  -2.713  -2.191  0.00  0.00    -0.015 C 
ATOM      3  C   UNL     1       6.057  -3.122  -0.902  0.00  0.00    -0.002 C 
ATOM      4  C   UNL     1       6.458  -4.596  -0.988  0.00  0.00    +0.000 C 
ATOM      5  C   UNL     1       5.206  -5.456  -1.171  0.00  0.00    +0.002 C 
ATOM      6  C   UNL     1       4.490  -5.046  -2.459  0.00  0.00    -0.022 C 
ENDROOT
BRANCH   6   7
ATOM      7  C   UNL     1       3.237  -5.906  -2.642  0.00  0.00    -0.009 C 
ATOM      8  C   UNL     1       3.638  -7.380  -2.728  0.00  0.00    +0.004 C 
ATOM      9  C   UNL     1       2.386  -8.239  -2.910  0.00  0.00    +0.000 C 
ATOM     10  C   UNL     1       1.670  -7.830  -4.199  0.00  0.00    +0.000 C 
ATOM     11  C   UNL     1       1.269  -6.356  -4.113  0.00  0.00    +0.000 C 
ATOM     12  C   UNL     1       2.521  -5.496  -3.930  0.00  0.00    +0.004 C 
ENDBRANCH   6   7
BRANCH   1  13
ATOM     13  N   UNL     1       3.189  -3.376  -1.229  0.00  0.00    +0.382 N 
ATOM     14  H   UNL     1       3.687  -3.567  -0.373  0.00  0.00    -0.085 HD
ATOM     15  H   UNL     1       2.402  -4.003  -1.308  0.00  0.00    -0.085 HD
BRANCH  13  16
ATOM     16  C   UNL     1       2.709  -1.987  -1.217  0.00  0.00    -0.059 C 
BRANCH  16  17
ATOM     17  C   UNL     1       1.771  -1.782  -0.025  0.00  0.00    +0.124 C 
BRANCH  17  21
ATOM     18  C   UNL     1      -0.016   1.349   0.009  0.00  0.00    +0.041 A 
ATOM     19  C   UNL     1       1.308   1.797  -0.001  0.00  0.00    +0.134 A 
ATOM     20  N   UNL     1       2.094   0.751  -0.014  0.00  0.00    -0.180 NA
ATOM     21  N   UNL     1       1.293  -0.398  -0.012  0.00  0.00    -0.273 N 
ATOM     22  C   UNL     1       0.002  -0.004   0.002  0.00  0.00    +0.108 A 
ENDBRANCH  17  21
ENDBRANCH  16  17
ENDBRANCH  13  16
ENDBRANCH   1  13
TORSDOF 5
