REMARK  Name = ZINC65613459
REMARK  6 active torsions:
REMARK  status: ('A' for Active; 'I' for Inactive)
REMARK    1  A    between atoms: C_1  and  C_2
REMARK    2  A    between atoms: C_2  and  C_3
REMARK    3  A    between atoms: C_2  and  C_4
REMARK    4  A    between atoms: C_2  and  C_5
REMARK    5  A    between atoms: C_10  and  N_13
REMARK    6  A    between atoms: C_14  and  C_16
REMARK                            x       y       z     vdW  Elec       q    Type
REMARK                         _______ _______ _______ _____ _____    ______ ____
ROOT
ATOM      1  C   UNL     1       0.363  -0.695  -1.238  0.00  0.00    +0.221 C 
ATOM      2  O   UNL     1       0.920  -0.101  -2.138  0.00  0.00    -0.275 OA
ATOM      3  N   UNL     1       0.093  -2.009  -1.364  0.00  0.00    -0.301 N 
ATOM      4  C   UNL     1      -0.470  -2.768  -0.239  0.00  0.00    +0.109 C 
ATOM      5  C   UNL     1       0.414  -3.992   0.021  0.00  0.00    +0.041 C 
ATOM      6  C   UNL     1       0.555  -4.798  -1.273  0.00  0.00    +0.076 C 
ATOM      7  C   UNL     1       1.228  -3.934  -2.343  0.00  0.00    +0.041 C 
ATOM      8  C   UNL     1       0.348  -2.708  -2.631  0.00  0.00    +0.109 C 
ENDROOT
BRANCH   1  10
ATOM      9  C   UNL     1       0.221   1.537  -0.166  0.00  0.00    +0.020 C 
ATOM     10  C   UNL     1      -0.025   0.038   0.020  0.00  0.00    +0.039 C 
ATOM     11  C   UNL     1       0.816  -0.476   1.190  0.00  0.00    +0.020 C 
ATOM     12  C   UNL     1      -1.507  -0.203   0.313  0.00  0.00    +0.020 C 
ENDBRANCH   1  10
BRANCH   6  13
ATOM     13  N   UNL     1       1.373  -5.987  -1.021  0.00  0.00    -0.312 N 
ATOM     14  C   UNL     1       1.237  -7.076  -1.803  0.00  0.00    +0.219 C 
ATOM     15  O   UNL     1       0.439  -7.072  -2.716  0.00  0.00    -0.275 OA
ATOM     16  H   UNL     1       2.011  -5.991  -0.290  0.00  0.00    +0.149 HD
BRANCH  14  17
ATOM     17  C   UNL     1       2.078  -8.300  -1.543  0.00  0.00    +0.103 C 
ATOM     18  C   UNL     1       1.801  -9.397  -2.607  0.00  0.00    +0.043 C 
ATOM     19  C   UNL     1       3.156 -10.147  -2.616  0.00  0.00    +0.160 C 
ATOM     20  O   UNL     1       4.151  -9.127  -2.432  0.00  0.00    -0.379 OA
ATOM     21  C   UNL     1       3.575  -7.994  -1.763  0.00  0.00    +0.172 C 
ENDBRANCH  14  17
ENDBRANCH   6  13
TORSDOF 3
