REMARK  Name = ZINC39444246
REMARK  10 active torsions:
REMARK  status: ('A' for Active; 'I' for Inactive)
REMARK    1  A    between atoms: C_1  and  C_2
REMARK    2  A    between atoms: C_2  and  C_3
REMARK    3  A    between atoms: C_2  and  C_4
REMARK    4  A    between atoms: C_2  and  N_5
REMARK    5  A    between atoms: C_6  and  S_11
REMARK    6  A    between atoms: S_11  and  C_12
REMARK    7  A    between atoms: C_12  and  C_13
REMARK    8  A    between atoms: N_15  and  C_16
REMARK    9  A    between atoms: C_16  and  C_17
REMARK   10  A    between atoms: C_17  and  C_18
REMARK                            x       y       z     vdW  Elec       q    Type
REMARK                         _______ _______ _______ _____ _____    ______ ____
ROOT
ATOM      1  C   UNL     1      -0.015  -1.444   3.387  0.00  0.00    +0.223 C 
ATOM      2  O   UNL     1      -1.140  -1.401   3.837  0.00  0.00    -0.275 OA
ATOM      3  N   UNL     1       1.044  -1.465   4.220  0.00  0.00    -0.314 N 
ATOM      4  H   UNL     1       1.944  -1.499   3.860  0.00  0.00    +0.149 HD
ENDROOT
BRANCH   1   5
ATOM      5  C   UNL     1       0.199  -1.473   1.895  0.00  0.00    +0.167 C 
BRANCH   5   6
ATOM      6  S   UNL     1      -1.407  -1.435   1.053  0.00  0.00    -0.117 S 
BRANCH   6   8
ATOM      7  N   UNL     1      -2.117  -3.707  -0.232  0.00  0.00    -0.225 NA
ATOM      8  C   UNL     1      -1.985  -3.152   1.131  0.00  0.00    +0.185 C 
ATOM      9  N   UNL     1      -0.985  -3.997   1.825  0.00  0.00    -0.323 NA
ATOM     10  N   UNL     1      -1.017  -5.270   1.089  0.00  0.00    +0.409 N 
ATOM     11  N   UNL     1      -1.198  -4.846  -0.307  0.00  0.00    -0.280 NA
ATOM     12  H   UNL     1      -0.067  -3.578   1.784  0.00  0.00    +0.106 HD
ATOM     13  H   UNL     1      -0.147  -5.768   1.200  0.00  0.00    -0.032 HD
ATOM     14  H   UNL     1      -1.591  -5.591  -0.864  0.00  0.00    +0.121 HD
ATOM     15  H   UNL     1      -1.795  -5.837   1.393  0.00  0.00    -0.032 HD
BRANCH   7  17
ATOM     16  C   UNL     1      -2.008  -3.283  -2.642  0.00  0.00    +0.029 C 
ATOM     17  C   UNL     1      -1.787  -2.696  -1.246  0.00  0.00    +0.029 C 
ATOM     18  C   UNL     1      -0.323  -2.280  -1.094  0.00  0.00    +0.029 C 
ATOM     19  C   UNL     1      -2.687  -1.473  -1.058  0.00  0.00    +0.029 C 
ENDBRANCH   7  17
ENDBRANCH   6   8
ENDBRANCH   5   6
ENDBRANCH   1   5
BRANCH   3  20
ATOM     20  C   UNL     1       0.836  -1.437   5.670  0.00  0.00    +0.109 C 
BRANCH  20  21
ATOM     21  C   UNL     1       2.190  -1.470   6.380  0.00  0.00    +0.056 C 
BRANCH  21  22
ATOM     22  C   UNL     1       1.976  -1.440   7.872  0.00  0.00    -0.021 A 
ATOM     23  C   UNL     1       1.713  -2.593   8.737  0.00  0.00    +0.003 A 
ATOM     24  C   UNL     1       1.584  -3.965   8.514  0.00  0.00    +0.010 A 
ATOM     25  C   UNL     1       1.331  -4.802   9.563  0.00  0.00    +0.001 A 
ATOM     26  C   UNL     1       1.202  -4.300  10.851  0.00  0.00    +0.002 A 
ATOM     27  C   UNL     1       1.327  -2.950  11.094  0.00  0.00    +0.026 A 
ATOM     28  C   UNL     1       1.584  -2.079  10.040  0.00  0.00    +0.047 A 
ATOM     29  N   UNL     1       1.757  -0.715   9.958  0.00  0.00    -0.360 N 
ATOM     30  C   UNL     1       1.996  -0.354   8.660  0.00  0.00    +0.087 A 
ATOM     31  H   UNL     1       1.720  -0.102  10.709  0.00  0.00    +0.165 HD
ENDBRANCH  21  22
ENDBRANCH  20  21
ENDBRANCH   3  20
TORSDOF 7
