REMARK  Name = ZINC45375934
REMARK  4 active torsions:
REMARK  status: ('A' for Active; 'I' for Inactive)
REMARK    1  A    between atoms: C_3  and  N_21
REMARK    2  A    between atoms: C_6  and  C_7
REMARK    3  A    between atoms: C_7  and  N_8
REMARK    4  A    between atoms: N_11  and  C_12
REMARK                            x       y       z     vdW  Elec       q    Type
REMARK                         _______ _______ _______ _____ _____    ______ ____
ROOT
ATOM      1  N   UNL     1      -1.850  -0.783  -1.477  0.00  0.00    -0.295 N 
ATOM      2  C   UNL     1      -2.986  -1.464  -1.725  0.00  0.00    +0.300 C 
ATOM      3  O   UNL     1      -3.767  -1.692  -0.822  0.00  0.00    -0.253 OA
ATOM      4  N   UNL     1      -3.257  -1.892  -2.974  0.00  0.00    -0.288 N 
ATOM      5  H   UNL     1      -1.226  -0.601  -2.198  0.00  0.00    +0.151 HD
ATOM      6  H   UNL     1      -2.633  -1.710  -3.695  0.00  0.00    +0.151 HD
ENDROOT
BRANCH   4   7
ATOM      7  C   UNL     1      -4.492  -2.632  -3.243  0.00  0.00    +0.160 C 
ATOM      8  C   UNL     1      -4.380  -3.345  -4.593  0.00  0.00    +0.032 C 
ATOM      9  C   UNL     1      -3.577  -2.513  -5.576  0.00  0.00    +0.004 C 
ATOM     10  C   UNL     1      -4.256  -1.218  -5.982  0.00  0.00    +0.019 C 
ATOM     11  C   UNL     1      -4.351  -0.257  -4.796  0.00  0.00    +0.104 C 
ATOM     12  N   UNL     1      -5.577  -0.560  -4.040  0.00  0.00    -0.314 N 
ATOM     13  C   UNL     1      -5.660  -1.670  -3.299  0.00  0.00    +0.233 C 
ATOM     14  O   UNL     1      -6.671  -1.910  -2.675  0.00  0.00    -0.274 OA
ATOM     15  H   UNL     1      -6.330   0.050  -4.078  0.00  0.00    +0.149 HD
ENDBRANCH   4   7
BRANCH   1  16
ATOM     16  C   UNL     1      -1.556  -0.318  -0.119  0.00  0.00    +0.142 C 
BRANCH  16  22
ATOM     17  C   UNL     1      -0.189   1.779  -0.339  0.00  0.00    +0.010 A 
ATOM     18  C   UNL     1       1.042   2.408  -0.324  0.00  0.00    +0.042 A 
ATOM     19  C   UNL     1       2.186   1.653  -0.083  0.00  0.00    +0.099 A 
ATOM     20  N   UNL     1       2.099   0.349   0.129  0.00  0.00    -0.349 N 
ATOM     21  C   UNL     1       0.938  -0.278   0.120  0.00  0.00    +0.089 A 
ATOM     22  C   UNL     1      -0.236   0.410  -0.113  0.00  0.00    -0.014 A 
ATOM     23  H   UNL     1       2.909  -0.158   0.295  0.00  0.00    +0.167 HD
BRANCH  19  24
ATOM     24  N   UNL     1       3.430   2.273  -0.066  0.00  0.00    -0.312 N 
ATOM     25  C   UNL     1       3.573   3.694  -0.420  0.00  0.00    +0.134 C 
ATOM     26  C   UNL     1       4.374   4.390   0.686  0.00  0.00    +0.178 C 
ATOM     27  O   UNL     1       5.586   3.668   0.916  0.00  0.00    -0.377 OA
ATOM     28  C   UNL     1       5.391   2.330   1.380  0.00  0.00    +0.178 C 
ATOM     29  C   UNL     1       4.641   1.530   0.315  0.00  0.00    +0.134 C 
ENDBRANCH  19  24
ENDBRANCH  16  22
ENDBRANCH   1  16
TORSDOF 4
