REMARK  Name = ZINC14459504
REMARK  7 active torsions:
REMARK  status: ('A' for Active; 'I' for Inactive)
REMARK    1  A    between atoms: C_1  and  O_2
REMARK    2  A    between atoms: O_2  and  C_3
REMARK    3  A    between atoms: C_7  and  C_10
REMARK    4  A    between atoms: C_8  and  O_9
REMARK    5  A    between atoms: C_21  and  S_26
REMARK    6  A    between atoms: S_26  and  N_29
REMARK    7  A    between atoms: N_29  and  C_30
REMARK                            x       y       z     vdW  Elec       q    Type
REMARK                         _______ _______ _______ _____ _____    ______ ____
ROOT
ATOM      1  C   UNL     1       8.558   2.118  -1.562  0.00  0.00    +0.109 C 
ATOM      2  C   UNL     1       7.635   1.013  -1.080  0.00  0.00    +0.029 C 
ATOM      3  C   UNL     1       8.270  -0.230  -0.444  0.00  0.00    +0.033 C 
ATOM      4  C   UNL     1       7.169  -0.682   0.517  0.00  0.00    -0.030 C 
ATOM      5  C   UNL     1       6.412   0.345   0.842  0.00  0.00    -0.023 C 
ATOM      6  C   UNL     1       6.953   1.573   0.204  0.00  0.00    +0.049 C 
ATOM      7  C   UNL     1       6.077   2.694  -0.200  0.00  0.00    -0.018 A 
ATOM      8  C   UNL     1       4.879   2.962   0.428  0.00  0.00    +0.034 A 
ATOM      9  C   UNL     1       4.101   4.029   0.020  0.00  0.00    +0.106 A 
ATOM     10  C   UNL     1       4.529   4.841  -1.014  0.00  0.00    +0.030 A 
ATOM     11  C   UNL     1       5.726   4.582  -1.649  0.00  0.00    +0.025 A 
ATOM     12  C   UNL     1       6.511   3.505  -1.255  0.00  0.00    +0.031 A 
ATOM     13  N   UNL     1       7.705   3.242  -1.936  0.00  0.00    -0.336 N 
ATOM     14  H   UNL     1       7.967   3.812  -2.676  0.00  0.00    +0.147 HD
ENDROOT
BRANCH   1  19
ATOM     15  C   UNL     1      11.508   2.255   0.806  0.00  0.00    +0.162 A 
ATOM     16  C   UNL     1      11.171   3.343   1.596  0.00  0.00    +0.049 A 
ATOM     17  C   UNL     1       9.994   4.029   1.363  0.00  0.00    +0.004 A 
ATOM     18  C   UNL     1       9.150   3.632   0.342  0.00  0.00    +0.009 A 
ATOM     19  C   UNL     1       9.480   2.548  -0.450  0.00  0.00    +0.018 A 
ATOM     20  C   UNL     1      10.656   1.853  -0.218  0.00  0.00    +0.163 A 
BRANCH  15  22
ATOM     21  C   UNL     1      13.488   2.045   2.107  0.00  0.00    +0.277 C 
ATOM     22  O   UNL     1      12.666   1.579   1.035  0.00  0.00    -0.491 OA
ENDBRANCH  15  22
BRANCH  20  23
ATOM     23  O   UNL     1      10.980   0.782  -0.992  0.00  0.00    -0.503 OA
ATOM     24  H   UNL     1      11.499   1.007  -1.776  0.00  0.00    +0.292 HD
ENDBRANCH  20  23
ENDBRANCH   1  19
BRANCH   9  25
ATOM     25  S   UNL     1       2.568   4.360   0.824  0.00  0.00    +0.059 S 
ATOM     26  O   UNL     1       2.293   5.739   0.623  0.00  0.00    -0.153 OA
ATOM     27  O   UNL     1       2.655   3.781   2.119  0.00  0.00    -0.153 OA
BRANCH  25  28
ATOM     28  N   UNL     1       1.397   3.520   0.008  0.00  0.00    -0.187 NA
ATOM     29  H   UNL     1       0.698   3.998  -0.465  0.00  0.00    +0.148 HD
BRANCH  28  30
ATOM     30  C   UNL     1       1.417   2.055  -0.000  0.00  0.00    +0.077 C 
ATOM     31  C   UNL     1      -0.019   1.526   0.010  0.00  0.00    +0.020 C 
ATOM     32  C   UNL     1       0.002  -0.004   0.002  0.00  0.00    +0.002 C 
ATOM     33  C   UNL     1       0.718  -0.497  -1.257  0.00  0.00    +0.000 C 
ATOM     34  C   UNL     1       2.154   0.032  -1.268  0.00  0.00    +0.002 C 
ATOM     35  C   UNL     1       2.133   1.562  -1.259  0.00  0.00    +0.020 C 
ENDBRANCH  28  30
ENDBRANCH  25  28
ENDBRANCH   9  25
TORSDOF 6
