REMARK  Name = ZINC13567613
REMARK  5 active torsions:
REMARK  status: ('A' for Active; 'I' for Inactive)
REMARK    1  A    between atoms: C_2  and  C_3
REMARK    2  A    between atoms: C_3  and  N_4
REMARK    3  A    between atoms: C_14  and  C_32
REMARK    4  A    between atoms: C_15  and  N_31
REMARK    5  A    between atoms: N_16  and  C_24
REMARK                            x       y       z     vdW  Elec       q    Type
REMARK                         _______ _______ _______ _____ _____    ______ ____
ROOT
ATOM      1  N   UNL     1      -3.327   3.599   0.394  0.00  0.00    -0.266 N 
ATOM      2  C   UNL     1      -2.082   3.374   0.954  0.00  0.00    +0.041 A 
ATOM      3  C   UNL     1      -1.166   4.289   1.475  0.00  0.00    +0.024 A 
ATOM      4  C   UNL     1       0.021   3.780   1.979  0.00  0.00    +0.002 A 
ATOM      5  C   UNL     1       0.298   2.428   1.972  0.00  0.00    +0.000 A 
ATOM      6  C   UNL     1      -0.606   1.506   1.455  0.00  0.00    +0.007 A 
ATOM      7  C   UNL     1      -1.786   2.006   0.948  0.00  0.00    -0.001 A 
ATOM      8  C   UNL     1      -2.967   1.321   0.331  0.00  0.00    +0.141 C 
ATOM      9  C   UNL     1      -3.920   2.453   0.001  0.00  0.00    +0.240 C 
ATOM     10  O   UNL     1      -5.010   2.347  -0.519  0.00  0.00    -0.274 OA
ATOM     11  C   UNL     1      -2.569   0.604  -0.924  0.00  0.00    +0.089 C 
ATOM     12  C   UNL     1      -2.468  -0.751  -0.951  0.00  0.00    +0.108 C 
ATOM     13  N   UNL     1      -2.738  -1.487   0.180  0.00  0.00    -0.260 N 
ATOM     14  C   UNL     1      -3.469  -0.950   1.207  0.00  0.00    +0.025 C 
ATOM     15  C   UNL     1      -3.616   0.388   1.321  0.00  0.00    +0.037 C 
ATOM     16  C   UNL     1      -4.376   0.948   2.362  0.00  0.00    +0.162 C 
ATOM     17  O   UNL     1      -4.481   2.156   2.440  0.00  0.00    -0.292 OA
ATOM     18  C   UNL     1      -5.061   0.080   3.381  0.00  0.00    +0.080 C 
ATOM     19  C   UNL     1      -5.394  -1.272   2.742  0.00  0.00    +0.014 C 
ATOM     20  C   UNL     1      -4.100  -1.888   2.206  0.00  0.00    +0.052 C 
ENDROOT
BRANCH  13  21
ATOM     21  C   UNL     1      -2.260  -2.799   0.283  0.00  0.00    +0.040 A 
ATOM     22  C   UNL     1      -3.011  -3.854  -0.218  0.00  0.00    +0.026 A 
ATOM     23  C   UNL     1      -2.535  -5.147  -0.119  0.00  0.00    +0.040 A 
ATOM     24  C   UNL     1      -1.315  -5.393   0.488  0.00  0.00    +0.124 A 
ATOM     25  C   UNL     1      -0.567  -4.342   0.993  0.00  0.00    +0.040 A 
ATOM     26  C   UNL     1      -1.036  -3.047   0.892  0.00  0.00    +0.026 A 
ATOM     27  F   UNL     1      -0.854  -6.659   0.589  0.00  0.00    -0.205 F 
ENDBRANCH  13  21
BRANCH  12  28
ATOM     28  N   UNL     1      -2.096  -1.387  -2.111  0.00  0.00    -0.345 N 
ATOM     29  H   UNL     1      -1.814  -0.868  -2.880  0.00  0.00    +0.144 HD
ATOM     30  H   UNL     1      -2.114  -2.356  -2.160  0.00  0.00    +0.144 HD
ENDBRANCH  12  28
BRANCH  11  31
ATOM     31  C   UNL     1      -2.292   1.357  -2.110  0.00  0.00    +0.100 C 
ATOM     32  N   UNL     1      -2.072   1.955  -3.050  0.00  0.00    -0.191 NA
ENDBRANCH  11  31
BRANCH   1  33
ATOM     33  C   UNL     1      -3.931   4.925   0.247  0.00  0.00    +0.140 C 
BRANCH  33  35
ATOM     34  C   UNL     1      -4.464   5.916  -1.920  0.00  0.00    +0.005 C 
ATOM     35  C   UNL     1      -3.539   5.511  -1.085  0.00  0.00    -0.015 C 
ENDBRANCH  33  35
ENDBRANCH   1  33
TORSDOF 5
