REMARK  Name = ZINC04260769
REMARK  4 active torsions:
REMARK  status: ('A' for Active; 'I' for Inactive)
REMARK    1  A    between atoms: C_1  and  C_2
REMARK    2  A    between atoms: C_2  and  C_3
REMARK    3  A    between atoms: C_2  and  N_4
REMARK    4  A    between atoms: C_16  and  C_18
REMARK                            x       y       z     vdW  Elec       q    Type
REMARK                         _______ _______ _______ _____ _____    ______ ____
ROOT
ATOM      1  N   UNL     1       0.720   2.127   3.204  0.00  0.00    -0.222 N 
ATOM      2  C   UNL     1      -0.017   1.266   3.937  0.00  0.00    +0.245 C 
ATOM      3  O   UNL     1       0.147   0.069   4.045  0.00  0.00    -0.273 OA
ATOM      4  C   UNL     1      -1.090   2.104   4.596  0.00  0.00    +0.181 C 
ATOM      5  C   UNL     1      -2.483   1.618   4.178  0.00  0.00    +0.139 C 
ATOM      6  N   UNL     1      -3.437   2.712   4.417  0.00  0.00    -0.298 N 
ATOM      7  C   UNL     1      -3.233   4.014   3.771  0.00  0.00    +0.127 C 
ATOM      8  C   UNL     1      -1.839   4.545   4.142  0.00  0.00    +0.129 C 
ATOM      9  N   UNL     1      -0.893   3.437   3.985  0.00  0.00    -0.271 N 
ATOM     10  C   UNL     1       0.236   3.376   3.273  0.00  0.00    +0.312 C 
ATOM     11  O   UNL     1       0.760   4.338   2.747  0.00  0.00    -0.252 OA
ATOM     12  C   UNL     1      -4.497   2.519   5.228  0.00  0.00    +0.219 C 
ATOM     13  O   UNL     1      -5.239   3.443   5.486  0.00  0.00    -0.275 OA
ENDROOT
BRANCH  12  14
ATOM     14  C   UNL     1      -4.758   1.156   5.814  0.00  0.00    +0.072 C 
ATOM     15  C   UNL     1      -5.491   0.289   4.787  0.00  0.00    -0.007 C 
ATOM     16  C   UNL     1      -5.809  -1.073   5.410  0.00  0.00    -0.082 C 
ATOM     17  C   UNL     1      -5.941  -0.095   7.623  0.00  0.00    -0.082 C 
ATOM     18  C   UNL     1      -5.628   1.296   7.067  0.00  0.00    -0.007 C 
ATOM     19  N   UNL     1      -6.654  -0.889   6.605  0.00  0.00    +0.379 N 
ATOM     20  H   UNL     1      -6.890  -1.808   6.997  0.00  0.00    -0.086 HD
ATOM     21  H   UNL     1      -7.516  -0.400   6.337  0.00  0.00    -0.086 HD
ENDBRANCH  12  14
BRANCH   1  23
ATOM     22  C   UNL     1       3.119   2.527   2.944  0.00  0.00    +0.028 C 
ATOM     23  C   UNL     1       1.907   1.746   2.433  0.00  0.00    +0.080 C 
ATOM     24  C   UNL     1       1.679   2.067   0.955  0.00  0.00    +0.028 C 
ENDBRANCH   1  23
TORSDOF 2
