REMARK  Name = ZINC25290997
REMARK  6 active torsions:
REMARK  status: ('A' for Active; 'I' for Inactive)
REMARK    1  A    between atoms: C_1  and  C_2
REMARK    2  A    between atoms: C_5  and  S_24
REMARK    3  A    between atoms: C_7  and  C_8
REMARK    4  A    between atoms: N_10  and  C_11
REMARK    5  A    between atoms: C_11  and  C_12
REMARK    6  A    between atoms: S_24  and  N_27
REMARK                            x       y       z     vdW  Elec       q    Type
REMARK                         _______ _______ _______ _____ _____    ______ ____
ROOT
ATOM      1  C   UNL     1      -1.261   2.159   0.514  0.00  0.00    +0.245 C 
ATOM      2  O   UNL     1      -2.316   1.556   0.533  0.00  0.00    -0.270 OA
ATOM      3  N   UNL     1      -0.104   1.498   0.718  0.00  0.00    -0.307 N 
ATOM      4  H   UNL     1       0.851   2.044   0.702  0.00  0.00    +0.149 HD
ENDROOT
BRANCH   1  11
ATOM      5  C   UNL     1      -3.719   3.517  -0.181  0.00  0.00    +0.044 C 
ATOM      6  C   UNL     1      -2.426   4.282  -0.068  0.00  0.00    -0.038 A 
ATOM      7  C   UNL     1      -2.406   5.643  -0.297  0.00  0.00    +0.006 A 
ATOM      8  C   UNL     1      -1.220   6.347  -0.194  0.00  0.00    +0.029 A 
ATOM      9  C   UNL     1      -0.046   5.693   0.139  0.00  0.00    +0.106 A 
ATOM     10  C   UNL     1      -0.054   4.334   0.375  0.00  0.00    +0.041 A 
ATOM     11  C   UNL     1      -1.246   3.616   0.267  0.00  0.00    +0.041 A 
BRANCH   9  12
ATOM     12  S   UNL     1       1.459   6.599   0.267  0.00  0.00    +0.056 S 
ATOM     13  O   UNL     1       2.513   5.669   0.056  0.00  0.00    -0.153 OA
ATOM     14  O   UNL     1       1.301   7.765  -0.530  0.00  0.00    -0.153 OA
BRANCH  12  15
ATOM     15  N   UNL     1       1.589   7.113   1.836  0.00  0.00    -0.204 NA
ATOM     16  H   UNL     1       2.520   7.685   1.959  0.00  0.00    +0.144 HD
ATOM     17  H   UNL     1       1.604   6.241   2.507  0.00  0.00    +0.144 HD
ENDBRANCH  12  15
ENDBRANCH   9  12
ENDBRANCH   1  11
BRANCH   3  18
ATOM     18  C   UNL     1      -0.118   0.054   0.963  0.00  0.00    +0.140 C 
BRANCH  18  19
ATOM     19  C   UNL     1       1.294  -0.438   1.152  0.00  0.00    -0.026 A 
ATOM     20  C   UNL     1       1.871  -0.470   2.414  0.00  0.00    +0.023 A 
ATOM     21  C   UNL     1       3.167  -0.926   2.554  0.00  0.00    +0.084 A 
ATOM     22  N   UNL     1       3.858  -1.330   1.506  0.00  0.00    -0.350 N 
ATOM     23  C   UNL     1       3.343  -1.315   0.286  0.00  0.00    +0.099 A 
ATOM     24  C   UNL     1       2.042  -0.872   0.073  0.00  0.00    +0.047 A 
ATOM     25  N   UNL     1       4.108  -1.750  -0.790  0.00  0.00    -0.312 N 
ATOM     26  C   UNL     1       3.427  -2.832  -1.517  0.00  0.00    +0.134 C 
ATOM     27  C   UNL     1       4.274  -3.239  -2.725  0.00  0.00    +0.178 C 
ATOM     28  O   UNL     1       5.578  -3.623  -2.280  0.00  0.00    -0.377 OA
ATOM     29  C   UNL     1       6.270  -2.592  -1.569  0.00  0.00    +0.178 C 
ATOM     30  C   UNL     1       5.443  -2.178  -0.349  0.00  0.00    +0.134 C 
ATOM     31  H   UNL     1       4.890  -1.691   1.633  0.00  0.00    +0.166 HD
ENDBRANCH  18  19
ENDBRANCH   3  18
TORSDOF 5
