REMARK  Name = ZINC67251063
REMARK  7 active torsions:
REMARK  status: ('A' for Active; 'I' for Inactive)
REMARK    1  A    between atoms: C_1  and  C_2
REMARK    2  A    between atoms: C_2  and  C_4
REMARK    3  A    between atoms: C_2  and  N_12
REMARK    4  A    between atoms: N_12  and  C_13
REMARK    5  A    between atoms: C_13  and  C_14
REMARK    6  A    between atoms: N_16  and  C_23
REMARK    7  A    between atoms: N_19  and  C_22
REMARK                            x       y       z     vdW  Elec       q    Type
REMARK                         _______ _______ _______ _____ _____    ______ ____
ROOT
ATOM      1  N   UNL     1       0.713  -0.491   1.192  0.00  0.00    +0.386 N 
ATOM      2  H   UNL     1       0.290  -0.099   2.020  0.00  0.00    -0.085 HD
ATOM      3  H   UNL     1       0.655  -1.497   1.230  0.00  0.00    -0.085 HD
ENDROOT
BRANCH   1   5
ATOM      4  C   UNL     1      -0.019   1.526   0.010  0.00  0.00    -0.009 C 
ATOM      5  C   UNL     1       0.002  -0.004   0.002  0.00  0.00    -0.044 C 
BRANCH   5   6
ATOM      6  C   UNL     1      -1.412  -0.526   0.013  0.00  0.00    -0.060 A 
ATOM      7  C   UNL     1      -2.122  -0.571   1.198  0.00  0.00    +0.005 A 
ATOM      8  C   UNL     1      -3.419  -1.048   1.210  0.00  0.00    +0.040 A 
ATOM      9  C   UNL     1      -4.007  -1.482   0.034  0.00  0.00    +0.142 A 
ATOM     10  C   UNL     1      -3.295  -1.437  -1.154  0.00  0.00    +0.076 A 
ATOM     11  C   UNL     1      -1.999  -0.953  -1.163  0.00  0.00    +0.025 A 
ATOM     12 CL   UNL     1      -4.030  -1.980  -2.629  0.00  0.00    -0.081 Cl
ATOM     13  F   UNL     1      -5.275  -1.950   0.044  0.00  0.00    -0.204 F 
ENDBRANCH   5   6
ENDBRANCH   1   5
BRANCH   1  14
ATOM     14  C   UNL     1       2.122  -0.083   1.122  0.00  0.00    -0.039 C 
BRANCH  14  15
ATOM     15  C   UNL     1       2.851  -0.582   2.343  0.00  0.00    +0.016 A 
ATOM     16  C   UNL     1       3.530  -1.748   2.305  0.00  0.00    +0.097 A 
ATOM     17  N   UNL     1       4.186  -2.187   3.423  0.00  0.00    -0.303 N 
ATOM     18  C   UNL     1       4.161  -1.467   4.559  0.00  0.00    +0.331 A 
ATOM     19  O   UNL     1       4.751  -1.876   5.541  0.00  0.00    -0.246 OA
ATOM     20  N   UNL     1       3.492  -0.301   4.624  0.00  0.00    -0.264 N 
ATOM     21  C   UNL     1       2.838   0.169   3.543  0.00  0.00    +0.258 A 
ATOM     22  O   UNL     1       2.237   1.227   3.600  0.00  0.00    -0.267 OA
ATOM     23  C   UNL     1       3.480   0.465   5.874  0.00  0.00    +0.157 C 
ATOM     24  C   UNL     1       4.923  -3.453   3.382  0.00  0.00    +0.153 C 
ENDBRANCH  14  15
ENDBRANCH   1  14
TORSDOF 4
