REMARK  Name = ZINC40695206
REMARK  3 active torsions:
REMARK  status: ('A' for Active; 'I' for Inactive)
REMARK    1  A    between atoms: C_3  and  N_8
REMARK    2  A    between atoms: N_8  and  C_9
REMARK    3  A    between atoms: C_9  and  C_15
REMARK                            x       y       z     vdW  Elec       q    Type
REMARK                         _______ _______ _______ _____ _____    ______ ____
ROOT
ATOM      1  C   UNL     1       4.902   1.491  -0.095  0.00  0.00    +0.105 C 
ATOM      2  C   UNL     1       5.155   0.734  -1.402  0.00  0.00    +0.016 C 
ATOM      3  C   UNL     1       5.051   1.707  -2.578  0.00  0.00    -0.080 C 
ATOM      4  N   UNL     1       6.051   2.771  -2.427  0.00  0.00    +0.379 N 
ATOM      5  C   UNL     1       5.772   3.547  -1.212  0.00  0.00    -0.080 C 
ATOM      6  C   UNL     1       5.904   2.644   0.016  0.00  0.00    +0.016 C 
ATOM      7  H   UNL     1       6.970   2.360  -2.358  0.00  0.00    -0.086 HD
ATOM      8  H   UNL     1       6.016   3.381  -3.230  0.00  0.00    -0.086 HD
ENDROOT
BRANCH   1   9
ATOM      9  C   UNL     1       5.079   0.556   1.073  0.00  0.00    +0.234 C 
ATOM     10  O   UNL     1       6.146   0.494   1.645  0.00  0.00    -0.274 OA
ATOM     11  N   UNL     1       4.049  -0.211   1.484  0.00  0.00    -0.328 N 
ATOM     12  H   UNL     1       3.175  -0.109   1.075  0.00  0.00    +0.145 HD
ATOM     13  H   UNL     1       4.182  -0.866   2.187  0.00  0.00    +0.145 HD
ENDBRANCH   1   9
BRANCH   1  14
ATOM     14  N   UNL     1       3.538   2.025  -0.094  0.00  0.00    -0.331 N 
ATOM     15  H   UNL     1       2.955   1.868  -0.853  0.00  0.00    +0.147 HD
BRANCH  14  18
ATOM     16  C   UNL     1       1.386   4.116   2.028  0.00  0.00    +0.003 A 
ATOM     17  C   UNL     1       1.840   3.390   0.944  0.00  0.00    +0.023 A 
ATOM     18  C   UNL     1       3.077   2.761   1.000  0.00  0.00    +0.029 A 
ATOM     19  C   UNL     1       3.855   2.865   2.146  0.00  0.00    +0.038 A 
ATOM     20  C   UNL     1       3.396   3.593   3.227  0.00  0.00    +0.020 A 
ATOM     21  C   UNL     1       2.162   4.218   3.167  0.00  0.00    +0.015 A 
ATOM     22 BR   UNL     1       4.453   3.736   4.788  0.00  0.00    -0.050 Br
ENDBRANCH  14  18
ENDBRANCH   1  14
TORSDOF 3
