REMARK  Name = ZINC66980992
REMARK  10 active torsions:
REMARK  status: ('A' for Active; 'I' for Inactive)
REMARK    1  A    between atoms: C_1  and  C_2
REMARK    2  A    between atoms: N_5  and  C_8
REMARK    3  A    between atoms: C_8  and  C_10
REMARK    4  A    between atoms: C_8  and  C_27
REMARK    5  A    between atoms: C_10  and  N_11
REMARK    6  A    between atoms: N_14  and  C_15
REMARK    7  A    between atoms: C_17  and  N_23
REMARK    8  A    between atoms: C_24  and  C_26
REMARK    9  A    between atoms: C_27  and  C_28
REMARK   10  A    between atoms: C_27  and  C_29
REMARK                            x       y       z     vdW  Elec       q    Type
REMARK                         _______ _______ _______ _____ _____    ______ ____
ROOT
ATOM      1  N   UNL     1      -1.876  -3.918   3.851  0.00  0.00    -0.301 N 
ATOM      2  C   UNL     1      -3.010  -4.358   3.270  0.00  0.00    +0.304 C 
ATOM      3  O   UNL     1      -2.958  -4.951   2.210  0.00  0.00    -0.253 OA
ATOM      4  N   UNL     1      -4.200  -4.141   3.864  0.00  0.00    -0.267 N 
ATOM      5  H   UNL     1      -1.917  -3.445   4.697  0.00  0.00    +0.150 HD
ATOM      6  H   UNL     1      -4.249  -3.603   4.670  0.00  0.00    +0.156 HD
ENDROOT
BRANCH   4   7
ATOM      7  C   UNL     1      -5.367  -4.693   3.318  0.00  0.00    +0.072 A 
ATOM      8  C   UNL     1      -5.293  -5.833   2.530  0.00  0.00    +0.052 A 
ATOM      9  C   UNL     1      -6.449  -6.378   1.991  0.00  0.00    +0.071 A 
ATOM     10  C   UNL     1      -7.680  -5.781   2.242  0.00  0.00    +0.147 A 
ATOM     11  C   UNL     1      -7.751  -4.644   3.027  0.00  0.00    +0.080 A 
ATOM     12  C   UNL     1      -6.600  -4.103   3.570  0.00  0.00    +0.147 A 
ATOM     13  F   UNL     1      -6.673  -2.997   4.342  0.00  0.00    -0.203 F 
ATOM     14  F   UNL     1      -8.806  -6.311   1.717  0.00  0.00    -0.203 F 
BRANCH   9  15
ATOM     15  N   UNL     1      -6.377  -7.528   1.195  0.00  0.00    -0.283 N 
ATOM     16  C   UNL     1      -5.346  -8.385   1.340  0.00  0.00    +0.214 C 
ATOM     17  O   UNL     1      -4.528  -8.206   2.217  0.00  0.00    -0.276 OA
ATOM     18  C   UNL     1      -5.211  -9.565   0.412  0.00  0.00    +0.109 C 
ATOM     19  H   UNL     1      -7.068  -7.708   0.539  0.00  0.00    +0.155 HD
ENDBRANCH   9  15
ENDBRANCH   4   7
BRANCH   1  20
ATOM     20  C   UNL     1      -0.582  -4.153   3.205  0.00  0.00    +0.091 C 
BRANCH  20  21
ATOM     21  C   UNL     1       0.543  -3.704   4.139  0.00  0.00    -0.048 C 
BRANCH  21  26
ATOM     22  C   UNL     1       0.659   1.884   5.273  0.00  0.00    +0.007 C 
ATOM     23  C   UNL     1       1.023   0.481   4.782  0.00  0.00    -0.018 C 
ATOM     24  C   UNL     1      -0.048  -0.013   3.805  0.00  0.00    -0.016 C 
ATOM     25  C   UNL     1       0.280  -1.446   3.379  0.00  0.00    -0.078 C 
ATOM     26  N   UNL     1       0.306  -2.317   4.561  0.00  0.00    +0.383 N 
ATOM     27  C   UNL     1       1.378  -1.893   5.469  0.00  0.00    -0.078 C 
ATOM     28  C   UNL     1       1.092  -0.477   5.975  0.00  0.00    -0.016 C 
ATOM     29  H   UNL     1      -0.581  -2.260   5.039  0.00  0.00    -0.081 HD
ENDBRANCH  21  26
BRANCH  21  30
ATOM     30  C   UNL     1       0.578  -4.612   5.370  0.00  0.00    -0.029 C 
ATOM     31  C   UNL     1      -0.742  -4.487   6.133  0.00  0.00    +0.005 C 
ATOM     32  C   UNL     1       0.776  -6.063   4.928  0.00  0.00    +0.005 C 
ENDBRANCH  21  30
ENDBRANCH  20  21
ENDBRANCH   1  20
TORSDOF 6
