REMARK  Name = ZINC22587486
REMARK  8 active torsions:
REMARK  status: ('A' for Active; 'I' for Inactive)
REMARK    1  A    between atoms: C_1  and  C_2
REMARK    2  A    between atoms: C_2  and  N_3
REMARK    3  A    between atoms: N_6  and  C_9
REMARK    4  A    between atoms: C_9  and  C_10
REMARK    5  A    between atoms: C_11  and  C_25
REMARK    6  A    between atoms: C_12  and  C_18
REMARK    7  A    between atoms: C_25  and  O_27
REMARK    8  A    between atoms: O_27  and  C_28
REMARK                            x       y       z     vdW  Elec       q    Type
REMARK                         _______ _______ _______ _____ _____    ______ ____
ROOT
ATOM      1  C   UNL     1       1.484   2.570   1.398  0.00  0.00    +0.038 C 
ATOM      2  C   UNL     1       1.364   1.996   0.181  0.00  0.00    +0.079 C 
ATOM      3  C   UNL     1       0.068   1.276  -0.133  0.00  0.00    +0.145 C 
ATOM      4  N   UNL     1      -0.960   1.260   0.921  0.00  0.00    -0.288 N 
ATOM      5  C   UNL     1      -0.692   1.880   2.087  0.00  0.00    +0.304 C 
ATOM      6  O   UNL     1      -1.534   1.873   2.964  0.00  0.00    -0.252 OA
ATOM      7  N   UNL     1       0.472   2.503   2.312  0.00  0.00    -0.271 N 
ATOM      8  H   UNL     1      -1.919   0.751   0.747  0.00  0.00    +0.151 HD
ATOM      9  H   UNL     1       0.589   2.977   3.298  0.00  0.00    +0.156 HD
ENDROOT
BRANCH   3  10
ATOM     10  C   UNL     1      -0.533   1.915  -1.358  0.00  0.00    -0.004 A 
ATOM     11  C   UNL     1      -1.441   2.948  -1.224  0.00  0.00    +0.007 A 
ATOM     12  C   UNL     1      -1.994   3.534  -2.347  0.00  0.00    +0.000 A 
ATOM     13  C   UNL     1      -1.638   3.087  -3.606  0.00  0.00    +0.001 A 
ATOM     14  C   UNL     1      -0.730   2.055  -3.742  0.00  0.00    +0.020 A 
ATOM     15  C   UNL     1      -0.173   1.471  -2.618  0.00  0.00    +0.046 A 
ATOM     16 CL   UNL     1       0.973   0.178  -2.788  0.00  0.00    -0.083 Cl
ENDBRANCH   3  10
BRANCH   2  17
ATOM     17  C   UNL     1       2.411   2.065  -0.767  0.00  0.00    +0.339 C 
ATOM     18  O   UNL     1       2.377   2.900  -1.652  0.00  0.00    -0.245 OA
BRANCH  17  19
ATOM     19  O   UNL     1       3.448   1.206  -0.691  0.00  0.00    -0.465 OA
ATOM     20  C   UNL     1       4.470   1.332  -1.681  0.00  0.00    +0.280 C 
ENDBRANCH  17  19
ENDBRANCH   2  17
BRANCH   1  21
ATOM     21  C   UNL     1       2.756   3.297   1.752  0.00  0.00    +0.135 C 
BRANCH  21  25
ATOM     22  N   UNL     1       2.845   7.513   1.497  0.00  0.00    +0.381 N 
ATOM     23  C   UNL     1       3.259   6.891   2.763  0.00  0.00    -0.063 C 
ATOM     24  C   UNL     1       3.625   5.426   2.511  0.00  0.00    +0.066 C 
ATOM     25  N   UNL     1       2.468   4.726   1.937  0.00  0.00    -0.300 NA
ATOM     26  C   UNL     1       2.054   5.348   0.672  0.00  0.00    +0.066 C 
ATOM     27  C   UNL     1       1.687   6.813   0.923  0.00  0.00    -0.063 C 
ATOM     28  H   UNL     1       3.680   7.428   0.787  0.00  0.00    -0.082 HD
BRANCH  22  30
ATOM     29  C   UNL     1       1.896   9.497   0.420  0.00  0.00    -0.017 C 
ATOM     30  C   UNL     1       2.557   8.941   1.683  0.00  0.00    -0.082 C 
ENDBRANCH  22  30
ENDBRANCH  21  25
ENDBRANCH   1  21
TORSDOF 6
