REMARK  Name = ZINC33697636
REMARK  7 active torsions:
REMARK  status: ('A' for Active; 'I' for Inactive)
REMARK    1  A    between atoms: C_1  and  C_2
REMARK    2  A    between atoms: C_2  and  O_3
REMARK    3  A    between atoms: O_3  and  C_4
REMARK    4  A    between atoms: C_7  and  C_10
REMARK    5  A    between atoms: N_18  and  C_21
REMARK    6  A    between atoms: C_29  and  N_33
REMARK    7  A    between atoms: C_30  and  C_31
REMARK                            x       y       z     vdW  Elec       q    Type
REMARK                         _______ _______ _______ _____ _____    ______ ____
ROOT
ATOM      1  C   UNL     1       1.109  -6.040  -1.847  0.00  0.00    +0.075 C 
ATOM      2  C   UNL     1       2.554  -6.408  -2.025  0.00  0.00    +0.110 C 
ATOM      3  C   UNL     1       3.115  -5.611  -3.244  0.00  0.00    +0.152 C 
ATOM      4  C   UNL     1       4.588  -5.750  -2.979  0.00  0.00    +0.240 C 
ATOM      5  O   UNL     1       5.476  -5.785  -3.804  0.00  0.00    -0.274 OA
ATOM      6  N   UNL     1       4.726  -5.830  -1.630  0.00  0.00    -0.209 N 
ATOM      7  C   UNL     1       3.556  -6.027  -0.982  0.00  0.00    +0.232 C 
ATOM      8  O   UNL     1       3.362  -5.920   0.210  0.00  0.00    -0.274 OA
ATOM      9  S   UNL     1       2.501  -6.496  -4.699  0.00  0.00    -0.096 S 
ATOM     10  C   UNL     1       0.786  -6.671  -4.292  0.00  0.00    +0.074 C 
ATOM     11  C   UNL     1       0.320  -6.460  -3.058  0.00  0.00    +0.064 C 
ENDROOT
BRANCH   6  12
ATOM     12  C   UNL     1       5.961  -5.708  -0.975  0.00  0.00    +0.044 A 
ATOM     13  C   UNL     1       6.026  -5.806   0.408  0.00  0.00    +0.027 A 
ATOM     14  C   UNL     1       7.243  -5.687   1.051  0.00  0.00    +0.040 A 
ATOM     15  C   UNL     1       8.396  -5.469   0.317  0.00  0.00    +0.124 A 
ATOM     16  C   UNL     1       8.333  -5.371  -1.063  0.00  0.00    +0.040 A 
ATOM     17  C   UNL     1       7.119  -5.496  -1.710  0.00  0.00    +0.027 A 
ATOM     18  F   UNL     1       9.585  -5.352   0.948  0.00  0.00    -0.205 F 
ENDBRANCH   6  12
BRANCH   1  22
ATOM     19  C   UNL     1       0.776  -1.810  -1.336  0.00  0.00    +0.121 A 
ATOM     20  C   UNL     1       0.765  -2.359  -2.610  0.00  0.00    +0.046 A 
ATOM     21  C   UNL     1       0.873  -3.727  -2.773  0.00  0.00    +0.008 A 
ATOM     22  C   UNL     1       0.992  -4.548  -1.667  0.00  0.00    -0.038 A 
ATOM     23  C   UNL     1       1.002  -4.003  -0.396  0.00  0.00    +0.008 A 
ATOM     24  C   UNL     1       0.900  -2.636  -0.229  0.00  0.00    +0.046 A 
BRANCH  19  25
ATOM     25  O   UNL     1       0.670  -0.465  -1.174  0.00  0.00    -0.492 OA
BRANCH  25  27
ATOM     26  C   UNL     1       0.439   1.802  -1.979  0.00  0.00    +0.048 C 
ATOM     27  C   UNL     1       0.545   0.324  -2.359  0.00  0.00    +0.225 C 
ENDBRANCH  25  27
ENDBRANCH  19  25
ENDBRANCH   1  22
BRANCH  10  28
ATOM     28  N   UNL     1      -0.094  -7.053  -5.276  0.00  0.00    -0.352 N 
ATOM     29  H   UNL     1       0.228  -7.222  -6.175  0.00  0.00    +0.143 HD
ATOM     30  H   UNL     1      -1.037  -7.154  -5.071  0.00  0.00    +0.143 HD
ENDBRANCH  10  28
BRANCH  11  31
ATOM     31  C   UNL     1      -1.090  -6.634  -2.876  0.00  0.00    +0.098 C 
ATOM     32  N   UNL     1      -2.208  -6.772  -2.731  0.00  0.00    -0.191 NA
ENDBRANCH  11  31
TORSDOF 6
