REMARK  Name = ZINC29471444
REMARK  7 active torsions:
REMARK  status: ('A' for Active; 'I' for Inactive)
REMARK    1  A    between atoms: C_1  and  C_2
REMARK    2  A    between atoms: C_2  and  C_3
REMARK    3  A    between atoms: C_3  and  C_5
REMARK    4  A    between atoms: C_3  and  N_6
REMARK    5  A    between atoms: C_7  and  S_9
REMARK    6  A    between atoms: S_9  and  C_10
REMARK    7  A    between atoms: C_10  and  C_11
REMARK                            x       y       z     vdW  Elec       q    Type
REMARK                         _______ _______ _______ _____ _____    ______ ____
ROOT
ATOM      1  C   UNL     1       0.228  -4.131  -0.291  0.00  0.00    +0.132 C 
ENDROOT
BRANCH   1   2
ATOM      2  C   UNL     1       0.207  -2.640  -0.509  0.00  0.00    +0.059 A 
ATOM      3  C   UNL     1      -0.998  -1.966  -0.555  0.00  0.00    +0.094 A 
ATOM      4  C   UNL     1      -0.992  -0.581  -0.759  0.00  0.00    +0.259 A 
ATOM      5  O   UNL     1      -2.040   0.043  -0.805  0.00  0.00    -0.267 OA
ATOM      6  N   UNL     1       0.191   0.053  -0.904  0.00  0.00    -0.268 N 
ATOM      7  C   UNL     1       0.213   1.400  -1.102  0.00  0.00    +0.096 A 
ATOM      8  C   UNL     1       1.385   2.057  -1.250  0.00  0.00    +0.018 A 
ATOM      9  C   UNL     1       2.598   1.355  -1.201  0.00  0.00    +0.005 A 
ATOM     10  C   UNL     1       2.586   0.007  -1.002  0.00  0.00    +0.047 A 
ATOM     11  C   UNL     1       1.357  -0.659  -0.850  0.00  0.00    +0.140 A 
ATOM     12  N   UNL     1       1.343  -1.977  -0.656  0.00  0.00    -0.233 NA
ENDBRANCH   1   2
BRANCH   1  13
ATOM     13  S   UNL     1       0.606  -4.964  -1.853  0.00  0.00    -0.087 S 
BRANCH  13  15
ATOM     14  N   UNL     1       0.309  -6.927  -0.075  0.00  0.00    -0.366 N 
ATOM     15  C   UNL     1       0.567  -6.643  -1.322  0.00  0.00    +0.126 C 
ATOM     16  N   UNL     1       0.809  -7.655  -2.222  0.00  0.00    -0.339 N 
ATOM     17  H   UNL     1       1.027  -7.416  -3.273  0.00  0.00    +0.144 HD
ATOM     18  H   UNL     1       0.785  -8.704  -1.890  0.00  0.00    +0.144 HD
ATOM     19  H   UNL     1       0.205  -6.118   0.663  0.00  0.00    +0.162 HD
BRANCH  14  20
ATOM     20  C   UNL     1       0.158  -8.323   0.342  0.00  0.00    +0.078 C 
ATOM     21  C   UNL     1      -1.286  -8.570   0.783  0.00  0.00    +0.030 C 
BRANCH  20  23
ATOM     22  C   UNL     1       2.553  -8.487   1.033  0.00  0.00    +0.006 C 
ATOM     23  C   UNL     1       1.104  -8.612   1.508  0.00  0.00    +0.021 C 
ENDBRANCH  20  23
ENDBRANCH  14  20
ENDBRANCH  13  15
ENDBRANCH   1  13
TORSDOF 5
