REMARK  Name = ZINC37270076
REMARK  3 active torsions:
REMARK  status: ('A' for Active; 'I' for Inactive)
REMARK    1  A    between atoms: C_1  and  N_2
REMARK    2  A    between atoms: C_9  and  N_14
REMARK    3  A    between atoms: N_14  and  C_15
REMARK                            x       y       z     vdW  Elec       q    Type
REMARK                         _______ _______ _______ _____ _____    ______ ____
ROOT
ATOM      1  C   UNL     1      -0.215   1.479   0.348  0.00  0.00    +0.138 C 
ATOM      2  N   UNL     1      -0.150   0.019   0.252  0.00  0.00    -0.274 N 
ATOM      3  C   UNL     1      -1.331  -0.730   0.264  0.00  0.00    +0.038 A 
ATOM      4  C   UNL     1      -2.547  -0.122  -0.019  0.00  0.00    +0.024 A 
ATOM      5  C   UNL     1      -3.709  -0.869  -0.006  0.00  0.00    +0.002 A 
ATOM      6  C   UNL     1      -3.662  -2.220   0.288  0.00  0.00    +0.000 A 
ATOM      7  C   UNL     1      -2.453  -2.828   0.569  0.00  0.00    +0.004 A 
ATOM      8  C   UNL     1      -1.288  -2.087   0.558  0.00  0.00    -0.040 A 
ATOM      9  C   UNL     1       0.032  -2.746   0.864  0.00  0.00    -0.030 C 
ATOM     10  C   UNL     1       1.136  -2.089   0.034  0.00  0.00    +0.085 C 
ATOM     11  C   UNL     1       1.044  -0.592   0.146  0.00  0.00    +0.218 C 
ATOM     12  O   UNL     1       2.059   0.073   0.147  0.00  0.00    -0.275 OA
ENDROOT
BRANCH   9  13
ATOM     13  N   UNL     1      -0.045  -4.175   0.531  0.00  0.00    +0.386 N 
ATOM     14  H   UNL     1      -0.819  -4.593   1.026  0.00  0.00    -0.085 HD
ATOM     15  H   UNL     1      -0.184  -4.282  -0.462  0.00  0.00    -0.085 HD
BRANCH  13  16
ATOM     16  C   UNL     1       1.205  -4.838   0.925  0.00  0.00    -0.068 C 
ATOM     17  C   UNL     1       1.196  -6.274   0.411  0.00  0.00    +0.007 C 
ATOM     18  C   UNL     1       2.585  -6.896   0.571  0.00  0.00    +0.164 C 
ATOM     19  S   UNL     1       2.995  -6.970   2.340  0.00  0.00    -0.031 S 
ATOM     20  O   UNL     1       4.375  -7.281   2.472  0.00  0.00    -0.174 OA
ATOM     21  O   UNL     1       2.035  -7.790   2.993  0.00  0.00    -0.174 OA
ATOM     22  C   UNL     1       2.738  -5.248   2.861  0.00  0.00    +0.164 C 
ATOM     23  C   UNL     1       1.331  -4.810   2.445  0.00  0.00    +0.007 C 
ENDBRANCH  13  16
ENDBRANCH   9  13
TORSDOF 2
