REMARK  Name = ZINC63154980
REMARK  8 active torsions:
REMARK  status: ('A' for Active; 'I' for Inactive)
REMARK    1  A    between atoms: C_1  and  C_2
REMARK    2  A    between atoms: C_7  and  C_9
REMARK    3  A    between atoms: C_7  and  N_11
REMARK    4  A    between atoms: C_9  and  N_10
REMARK    5  A    between atoms: N_11  and  C_12
REMARK    6  A    between atoms: N_11  and  S_13
REMARK    7  A    between atoms: S_13  and  C_16
REMARK    8  A    between atoms: C_16  and  C_17
REMARK                            x       y       z     vdW  Elec       q    Type
REMARK                         _______ _______ _______ _____ _____    ______ ____
ROOT
ATOM      1  C   UNL     1       0.719   3.368   1.251  0.00  0.00    +0.007 C 
ATOM      2  C   UNL     1       0.392   2.428   0.089  0.00  0.00    -0.012 C 
ATOM      3  C   UNL     1      -1.030   2.700  -0.404  0.00  0.00    +0.003 C 
ATOM      4  C   UNL     1      -2.020   2.462   0.739  0.00  0.00    +0.002 C 
ATOM      5  C   UNL     1      -1.913   1.011   1.212  0.00  0.00    +0.022 C 
ATOM      6  C   UNL     1      -0.490   0.738   1.704  0.00  0.00    +0.027 C 
ATOM      7  C   UNL     1       0.499   0.977   0.562  0.00  0.00    +0.025 C 
ENDROOT
BRANCH   6   8
ATOM      8  N   UNL     1      -0.178   1.639   2.817  0.00  0.00    -0.180 NA
ATOM      9  C   UNL     1      -1.146   2.658   3.228  0.00  0.00    +0.131 C 
BRANCH   8  10
ATOM     10  S   UNL     1       1.270   1.504   3.609  0.00  0.00    +0.034 S 
ATOM     11  O   UNL     1       0.921   1.323   4.974  0.00  0.00    -0.158 OA
ATOM     12  O   UNL     1       1.978   0.495   2.902  0.00  0.00    -0.158 OA
BRANCH  10  13
ATOM     13  C   UNL     1       2.078   3.112   3.380  0.00  0.00    +0.216 C 
BRANCH  13  14
ATOM     14  C   UNL     1       3.252   3.237   4.353  0.00  0.00    +0.141 C 
ATOM     15  C   UNL     1       3.871   4.647   4.249  0.00  0.00    +0.035 C 
ATOM     16  C   UNL     1       5.390   4.351   4.371  0.00  0.00    +0.031 C 
ATOM     17  C   UNL     1       5.481   2.980   3.654  0.00  0.00    +0.160 C 
ATOM     18  O   UNL     1       4.270   2.289   4.010  0.00  0.00    -0.375 OA
ENDBRANCH  13  14
ENDBRANCH  10  13
ENDBRANCH   8  10
ENDBRANCH   6   8
BRANCH   6  19
ATOM     19  C   UNL     1      -0.383  -0.713   2.177  0.00  0.00    -0.062 C 
BRANCH  19  20
ATOM     20  N   UNL     1      -1.379  -0.960   3.229  0.00  0.00    +0.379 N 
ATOM     21  H   UNL     1      -1.308  -1.917   3.541  0.00  0.00    -0.090 HD
ATOM     22  H   UNL     1      -1.208  -0.339   4.006  0.00  0.00    -0.090 HD
ATOM     23  H   UNL     1      -2.304  -0.793   2.862  0.00  0.00    -0.090 HD
ENDBRANCH  19  20
ENDBRANCH   6  19
TORSDOF 6
