REMARK  Name = ZINC04468956
REMARK  6 active torsions:
REMARK  status: ('A' for Active; 'I' for Inactive)
REMARK    1  A    between atoms: C_3  and  C_20
REMARK    2  A    between atoms: C_5  and  N_7
REMARK    3  A    between atoms: N_7  and  N_8
REMARK    4  A    between atoms: C_9  and  C_10
REMARK    5  A    between atoms: C_9  and  C_13
REMARK    6  A    between atoms: C_10  and  N_12
REMARK                            x       y       z     vdW  Elec       q    Type
REMARK                         _______ _______ _______ _____ _____    ______ ____
ROOT
ATOM      1  N   UNL     1       0.140  -2.751  -0.024  0.00  0.00    -0.175 NA
ATOM      2  C   UNL     1       0.167  -4.053   0.175  0.00  0.00    +0.171 C 
ENDROOT
BRANCH   2   3
ATOM      3  C   UNL     1       1.456  -4.756   0.268  0.00  0.00    +0.269 C 
ATOM      4  O   UNL     1       1.938  -5.279  -0.719  0.00  0.00    -0.268 OA
ATOM      5  N   UNL     1       2.104  -4.822   1.448  0.00  0.00    -0.296 N 
ATOM      6  C   UNL     1       1.589  -4.335   2.737  0.00  0.00    +0.108 C 
ATOM      7  C   UNL     1       2.681  -4.597   3.795  0.00  0.00    +0.020 C 
ATOM      8  C   UNL     1       3.974  -4.702   2.943  0.00  0.00    +0.020 C 
ATOM      9  C   UNL     1       3.444  -5.399   1.663  0.00  0.00    +0.108 C 
ENDBRANCH   2   3
BRANCH   1  10
ATOM     10  N   UNL     1       1.238  -2.108  -0.238  0.00  0.00    -0.237 N 
ATOM     11  H   UNL     1       2.073  -2.592  -0.328  0.00  0.00    +0.174 HD
BRANCH  10  16
ATOM     12  C   UNL     1       0.003   1.347  -0.422  0.00  0.00    +0.002 A 
ATOM     13  C   UNL     1       1.192   2.043  -0.546  0.00  0.00    +0.012 A 
ATOM     14  C   UNL     1       2.396   1.363  -0.568  0.00  0.00    +0.057 A 
ATOM     15  C   UNL     1       2.415  -0.015  -0.466  0.00  0.00    +0.037 A 
ATOM     16  C   UNL     1       1.222  -0.717  -0.341  0.00  0.00    +0.049 A 
ATOM     17  C   UNL     1       0.014  -0.030  -0.320  0.00  0.00    +0.025 A 
BRANCH  14  18
ATOM     18  C   UNL     1       3.689   2.125  -0.705  0.00  0.00    +0.417 C 
ATOM     19  F   UNL     1       3.416   3.494  -0.791  0.00  0.00    -0.166 F 
ATOM     20  F   UNL     1       4.495   1.880   0.412  0.00  0.00    -0.166 F 
ATOM     21  F   UNL     1       4.356   1.709  -1.862  0.00  0.00    -0.166 F 
ENDBRANCH  14  18
ENDBRANCH  10  16
ENDBRANCH   1  10
BRANCH   2  22
ATOM     22  C   UNL     1      -1.089  -4.803   0.302  0.00  0.00    +0.102 C 
ATOM     23  S   UNL     1      -1.054  -6.495   0.560  0.00  0.00    -0.033 S 
BRANCH  22  24
ATOM     24  N   UNL     1      -2.270  -4.159   0.216  0.00  0.00    -0.350 N 
ATOM     25  H   UNL     1      -2.290  -3.201   0.070  0.00  0.00    +0.143 HD
ATOM     26  H   UNL     1      -3.100  -4.655   0.300  0.00  0.00    +0.143 HD
ENDBRANCH  22  24
ENDBRANCH   2  22
TORSDOF 6
