REMARK  Name = ZINC43410416
REMARK  7 active torsions:
REMARK  status: ('A' for Active; 'I' for Inactive)
REMARK    1  A    between atoms: C_1  and  C_2
REMARK    2  A    between atoms: C_2  and  C_4
REMARK    3  A    between atoms: C_2  and  N_7
REMARK    4  A    between atoms: C_4  and  C_5
REMARK    5  A    between atoms: C_4  and  C_6
REMARK    6  A    between atoms: N_7  and  C_8
REMARK    7  A    between atoms: C_10  and  C_19
REMARK                            x       y       z     vdW  Elec       q    Type
REMARK                         _______ _______ _______ _____ _____    ______ ____
ROOT
ATOM      1  N   UNL     1      -1.335  -0.178  -0.232  0.00  0.00    -0.315 N 
ATOM      2  C   UNL     1      -0.508  -0.540   0.922  0.00  0.00    +0.131 C 
ATOM      3  C   UNL     1      -1.741  -1.153  -1.125  0.00  0.00    +0.132 A 
ATOM      4  C   UNL     1      -3.010  -1.742  -0.990  0.00  0.00    +0.052 A 
ATOM      5  C   UNL     1      -3.387  -2.726  -1.905  0.00  0.00    +0.020 A 
ATOM      6  C   UNL     1      -2.498  -3.082  -2.913  0.00  0.00    -0.025 A 
ATOM      7  C   UNL     1      -1.273  -2.456  -2.989  0.00  0.00    +0.047 A 
ATOM      8  N   UNL     1      -0.939  -1.523  -2.106  0.00  0.00    -0.236 NA
ATOM      9  C   UNL     1      -0.269  -2.780  -4.067  0.00  0.00    +0.056 C 
ATOM     10  C   UNL     1      -0.593  -4.123  -4.716  0.00  0.00    +0.006 C 
ATOM     11  C   UNL     1      -2.066  -4.115  -5.141  0.00  0.00    +0.005 C 
ATOM     12  C   UNL     1      -2.929  -4.151  -3.881  0.00  0.00    +0.037 C 
ENDROOT
BRANCH   4  13
ATOM     13  C   UNL     1      -3.922  -1.331   0.096  0.00  0.00    +0.098 C 
ATOM     14  N   UNL     1      -5.138  -0.869  -0.195  0.00  0.00    -0.387 N 
ATOM     15  N   UNL     1      -3.529  -1.421   1.366  0.00  0.00    -0.344 N 
ATOM     16  H   UNL     1      -5.397  -0.734  -1.120  0.00  0.00    +0.157 HD
ATOM     17  H   UNL     1      -2.625  -1.703   1.576  0.00  0.00    +0.144 HD
ATOM     18  H   UNL     1      -4.148  -1.206   2.081  0.00  0.00    +0.144 HD
ATOM     19  H   UNL     1      -5.763  -0.667   0.518  0.00  0.00    +0.157 HD
ENDBRANCH   4  13
BRANCH   1  21
ATOM     20  C   UNL     1      -2.543   1.702   0.763  0.00  0.00    +0.028 C 
ATOM     21  C   UNL     1      -1.731   1.217  -0.440  0.00  0.00    +0.074 C 
BRANCH  21  22
ATOM     22  C   UNL     1      -0.481   2.085  -0.594  0.00  0.00    +0.003 C 
ATOM     23  C   UNL     1       0.331   1.601  -1.797  0.00  0.00    +0.009 C 
ATOM     24  C   UNL     1      -0.894   3.542  -0.812  0.00  0.00    +0.009 C 
ENDBRANCH  21  22
ENDBRANCH   1  21
TORSDOF 3
