REMARK  Name = ZINC41301852
REMARK  9 active torsions:
REMARK  status: ('A' for Active; 'I' for Inactive)
REMARK    1  A    between atoms: C_1  and  N_2
REMARK    2  A    between atoms: N_2  and  C_3
REMARK    3  A    between atoms: N_2  and  C_4
REMARK    4  A    between atoms: C_4  and  C_5
REMARK    5  A    between atoms: C_5  and  N_6
REMARK    6  A    between atoms: C_10  and  N_25
REMARK    7  A    between atoms: C_11  and  N_13
REMARK    8  A    between atoms: N_13  and  C_14
REMARK    9  A    between atoms: C_15  and  C_22
REMARK                            x       y       z     vdW  Elec       q    Type
REMARK                         _______ _______ _______ _____ _____    ______ ____
ROOT
ATOM      1  N   UNL     1      -2.733  -2.544  -0.111  0.00  0.00    -0.315 N 
ATOM      2  C   UNL     1      -2.970  -3.903  -0.221  0.00  0.00    +0.219 A 
ATOM      3  N   UNL     1      -1.941  -4.730  -0.329  0.00  0.00    -0.198 NA
ATOM      4  C   UNL     1      -2.131  -6.043  -0.435  0.00  0.00    +0.154 A 
ATOM      5  C   UNL     1      -3.430  -6.542  -0.432  0.00  0.00    +0.205 A 
ATOM      6  C   UNL     1      -4.485  -5.642  -0.317  0.00  0.00    +0.161 A 
ATOM      7  N   UNL     1      -4.219  -4.342  -0.209  0.00  0.00    -0.197 NA
ATOM      8  N   UNL     1      -1.049  -6.902  -0.548  0.00  0.00    -0.341 N 
ATOM      9  H   UNL     1      -3.477  -1.927  -0.028  0.00  0.00    +0.149 HD
ATOM     10  H   UNL     1      -0.146  -6.547  -0.550  0.00  0.00    +0.144 HD
ATOM     11  H   UNL     1      -1.194  -7.858  -0.626  0.00  0.00    +0.144 HD
ENDROOT
BRANCH   5  12
ATOM     12  N   UNL     1      -3.684  -7.996  -0.550  0.00  0.00    +0.063 N 
ATOM     13  O   UNL     1      -3.751  -8.680   0.445  0.00  0.00    -0.126 OA
ATOM     14  O   UNL     1      -3.825  -8.499  -1.640  0.00  0.00    -0.126 OA
ENDBRANCH   5  12
BRANCH   6  15
ATOM     15  N   UNL     1      -5.797  -6.094  -0.310  0.00  0.00    -0.291 N 
ATOM     16  H   UNL     1      -5.984  -7.043  -0.386  0.00  0.00    +0.154 HD
BRANCH  15  17
ATOM     17  C   UNL     1      -6.840  -5.191  -0.196  0.00  0.00    +0.084 A 
ATOM     18  C   UNL     1      -8.197  -5.457  -0.165  0.00  0.00    +0.068 A 
ATOM     19  C   UNL     1      -9.101  -4.314  -0.036  0.00  0.00    -0.023 A 
ATOM     20  C   UNL     1      -8.475  -3.126   0.037  0.00  0.00    -0.004 A 
ATOM     21  S   UNL     1      -6.748  -3.522  -0.053  0.00  0.00    -0.077 S 
ATOM     22  C   UNL     1      -9.450  -1.987   0.164  0.00  0.00    +0.043 C 
ATOM     23  C   UNL     1     -10.807  -2.583  -0.269  0.00  0.00    +0.010 C 
ATOM     24  C   UNL     1     -10.607  -4.080   0.045  0.00  0.00    +0.037 C 
BRANCH  18  25
ATOM     25  C   UNL     1      -8.708  -6.827  -0.259  0.00  0.00    +0.244 C 
ATOM     26  O   UNL     1      -8.880  -7.483   0.751  0.00  0.00    -0.270 OA
ATOM     27  N   UNL     1      -8.987  -7.361  -1.465  0.00  0.00    -0.325 N 
ATOM     28  H   UNL     1      -8.850  -6.838  -2.270  0.00  0.00    +0.145 HD
ATOM     29  H   UNL     1      -9.326  -8.268  -1.527  0.00  0.00    +0.145 HD
ENDBRANCH  18  25
ENDBRANCH  15  17
ENDBRANCH   6  15
BRANCH   1  30
ATOM     30  C   UNL     1      -1.358  -2.037  -0.122  0.00  0.00    +0.086 C 
BRANCH  30  31
ATOM     31  C   UNL     1      -1.376  -0.512   0.012  0.00  0.00    -0.061 C 
BRANCH  31  33
ATOM     32  C   UNL     1      -0.018   1.465   0.010  0.00  0.00    -0.097 C 
ATOM     33  N   UNL     1       0.002  -0.004   0.002  0.00  0.00    +0.377 N 
ATOM     34  C   UNL     1       0.713  -0.491   1.192  0.00  0.00    -0.097 C 
ATOM     35  H   UNL     1       0.474  -0.330  -0.828  0.00  0.00    -0.083 HD
ENDBRANCH  31  33
ENDBRANCH  30  31
ENDBRANCH   1  30
TORSDOF 7
