REMARK  Name = ZINC44186090
REMARK  7 active torsions:
REMARK  status: ('A' for Active; 'I' for Inactive)
REMARK    1  A    between atoms: C_1  and  C_2
REMARK    2  A    between atoms: C_2  and  C_4
REMARK    3  A    between atoms: C_2  and  O_21
REMARK    4  A    between atoms: C_7  and  O_19
REMARK    5  A    between atoms: C_8  and  C_10
REMARK    6  A    between atoms: C_10  and  N_11
REMARK    7  A    between atoms: O_19  and  C_20
REMARK                            x       y       z     vdW  Elec       q    Type
REMARK                         _______ _______ _______ _____ _____    ______ ____
ROOT
ATOM      1  C   UNL     1       0.731  -0.503   1.223  0.00  0.00    -0.019 A 
ATOM      2  C   UNL     1       0.052  -0.656   2.418  0.00  0.00    +0.010 A 
ATOM      3  C   UNL     1       0.718  -1.113   3.538  0.00  0.00    +0.046 A 
ATOM      4  C   UNL     1       2.069  -1.419   3.464  0.00  0.00    +0.125 A 
ATOM      5  C   UNL     1       2.748  -1.266   2.264  0.00  0.00    +0.012 A 
ATOM      6  C   UNL     1       2.076  -0.813   1.145  0.00  0.00    +0.015 A 
ENDROOT
BRANCH   1   8
ATOM      7  C   UNL     1      -0.019   1.526   0.010  0.00  0.00    +0.043 C 
ATOM      8  C   UNL     1       0.002  -0.004   0.002  0.00  0.00    +0.141 C 
BRANCH   8   9
ATOM      9  O   UNL     1      -1.339  -0.499   0.012  0.00  0.00    -0.387 OA
ATOM     10  H   UNL     1      -1.853  -0.225   0.784  0.00  0.00    +0.210 HD
ENDBRANCH   8   9
ENDBRANCH   1   8
BRANCH   4  11
ATOM     11  O   UNL     1       2.727  -1.869   4.566  0.00  0.00    -0.495 OA
ATOM     12  C   UNL     1       1.964  -2.002   5.767  0.00  0.00    +0.277 C 
ENDBRANCH   4  11
BRANCH   5  13
ATOM     13  C   UNL     1       4.215  -1.597   2.180  0.00  0.00    +0.155 C 
BRANCH  13  14
ATOM     14  N   UNL     1       4.382  -3.047   2.046  0.00  0.00    -0.238 N 
ATOM     15  C   UNL     1       4.493  -3.788   3.159  0.00  0.00    +0.222 C 
ATOM     16  O   UNL     1       4.463  -3.243   4.241  0.00  0.00    -0.275 OA
ATOM     17  C   UNL     1       4.654  -5.284   3.089  0.00  0.00    +0.097 C 
ATOM     18  C   UNL     1       5.366  -5.652   1.783  0.00  0.00    +0.018 C 
ATOM     19  C   UNL     1       4.573  -5.064   0.611  0.00  0.00    +0.097 C 
ATOM     20  C   UNL     1       4.411  -3.581   0.816  0.00  0.00    +0.222 C 
ATOM     21  O   UNL     1       4.310  -2.855  -0.150  0.00  0.00    -0.275 OA
ENDBRANCH  13  14
ENDBRANCH   5  13
TORSDOF 5
