REMARK  Name = ZINC42561832
REMARK  11 active torsions:
REMARK  status: ('A' for Active; 'I' for Inactive)
REMARK    1  A    between atoms: C_1  and  C_2
REMARK    2  A    between atoms: C_2  and  C_4
REMARK    3  A    between atoms: C_2  and  N_8
REMARK    4  A    between atoms: C_4  and  C_5
REMARK    5  A    between atoms: C_5  and  C_6
REMARK    6  A    between atoms: C_5  and  C_7
REMARK    7  A    between atoms: N_8  and  C_9
REMARK    8  A    between atoms: N_8  and  C_10
REMARK    9  A    between atoms: C_10  and  C_11
REMARK   10  A    between atoms: N_13  and  C_14
REMARK   11  A    between atoms: C_17  and  N_21
REMARK                            x       y       z     vdW  Elec       q    Type
REMARK                         _______ _______ _______ _____ _____    ______ ____
ROOT
ATOM      1  C   UNL     1       1.405  -0.138  -3.646  0.00  0.00    +0.201 C 
ATOM      2  O   UNL     1       2.254  -0.991  -3.494  0.00  0.00    -0.278 OA
ATOM      3  N   UNL     1       1.205   0.404  -4.863  0.00  0.00    -0.286 N 
ATOM      4  H   UNL     1       0.567   1.127  -4.973  0.00  0.00    +0.155 HD
ENDROOT
BRANCH   3   5
ATOM      5  C   UNL     1       1.918  -0.076  -5.971  0.00  0.00    +0.048 A 
ATOM      6  C   UNL     1       3.176  -0.637  -5.796  0.00  0.00    +0.026 A 
ATOM      7  C   UNL     1       3.878  -1.111  -6.886  0.00  0.00    +0.024 A 
ATOM      8  C   UNL     1       3.327  -1.026  -8.158  0.00  0.00    +0.026 A 
ATOM      9  C   UNL     1       2.069  -0.465  -8.333  0.00  0.00    +0.039 A 
ATOM     10  C   UNL     1       1.363   0.004  -7.242  0.00  0.00    +0.041 A 
ATOM     11 BR   UNL     1      -0.353   0.761  -7.479  0.00  0.00    -0.048 Br
BRANCH   8  12
ATOM     12  N   UNL     1       4.039  -1.505  -9.262  0.00  0.00    -0.358 N 
ATOM     13  H   UNL     1       4.918  -1.897  -9.140  0.00  0.00    +0.142 HD
ATOM     14  H   UNL     1       3.654  -1.446 -10.151  0.00  0.00    +0.142 HD
ENDBRANCH   8  12
ENDBRANCH   3   5
BRANCH   1  15
ATOM     15  C   UNL     1       0.574   0.315  -2.473  0.00  0.00    +0.019 C 
BRANCH  15  16
ATOM     16  N   UNL     1       0.982  -0.422  -1.270  0.00  0.00    +0.385 N 
ATOM     17  C   UNL     1       0.637  -1.841  -1.423  0.00  0.00    -0.095 C 
ATOM     18  H   UNL     1       1.979  -0.330  -1.141  0.00  0.00    -0.081 HD
BRANCH  16  20
ATOM     19  C   UNL     1      -1.222   0.136  -0.360  0.00  0.00    -0.013 C 
ATOM     20  C   UNL     1       0.285   0.128  -0.099  0.00  0.00    -0.071 C 
BRANCH  20  21
ATOM     21  C   UNL     1       0.766   1.558   0.156  0.00  0.00    -0.013 C 
BRANCH  21  22
ATOM     22  C   UNL     1       2.257   1.541   0.501  0.00  0.00    -0.019 C 
ATOM     23  C   UNL     1       2.774   2.977   0.598  0.00  0.00    +0.007 C 
ATOM     24  C   UNL     1       2.462   0.833   1.841  0.00  0.00    +0.007 C 
ENDBRANCH  21  22
ENDBRANCH  20  21
ENDBRANCH  16  20
ENDBRANCH  15  16
ENDBRANCH   1  15
TORSDOF 7
