REMARK  Name = ZINC63807276
REMARK  5 active torsions:
REMARK  status: ('A' for Active; 'I' for Inactive)
REMARK    1  A    between atoms: C_1  and  O_2
REMARK    2  A    between atoms: O_2  and  C_3
REMARK    3  A    between atoms: C_3  and  C_4
REMARK    4  A    between atoms: C_9  and  C_11
REMARK    5  A    between atoms: C_11  and  N_17
REMARK                            x       y       z     vdW  Elec       q    Type
REMARK                         _______ _______ _______ _____ _____    ______ ____
ROOT
ATOM      1  C   UNL     1      -0.686  -8.400  -0.481  0.00  0.00    +0.112 C 
ATOM      2  C   UNL     1       0.714  -8.978  -0.698  0.00  0.00    +0.033 C 
ATOM      3  C   UNL     1       1.522  -8.856   0.595  0.00  0.00    +0.002 C 
ATOM      4  C   UNL     1       0.818  -9.630   1.712  0.00  0.00    +0.000 C 
ATOM      5  C   UNL     1      -0.582  -9.052   1.929  0.00  0.00    +0.002 C 
ATOM      6  C   UNL     1      -1.390  -9.174   0.635  0.00  0.00    +0.033 C 
ENDROOT
BRANCH   1  12
ATOM      7  C   UNL     1      -0.301  -2.080  -0.402  0.00  0.00    +0.129 A 
ATOM      8  N   UNL     1      -0.526  -2.853   0.642  0.00  0.00    -0.142 NA
ATOM      9  N   UNL     1      -0.554  -4.106   0.484  0.00  0.00    -0.126 NA
ATOM     10  C   UNL     1      -0.364  -4.664  -0.696  0.00  0.00    +0.188 A 
ATOM     11  N   UNL     1      -0.362  -6.012  -1.038  0.00  0.00    -0.262 N 
ATOM     12  C   UNL     1      -0.576  -6.948  -0.093  0.00  0.00    +0.240 C 
ATOM     13  O   UNL     1      -0.679  -6.622   1.071  0.00  0.00    -0.273 OA
ATOM     14  S   UNL     1      -0.132  -3.316  -1.681  0.00  0.00    -0.033 S 
ATOM     15  H   UNL     1      -0.207  -6.278  -1.958  0.00  0.00    +0.157 HD
BRANCH   7  16
ATOM     16  C   UNL     1      -0.217  -0.578  -0.492  0.00  0.00    +0.224 C 
BRANCH  16  18
ATOM     17  C   UNL     1       1.325   1.252  -0.352  0.00  0.00    +0.194 C 
ATOM     18  O   UNL     1       1.135  -0.163  -0.286  0.00  0.00    -0.376 OA
ENDBRANCH  16  18
ENDBRANCH   7  16
ENDBRANCH   1  12
BRANCH   1  19
ATOM     19  N   UNL     1      -1.462  -8.517  -1.723  0.00  0.00    -0.228 NA
ATOM     20  C   UNL     1      -1.663  -9.943  -2.093  0.00  0.00    +0.169 C 
ATOM     21  N   UNL     1      -2.881  -9.887  -2.945  0.00  0.00    -0.335 NA
ATOM     22  N   UNL     1      -3.714  -8.861  -2.314  0.00  0.00    +0.408 N 
ATOM     23  N   UNL     1      -2.821  -7.998  -1.544  0.00  0.00    -0.280 NA
ATOM     24  H   UNL     1      -2.647  -9.631  -3.893  0.00  0.00    +0.105 HD
ATOM     25  H   UNL     1      -4.189  -8.320  -3.021  0.00  0.00    -0.032 HD
ATOM     26  H   UNL     1      -3.079  -7.988  -0.568  0.00  0.00    +0.121 HD
ATOM     27  H   UNL     1      -4.387  -9.294  -1.699  0.00  0.00    -0.032 HD
ENDBRANCH   1  19
TORSDOF 4
