REMARK  Name = ZINC40779960
REMARK  8 active torsions:
REMARK  status: ('A' for Active; 'I' for Inactive)
REMARK    1  A    between atoms: CD1_1  and  CG_2
REMARK    2  A    between atoms: CG_2  and  CD2_3
REMARK    3  A    between atoms: CG_2  and  CB_4
REMARK    4  A    between atoms: CB_4  and  CA_5
REMARK    5  A    between atoms: CA_5  and  C_7
REMARK    6  A    between atoms: CA_5  and  N_9
REMARK    7  A    between atoms: C_7  and  O_8
REMARK    8  A    between atoms: C_10  and  CA_12
REMARK                            x       y       z     vdW  Elec       q    Type
REMARK                         _______ _______ _______ _____ _____    ______ ____
ROOT
ATOM      1  N   UNL     1      -0.876  -2.426  -1.433  0.00  0.00    -0.312 N 
ATOM      2  C   UNL     1      -0.298  -3.631  -1.609  0.00  0.00    +0.199 C 
ATOM      3  O   UNL     1      -0.224  -4.410  -0.682  0.00  0.00    -0.278 OA
ATOM      4  H   UNL     1      -0.936  -1.804  -2.174  0.00  0.00    +0.149 HD
ENDROOT
BRANCH   2   5
ATOM      5  CA  UNL     1       0.257  -4.010  -2.958  0.00  0.00    +0.017 C 
ATOM      6  C   UNL     1      -0.875  -4.030  -4.004  0.00  0.00    -0.005 C 
ATOM      7  C   UNL     1      -0.913  -5.495  -4.523  0.00  0.00    -0.026 C 
ATOM      8  C   UNL     1      -1.937  -6.239  -3.663  0.00  0.00    +0.002 C 
ATOM      9  C   UNL     1      -1.777  -7.750  -3.813  0.00  0.00    +0.000 C 
ATOM     10  C   UNL     1      -0.382  -8.146  -3.317  0.00  0.00    -0.002 C 
ATOM     11  C   UNL     1       0.656  -7.480  -4.220  0.00  0.00    -0.015 C 
ATOM     12  C   UNL     1       0.520  -5.971  -4.221  0.00  0.00    -0.068 C 
ATOM     13  N   UNL     1       0.828  -5.377  -2.903  0.00  0.00    +0.389 N 
ATOM     14  H1  UNL     1       1.826  -5.334  -2.759  0.00  0.00    -0.084 HD
ATOM     15  H2  UNL     1       0.390  -5.911  -2.168  0.00  0.00    -0.084 HD
ENDBRANCH   2   5
BRANCH   1  16
ATOM     16  CA  UNL     1      -1.416  -2.058  -0.121  0.00  0.00    +0.098 C 
BRANCH  16  17
ATOM     17  CB  UNL     1      -1.433  -0.534   0.013  0.00  0.00    +0.027 C 
BRANCH  17  19
ATOM     18  CD1 UNL     1      -0.019   1.526   0.010  0.00  0.00    +0.007 C 
ATOM     19  CG  UNL     1       0.002  -0.004   0.002  0.00  0.00    -0.015 C 
ATOM     20  CD2 UNL     1       0.742  -0.511   1.242  0.00  0.00    +0.007 C 
ENDBRANCH  17  19
ENDBRANCH  16  17
BRANCH  16  21
ATOM     21  C   UNL     1      -2.841  -2.598   0.015  0.00  0.00    +0.178 C 
BRANCH  21  22
ATOM     22  O   UNL     1      -3.688  -1.952  -0.938  0.00  0.00    -0.393 OA
ATOM     23  H   UNL     1      -4.609  -2.247  -0.908  0.00  0.00    +0.209 HD
ENDBRANCH  21  22
ENDBRANCH  16  21
ENDBRANCH   1  16
TORSDOF 6
