REMARK  Name = ZINC63746957
REMARK  4 active torsions:
REMARK  status: ('A' for Active; 'I' for Inactive)
REMARK    1  A    between atoms: C_6  and  C_11
REMARK    2  A    between atoms: C_16  and  N_17
REMARK    3  A    between atoms: N_20  and  C_21
REMARK    4  A    between atoms: C_21  and  C_22
REMARK                            x       y       z     vdW  Elec       q    Type
REMARK                         _______ _______ _______ _____ _____    ______ ____
ROOT
ATOM      1  C   UNL     1       3.620  -2.754  -1.298  0.00  0.00    -0.000 A 
ATOM      2  C   UNL     1       3.992  -2.019  -2.407  0.00  0.00    +0.008 A 
ATOM      3  C   UNL     1       4.432  -2.662  -3.549  0.00  0.00    +0.000 A 
ATOM      4  C   UNL     1       4.499  -4.043  -3.586  0.00  0.00    +0.002 A 
ATOM      5  C   UNL     1       4.128  -4.784  -2.481  0.00  0.00    +0.024 A 
ATOM      6  C   UNL     1       3.692  -4.140  -1.330  0.00  0.00    +0.040 A 
ENDROOT
BRANCH   1  12
ATOM      7  C   UNL     1      -0.022   1.345   0.006  0.00  0.00    +0.001 A 
ATOM      8  C   UNL     1       1.159   2.100  -0.015  0.00  0.00    +0.002 A 
ATOM      9  C   UNL     1       2.385   1.535  -0.037  0.00  0.00    +0.026 A 
ATOM     10  C   UNL     1       2.524   0.120  -0.040  0.00  0.00    +0.043 A 
ATOM     11  N   UNL     1       3.583  -0.653  -0.060  0.00  0.00    -0.374 N 
ATOM     12  C   UNL     1       3.141  -2.052  -0.054  0.00  0.00    +0.135 C 
ATOM     13  C   UNL     1       1.629  -2.010  -0.026  0.00  0.00    +0.012 C 
ATOM     14  C   UNL     1       1.291  -0.700  -0.019  0.00  0.00    -0.004 A 
ATOM     15  C   UNL     1      -0.002  -0.007   0.005  0.00  0.00    +0.010 A 
ATOM     16  H   UNL     1       4.504  -0.351  -0.077  0.00  0.00    +0.161 HD
ENDBRANCH   1  12
BRANCH   6  17
ATOM     17  N   UNL     1       3.321  -4.888  -0.207  0.00  0.00    -0.269 N 
ATOM     18  C   UNL     1       3.825  -6.125  -0.024  0.00  0.00    +0.304 C 
ATOM     19  O   UNL     1       4.678  -6.551  -0.777  0.00  0.00    -0.253 OA
ATOM     20  N   UNL     1       3.382  -6.888   0.995  0.00  0.00    -0.297 N 
ATOM     21  H   UNL     1       2.701  -4.516   0.440  0.00  0.00    +0.156 HD
ATOM     22  H   UNL     1       2.701  -6.548   1.596  0.00  0.00    +0.150 HD
BRANCH  20  23
ATOM     23  C   UNL     1       3.930  -8.233   1.194  0.00  0.00    +0.137 C 
BRANCH  23  24
ATOM     24  C   UNL     1       3.262  -8.880   2.409  0.00  0.00    +0.135 C 
ATOM     25  C   UNL     1       3.853 -10.291   2.658  0.00  0.00    +0.035 C 
ATOM     26  C   UNL     1       3.569 -10.466   4.175  0.00  0.00    +0.031 C 
ATOM     27  C   UNL     1       3.731  -9.025   4.707  0.00  0.00    +0.160 C 
ATOM     28  O   UNL     1       3.558  -8.132   3.599  0.00  0.00    -0.375 OA
ENDBRANCH  23  24
ENDBRANCH  20  23
ENDBRANCH   6  17
TORSDOF 4
