REMARK  Name = ZINC16495874
REMARK  7 active torsions:
REMARK  status: ('A' for Active; 'I' for Inactive)
REMARK    1  A    between atoms: C_1  and  C_2
REMARK    2  A    between atoms: C_2  and  C_4
REMARK    3  A    between atoms: C_2  and  O_18
REMARK    4  A    between atoms: N_6  and  N_7
REMARK    5  A    between atoms: C_8  and  C_10
REMARK    6  A    between atoms: C_15  and  O_16
REMARK    7  A    between atoms: O_18  and  C_19
REMARK                            x       y       z     vdW  Elec       q    Type
REMARK                         _______ _______ _______ _____ _____    ______ ____
ROOT
ATOM      1  C   UNL     1       0.168  -0.618  -6.066  0.00  0.00    +0.270 C 
ATOM      2  O   UNL     1       0.351  -1.817  -6.099  0.00  0.00    -0.270 OA
ATOM      3  N   UNL     1       0.214   0.038  -4.890  0.00  0.00    -0.231 N 
ATOM      4  H   UNL     1       0.067   0.997  -4.863  0.00  0.00    +0.173 HD
ENDROOT
BRANCH   3   5
ATOM      5  N   UNL     1       0.474  -0.664  -3.705  0.00  0.00    -0.230 N 
ATOM      6  C   UNL     1       0.520  -0.007  -2.529  0.00  0.00    +0.264 C 
ATOM      7  O   UNL     1       0.336   1.194  -2.496  0.00  0.00    -0.269 OA
ATOM      8  H   UNL     1       0.621  -1.622  -3.732  0.00  0.00    +0.173 HD
BRANCH   6   9
ATOM      9  C   UNL     1       0.794  -0.747  -1.282  0.00  0.00    +0.081 A 
ATOM     10  C   UNL     1       1.011  -2.126  -1.317  0.00  0.00    +0.032 A 
ATOM     11  C   UNL     1       1.261  -2.812  -0.147  0.00  0.00    +0.019 A 
ATOM     12  C   UNL     1       1.304  -2.137   1.063  0.00  0.00    +0.019 A 
ATOM     13  C   UNL     1       1.096  -0.773   1.110  0.00  0.00    +0.047 A 
ATOM     14  C   UNL     1       0.843  -0.068  -0.057  0.00  0.00    +0.129 A 
ATOM     15 BR   UNL     1       1.549  -4.680  -0.194  0.00  0.00    -0.050 Br
BRANCH  14  16
ATOM     16  O   UNL     1       0.638   1.272  -0.012  0.00  0.00    -0.506 OA
ATOM     17  H   UNL     1       1.445   1.797  -0.105  0.00  0.00    +0.292 HD
ENDBRANCH  14  16
ENDBRANCH   6   9
ENDBRANCH   3   5
BRANCH   1  19
ATOM     18  C   UNL     1       1.033   1.113  -7.617  0.00  0.00    +0.062 C 
ATOM     19  C   UNL     1      -0.113   0.137  -7.340  0.00  0.00    +0.257 C 
BRANCH  19  20
ATOM     20  O   UNL     1      -0.225  -0.786  -8.425  0.00  0.00    -0.477 OA
BRANCH  20  21
ATOM     21  C   UNL     1      -0.960  -0.390  -9.498  0.00  0.00    +0.157 A 
ATOM     22  C   UNL     1      -1.466   0.900  -9.556  0.00  0.00    +0.048 A 
ATOM     23  C   UNL     1      -2.212   1.301 -10.647  0.00  0.00    +0.004 A 
ATOM     24  C   UNL     1      -2.455   0.418 -11.683  0.00  0.00    +0.003 A 
ATOM     25  C   UNL     1      -1.952  -0.869 -11.630  0.00  0.00    +0.042 A 
ATOM     26  C   UNL     1      -1.201  -1.274 -10.542  0.00  0.00    +0.165 A 
ATOM     27  F   UNL     1      -0.705  -2.530 -10.492  0.00  0.00    -0.202 F 
ENDBRANCH  20  21
ENDBRANCH  19  20
ENDBRANCH   1  19
TORSDOF 6
