REMARK  Name = ZINC12608076
REMARK  7 active torsions:
REMARK  status: ('A' for Active; 'I' for Inactive)
REMARK    1  A    between atoms: C_1  and  C_2
REMARK    2  A    between atoms: C_2  and  C_3
REMARK    3  A    between atoms: C_5  and  C_9
REMARK    4  A    between atoms: C_7  and  C_8
REMARK    5  A    between atoms: N_11  and  C_12
REMARK    6  A    between atoms: C_14  and  C_24
REMARK    7  A    between atoms: C_17  and  N_18
REMARK                            x       y       z     vdW  Elec       q    Type
REMARK                         _______ _______ _______ _____ _____    ______ ____
ROOT
ATOM      1  C   UNL     1       1.240   1.591  -0.084  0.00  0.00    +0.056 A 
ATOM      2  C   UNL     1       1.318   2.963  -0.228  0.00  0.00    +0.038 A 
ATOM      3  C   UNL     1       2.568   3.583  -0.318  0.00  0.00    +0.038 A 
ATOM      4  C   UNL     1       3.733   2.813  -0.264  0.00  0.00    +0.015 A 
ATOM      5  C   UNL     1       3.650   1.445  -0.121  0.00  0.00    +0.026 A 
ATOM      6  C   UNL     1       2.409   0.827  -0.025  0.00  0.00    +0.051 A 
ENDROOT
BRANCH   6   7
ATOM      7  N   UNL     1       2.330  -0.555   0.125  0.00  0.00    -0.328 N 
ATOM      8  C   UNL     1       2.920  -0.980   1.401  0.00  0.00    +0.105 C 
ATOM      9  C   UNL     1       2.686  -2.480   1.597  0.00  0.00    +0.019 C 
ATOM     10  C   UNL     1       3.325  -3.248   0.437  0.00  0.00    +0.003 C 
ATOM     11  C   UNL     1       2.729  -2.752  -0.883  0.00  0.00    +0.019 C 
ATOM     12  C   UNL     1       2.961  -1.244  -1.008  0.00  0.00    +0.105 C 
ENDBRANCH   6   7
BRANCH   3  13
ATOM     13  C   UNL     1       2.657   5.047  -0.472  0.00  0.00    +0.242 C 
ATOM     14  O   UNL     1       1.643   5.716  -0.519  0.00  0.00    -0.270 OA
ATOM     15  N   UNL     1       3.862   5.644  -0.559  0.00  0.00    -0.325 N 
ATOM     16  H   UNL     1       4.671   5.110  -0.521  0.00  0.00    +0.145 HD
ATOM     17  H   UNL     1       3.921   6.607  -0.660  0.00  0.00    +0.145 HD
ENDBRANCH   3  13
BRANCH   1  20
ATOM     18  C   UNL     1      -1.030   1.587   0.633  0.00  0.00    +0.255 C 
ATOM     19  O   UNL     1      -0.887   2.721   1.052  0.00  0.00    -0.269 OA
ATOM     20  N   UNL     1      -0.011   0.966   0.007  0.00  0.00    -0.280 N 
ATOM     21  H   UNL     1      -0.144   0.088  -0.383  0.00  0.00    +0.155 HD
BRANCH  18  24
ATOM     22  C   UNL     1      -4.540   0.489   1.447  0.00  0.00    -0.037 A 
ATOM     23  C   UNL     1      -3.470   1.349   1.423  0.00  0.00    +0.024 A 
ATOM     24  C   UNL     1      -2.311   0.897   0.810  0.00  0.00    +0.075 A 
ATOM     25  S   UNL     1      -2.783  -0.746   0.300  0.00  0.00    -0.089 S 
ATOM     26  C   UNL     1      -4.413  -0.744   0.891  0.00  0.00    -0.009 A 
ATOM     27  C   UNL     1      -5.441  -1.843   0.807  0.00  0.00    +0.052 C 
BRANCH  22  29
ATOM     28  C   UNL     1      -5.871   0.413   3.538  0.00  0.00    +0.009 C 
ATOM     29  C   UNL     1      -5.838   0.906   2.090  0.00  0.00    +0.032 C 
ENDBRANCH  22  29
ENDBRANCH  18  24
ENDBRANCH   1  20
TORSDOF 5
