REMARK  Name = ZINC53862799
REMARK  8 active torsions:
REMARK  status: ('A' for Active; 'I' for Inactive)
REMARK    1  A    between atoms: C_1  and  C_2
REMARK    2  A    between atoms: C_2  and  N_3
REMARK    3  A    between atoms: N_3  and  C_4
REMARK    4  A    between atoms: C_11  and  C_13
REMARK    5  A    between atoms: C_13  and  N_14
REMARK    6  A    between atoms: N_14  and  C_15
REMARK    7  A    between atoms: N_14  and  C_16
REMARK    8  A    between atoms: C_19  and  O_22
REMARK                            x       y       z     vdW  Elec       q    Type
REMARK                         _______ _______ _______ _____ _____    ______ ____
ROOT
ATOM      1  C   UNL     1      -1.356  -1.981   0.004  0.00  0.00    -0.067 C 
ATOM      2  C   UNL     1      -0.688  -2.478   1.301  0.00  0.00    -0.015 C 
ATOM      3  C   UNL     1      -0.991  -3.959   1.600  0.00  0.00    -0.002 C 
ATOM      4  C   UNL     1      -0.929  -4.819   0.367  0.00  0.00    -0.000 C 
ATOM      5  C   UNL     1      -2.352  -4.943  -0.216  0.00  0.00    +0.000 C 
ATOM      6  C   UNL     1      -2.736  -3.775  -0.995  0.00  0.00    +0.003 C 
ATOM      7  C   UNL     1      -2.766  -2.487  -0.145  0.00  0.00    -0.008 C 
ENDROOT
BRANCH   1   8
ATOM      8  N   UNL     1      -1.376  -0.512   0.012  0.00  0.00    +0.381 N 
ATOM      9  H   UNL     1      -1.848  -0.187   0.843  0.00  0.00    -0.086 HD
ATOM     10  H   UNL     1      -1.864  -0.178  -0.805  0.00  0.00    -0.086 HD
BRANCH   8  12
ATOM     11  C   UNL     1      -0.019   1.526   0.010  0.00  0.00    -0.017 C 
ATOM     12  C   UNL     1       0.002  -0.004   0.002  0.00  0.00    -0.086 C 
ENDBRANCH   8  12
ENDBRANCH   1   8
BRANCH   7  13
ATOM     13  C   UNL     1      -3.619  -1.428  -0.846  0.00  0.00    +0.106 C 
BRANCH  13  14
ATOM     14  N   UNL     1      -5.015  -1.873  -0.883  0.00  0.00    -0.333 N 
ATOM     15  C   UNL     1      -5.923  -1.526   0.213  0.00  0.00    +0.129 C 
BRANCH  14  16
ATOM     16  C   UNL     1      -5.481  -2.628  -1.965  0.00  0.00    +0.030 A 
ATOM     17  C   UNL     1      -4.619  -2.962  -3.001  0.00  0.00    +0.026 A 
ATOM     18  C   UNL     1      -5.079  -3.708  -4.068  0.00  0.00    +0.047 A 
ATOM     19  C   UNL     1      -6.401  -4.124  -4.105  0.00  0.00    +0.117 A 
ATOM     20  C   UNL     1      -7.263  -3.791  -3.071  0.00  0.00    +0.047 A 
ATOM     21  C   UNL     1      -6.803  -3.050  -2.000  0.00  0.00    +0.026 A 
BRANCH  19  22
ATOM     22  O   UNL     1      -6.854  -4.859  -5.157  0.00  0.00    -0.507 OA
ATOM     23  H   UNL     1      -6.763  -5.814  -5.037  0.00  0.00    +0.292 HD
ENDBRANCH  19  22
ENDBRANCH  14  16
ENDBRANCH  13  14
ENDBRANCH   7  13
TORSDOF 6
