REMARK  Name = ZINC37043100
REMARK  4 active torsions:
REMARK  status: ('A' for Active; 'I' for Inactive)
REMARK    1  A    between atoms: C_1  and  N_2
REMARK    2  A    between atoms: C_7  and  N_12
REMARK    3  A    between atoms: C_13  and  C_15
REMARK    4  A    between atoms: C_15  and  N_21
REMARK                            x       y       z     vdW  Elec       q    Type
REMARK                         _______ _______ _______ _____ _____    ______ ____
ROOT
ATOM      1  N   UNL     1      -0.905  -4.285  -1.112  0.00  0.00    -0.310 N 
ATOM      2  C   UNL     1      -0.513  -5.173  -0.178  0.00  0.00    +0.202 C 
ATOM      3  O   UNL     1       0.618  -5.135   0.259  0.00  0.00    -0.277 OA
ATOM      4  H   UNL     1      -1.810  -4.316  -1.461  0.00  0.00    +0.149 HD
ENDROOT
BRANCH   1  11
ATOM      5  C   UNL     1      -0.025   1.462  -0.002  0.00  0.00    +0.172 C 
ATOM      6  N   UNL     1      -0.004  -0.003  -0.007  0.00  0.00    -0.271 N 
ATOM      7  C   UNL     1       0.005  -0.791  -1.095  0.00  0.00    +0.044 A 
ATOM      8  C   UNL     1       0.023  -2.081  -0.675  0.00  0.00    +0.013 A 
ATOM      9  C   UNL     1       0.027  -2.080   0.718  0.00  0.00    +0.140 A 
ATOM     10  N   UNL     1       0.017  -0.833   1.123  0.00  0.00    -0.179 NA
ATOM     11  C   UNL     1       0.034  -3.272  -1.600  0.00  0.00    +0.106 C 
ATOM     12  C   UNL     1      -0.391  -2.804  -2.997  0.00  0.00    +0.027 C 
ATOM     13  C   UNL     1       0.430  -1.574  -3.396  0.00  0.00    +0.008 C 
ATOM     14  C   UNL     1      -0.001  -0.373  -2.545  0.00  0.00    +0.055 C 
ENDBRANCH   1  11
BRANCH   2  15
ATOM     15  C   UNL     1      -1.479  -6.215   0.325  0.00  0.00    +0.007 C 
ATOM     16  C   UNL     1      -0.994  -6.753   1.672  0.00  0.00    -0.004 C 
ATOM     17  C   UNL     1       0.391  -7.382   1.502  0.00  0.00    -0.001 C 
ATOM     18  C   UNL     1       0.309  -8.530   0.494  0.00  0.00    -0.000 C 
ATOM     19  C   UNL     1      -0.176  -7.992  -0.854  0.00  0.00    -0.001 C 
ATOM     20  C   UNL     1      -1.561  -7.363  -0.683  0.00  0.00    -0.004 C 
BRANCH  15  21
ATOM     21  N   UNL     1      -2.808  -5.612   0.488  0.00  0.00    +0.388 N 
ATOM     22  H   UNL     1      -3.128  -5.257  -0.400  0.00  0.00    -0.089 HD
ATOM     23  H   UNL     1      -3.455  -6.309   0.825  0.00  0.00    -0.089 HD
ATOM     24  H   UNL     1      -2.755  -4.855   1.153  0.00  0.00    -0.089 HD
ENDBRANCH  15  21
ENDBRANCH   2  15
TORSDOF 3
