REMARK  Name = ZINC39380826
REMARK  4 active torsions:
REMARK  status: ('A' for Active; 'I' for Inactive)
REMARK    1  A    between atoms: C_4  and  C_7
REMARK    2  A    between atoms: C_9  and  N_13
REMARK    3  A    between atoms: C_14  and  C_16
REMARK    4  A    between atoms: C_19  and  C_21
REMARK                            x       y       z     vdW  Elec       q    Type
REMARK                         _______ _______ _______ _____ _____    ______ ____
ROOT
ATOM      1  N   UNL     1       5.745  -2.956  -1.278  0.00  0.00    -0.285 N 
ATOM      2  C   UNL     1       6.619  -3.978  -1.198  0.00  0.00    +0.252 C 
ATOM      3  O   UNL     1       7.068  -4.311  -0.117  0.00  0.00    -0.270 OA
ATOM      4  H   UNL     1       5.386  -2.691  -2.140  0.00  0.00    +0.151 HD
ENDROOT
BRANCH   1   7
ATOM      5  C   UNL     1       3.699  -0.689  -0.037  0.00  0.00    +0.093 C 
ATOM      6  C   UNL     1       3.832  -2.029  -0.051  0.00  0.00    +0.050 C 
ATOM      7  C   UNL     1       5.335  -2.245  -0.065  0.00  0.00    +0.240 C 
ATOM      8  N   UNL     1       5.871  -0.874  -0.056  0.00  0.00    -0.160 NA
ATOM      9  N   UNL     1       4.919  -0.090  -0.047  0.00  0.00    -0.152 NA
BRANCH   5  13
ATOM     10  C   UNL     1      -0.017   1.379   0.010  0.00  0.00    +0.000 A 
ATOM     11  C   UNL     1       1.169   2.092   0.002  0.00  0.00    +0.001 A 
ATOM     12  C   UNL     1       2.377   1.426  -0.013  0.00  0.00    +0.010 A 
ATOM     13  C   UNL     1       2.402   0.033  -0.021  0.00  0.00    +0.002 A 
ATOM     14  C   UNL     1       1.205  -0.680  -0.013  0.00  0.00    +0.010 A 
ATOM     15  C   UNL     1       0.002  -0.004   0.002  0.00  0.00    +0.001 A 
ENDBRANCH   5  13
ENDBRANCH   1   7
BRANCH   2  16
ATOM     16  C   UNL     1       7.029  -4.690  -2.412  0.00  0.00    +0.074 A 
ATOM     17  C   UNL     1       7.902  -5.759  -2.546  0.00  0.00    +0.021 A 
ATOM     18  C   UNL     1       8.091  -6.218  -3.827  0.00  0.00    +0.010 A 
ATOM     19  C   UNL     1       7.432  -5.615  -4.847  0.00  0.00    -0.023 A 
ATOM     20  S   UNL     1       6.529  -4.412  -4.100  0.00  0.00    -0.090 S 
BRANCH  19  21
ATOM     21  C   UNL     1       7.490  -5.953  -6.315  0.00  0.00    -0.034 C 
ATOM     22  C   UNL     1       8.403  -4.948  -7.048  0.00  0.00    -0.013 C 
ATOM     23  C   UNL     1       7.667  -4.726  -8.396  0.00  0.00    -0.020 C 
ATOM     24  C   UNL     1       6.183  -4.794  -7.957  0.00  0.00    -0.082 C 
ATOM     25  N   UNL     1       6.146  -5.841  -6.909  0.00  0.00    +0.384 N 
ATOM     26  H   UNL     1       5.881  -6.724  -7.319  0.00  0.00    -0.085 HD
ATOM     27  H   UNL     1       5.479  -5.585  -6.196  0.00  0.00    -0.085 HD
ENDBRANCH  19  21
ENDBRANCH   2  16
TORSDOF 4
