REMARK  Name = ZINC39729646
REMARK  7 active torsions:
REMARK  status: ('A' for Active; 'I' for Inactive)
REMARK    1  A    between atoms: C_1  and  C_2
REMARK    2  A    between atoms: C_4  and  N_10
REMARK    3  A    between atoms: C_5  and  C_9
REMARK    4  A    between atoms: N_7  and  C_8
REMARK    5  A    between atoms: C_11  and  C_13
REMARK    6  A    between atoms: C_13  and  N_14
REMARK    7  A    between atoms: C_17  and  N_20
REMARK                            x       y       z     vdW  Elec       q    Type
REMARK                         _______ _______ _______ _____ _____    ______ ____
ROOT
ATOM      1  N   UNL     1       1.918  -0.953  -5.865  0.00  0.00    +0.386 N 
ATOM      2  C   UNL     1       3.208  -0.312  -5.585  0.00  0.00    -0.076 C 
ATOM      3  C   UNL     1       4.300  -0.960  -6.438  0.00  0.00    +0.006 C 
ATOM      4  C   UNL     1       3.954  -0.786  -7.920  0.00  0.00    +0.089 C 
ATOM      5  C   UNL     1       2.573  -1.393  -8.185  0.00  0.00    +0.006 C 
ATOM      6  C   UNL     1       1.545  -0.729  -7.267  0.00  0.00    -0.076 C 
ATOM      7  H   UNL     1       1.993  -1.944  -5.693  0.00  0.00    -0.081 HD
ENDROOT
BRANCH   4   8
ATOM      8  N   UNL     1       4.956  -1.470  -8.741  0.00  0.00    -0.289 N 
ATOM      9  C   UNL     1       5.779  -0.869  -9.691  0.00  0.00    +0.070 A 
ATOM     10  C   UNL     1       5.921   0.436 -10.138  0.00  0.00    +0.028 A 
ATOM     11  C   UNL     1       6.849   0.729 -11.118  0.00  0.00    +0.002 A 
ATOM     12  C   UNL     1       7.638  -0.274 -11.655  0.00  0.00    +0.002 A 
ATOM     13  C   UNL     1       7.503  -1.576 -11.216  0.00  0.00    +0.028 A 
ATOM     14  C   UNL     1       6.575  -1.880 -10.232  0.00  0.00    +0.067 A 
ATOM     15  N   UNL     1       6.210  -3.064  -9.595  0.00  0.00    -0.306 N 
ATOM     16  H   UNL     1       6.592  -3.940  -9.763  0.00  0.00    +0.170 HD
ATOM     17  C   UNL     1       5.242  -2.785  -8.703  0.00  0.00    +0.328 A 
ATOM     18  O   UNL     1       4.704  -3.598  -7.975  0.00  0.00    -0.247 OA
ENDBRANCH   4   8
BRANCH   1  19
ATOM     19  C   UNL     1       0.888  -0.381  -4.988  0.00  0.00    +0.019 C 
BRANCH  19  21
ATOM     20  N   UNL     1       0.393  -0.294  -2.566  0.00  0.00    -0.288 N 
ATOM     21  C   UNL     1       1.206  -0.717  -3.554  0.00  0.00    +0.200 C 
ATOM     22  O   UNL     1       2.194  -1.369  -3.289  0.00  0.00    -0.278 OA
ATOM     23  H   UNL     1      -0.434   0.165  -2.782  0.00  0.00    +0.155 HD
BRANCH  20  26
ATOM     24  C   UNL     1      -0.188  -2.764  -0.659  0.00  0.00    +0.032 C 
ATOM     25  C   UNL     1       1.037  -1.852  -0.582  0.00  0.00    +0.118 C 
ATOM     26  C   UNL     1       0.742  -0.515  -1.228  0.00  0.00    +0.047 C 
ATOM     27  C   UNL     1       0.878   0.404  -0.286  0.00  0.00    +0.034 C 
ATOM     28  N   UNL     1       1.233  -0.165   0.931  0.00  0.00    -0.280 N 
ATOM     29  N   UNL     1       1.348  -1.524   0.823  0.00  0.00    -0.224 NA
ATOM     30  C   UNL     1       0.424  -2.205   1.740  0.00  0.00    +0.128 C 
ATOM     31  C   UNL     1       0.673   1.880  -0.505  0.00  0.00    +0.063 C 
ATOM     32  H   UNL     1       1.382   0.336   1.749  0.00  0.00    +0.166 HD
ENDBRANCH  20  26
ENDBRANCH  19  21
ENDBRANCH   1  19
TORSDOF 4
