REMARK  Name = ZINC06290242
REMARK  6 active torsions:
REMARK  status: ('A' for Active; 'I' for Inactive)
REMARK    1  A    between atoms: C_1  and  C_2
REMARK    2  A    between atoms: C_7  and  N_8
REMARK    3  A    between atoms: C_9  and  C_11
REMARK    4  A    between atoms: C_11  and  O_12
REMARK    5  A    between atoms: O_12  and  C_13
REMARK    6  A    between atoms: C_16  and  C_19
REMARK                            x       y       z     vdW  Elec       q    Type
REMARK                         _______ _______ _______ _____ _____    ______ ____
ROOT
ATOM      1  C   UNL     1      -0.167   0.054   4.882  0.00  0.00    +0.324 C 
ENDROOT
BRANCH   1   3
ATOM      2  N   UNL     1       0.026  -0.014   2.417  0.00  0.00    -0.282 N 
ATOM      3  C   UNL     1      -0.056  -0.694   3.578  0.00  0.00    +0.255 C 
ATOM      4  O   UNL     1      -0.040  -1.906   3.574  0.00  0.00    -0.272 OA
ATOM      5  H   UNL     1       0.079   0.955   2.425  0.00  0.00    +0.155 HD
BRANCH   2  12
ATOM      6  C   UNL     1      -1.265   1.183   0.182  0.00  0.00    +0.046 C 
ATOM      7  C   UNL     1      -0.584  -0.158   0.085  0.00  0.00    -0.028 A 
ATOM      8  C   UNL     1      -0.570  -0.840  -1.116  0.00  0.00    +0.020 A 
ATOM      9  C   UNL     1       0.055  -2.071  -1.206  0.00  0.00    +0.018 A 
ATOM     10  C   UNL     1       0.666  -2.623  -0.094  0.00  0.00    +0.017 A 
ATOM     11  C   UNL     1       0.655  -1.945   1.109  0.00  0.00    +0.024 A 
ATOM     12  C   UNL     1       0.034  -0.706   1.201  0.00  0.00    +0.036 A 
ATOM     13 BR   UNL     1       0.072  -3.002  -2.852  0.00  0.00    -0.050 Br
ENDBRANCH   2  12
ENDBRANCH   1   3
BRANCH   1  14
ATOM     14  O   UNL     1      -0.239  -0.880   5.962  0.00  0.00    -0.483 OA
BRANCH  14  15
ATOM     15  C   UNL     1      -0.342  -0.367   7.214  0.00  0.00    +0.121 A 
ATOM     16  C   UNL     1      -0.380   1.010   7.398  0.00  0.00    +0.046 A 
ATOM     17  C   UNL     1      -0.485   1.534   8.667  0.00  0.00    +0.016 A 
ATOM     18  C   UNL     1      -0.555   0.679   9.771  0.00  0.00    +0.037 A 
ATOM     19  C   UNL     1      -0.517  -0.705   9.581  0.00  0.00    +0.016 A 
ATOM     20  C   UNL     1      -0.416  -1.221   8.308  0.00  0.00    +0.046 A 
BRANCH  18  21
ATOM     21  C   UNL     1      -0.667   1.237  11.133  0.00  0.00    +0.242 C 
ATOM     22  O   UNL     1      -0.700   2.441  11.296  0.00  0.00    -0.270 OA
ATOM     23  N   UNL     1      -0.734   0.411  12.195  0.00  0.00    -0.325 N 
ATOM     24  H   UNL     1      -0.708  -0.550  12.065  0.00  0.00    +0.145 HD
ATOM     25  H   UNL     1      -0.808   0.777  13.091  0.00  0.00    +0.145 HD
ENDBRANCH  18  21
ENDBRANCH  14  15
ENDBRANCH   1  14
TORSDOF 5
