REMARK  Name = ZINC40754660
REMARK  11 active torsions:
REMARK  status: ('A' for Active; 'I' for Inactive)
REMARK    1  A    between atoms: C_1  and  O_2
REMARK    2  A    between atoms: O_2  and  C_3
REMARK    3  A    between atoms: C_6  and  N_11
REMARK    4  A    between atoms: C_7  and  O_9
REMARK    5  A    between atoms: O_9  and  C_10
REMARK    6  A    between atoms: C_13  and  N_27
REMARK    7  A    between atoms: C_14  and  N_18
REMARK    8  A    between atoms: N_18  and  C_19
REMARK    9  A    between atoms: C_19  and  C_20
REMARK   10  A    between atoms: C_20  and  C_21
REMARK   11  A    between atoms: C_21  and  N_22
REMARK                            x       y       z     vdW  Elec       q    Type
REMARK                         _______ _______ _______ _____ _____    ______ ____
ROOT
ATOM      1  N   UNL     1      -4.899  -2.575   0.037  0.00  0.00    -0.295 N 
ATOM      2  C   UNL     1      -6.069  -1.835   0.152  0.00  0.00    +0.149 A 
ATOM      3  C   UNL     1      -7.304  -2.476   0.274  0.00  0.00    +0.105 A 
ATOM      4  C   UNL     1      -8.449  -1.686   0.386  0.00  0.00    +0.145 A 
ATOM      5  N   UNL     1      -8.321  -0.361   0.374  0.00  0.00    -0.219 NA
ATOM      6  C   UNL     1      -7.137   0.205   0.258  0.00  0.00    +0.225 A 
ATOM      7  N   UNL     1      -6.031  -0.505   0.155  0.00  0.00    -0.219 NA
ATOM      8  H   UNL     1      -4.941  -3.540  -0.047  0.00  0.00    +0.154 HD
ENDROOT
BRANCH   1  12
ATOM      9  C   UNL     1      -1.198  -0.643   0.056  0.00  0.00    +0.124 A 
ATOM     10  C   UNL     1      -2.297  -0.047   0.658  0.00  0.00    +0.047 A 
ATOM     11  C   UNL     1      -3.522  -0.686   0.651  0.00  0.00    +0.030 A 
ATOM     12  C   UNL     1      -3.656  -1.926   0.043  0.00  0.00    +0.075 A 
ATOM     13  C   UNL     1      -2.553  -2.525  -0.562  0.00  0.00    +0.145 A 
ATOM     14  C   UNL     1      -1.328  -1.879  -0.559  0.00  0.00    +0.093 A 
BRANCH   9  16
ATOM     15  C   UNL     1       0.068   1.259   0.715  0.00  0.00    +0.277 C 
ATOM     16  O   UNL     1       0.006  -0.011   0.064  0.00  0.00    -0.495 OA
ENDBRANCH   9  16
BRANCH  13  17
ATOM     17  O   UNL     1      -2.681  -3.740  -1.159  0.00  0.00    -0.493 OA
ATOM     18  C   UNL     1      -1.508  -4.294  -1.760  0.00  0.00    +0.277 C 
ENDBRANCH  13  17
ENDBRANCH   1  12
BRANCH   3  19
ATOM     19  N   UNL     1      -7.392  -3.878   0.282  0.00  0.00    -0.353 N 
ATOM     20  H   UNL     1      -6.587  -4.414   0.202  0.00  0.00    +0.143 HD
ATOM     21  H   UNL     1      -8.256  -4.309   0.366  0.00  0.00    +0.143 HD
ENDBRANCH   3  19
BRANCH   4  22
ATOM     22  N   UNL     1      -9.703  -2.273   0.509  0.00  0.00    -0.327 N 
ATOM     23  H   UNL     1      -9.787  -3.239   0.517  0.00  0.00    +0.148 HD
BRANCH  22  24
ATOM     24  C   UNL     1     -10.897  -1.432   0.626  0.00  0.00    +0.105 C 
BRANCH  24  25
ATOM     25  C   UNL     1     -12.136  -2.321   0.748  0.00  0.00    +0.040 C 
BRANCH  25  26
ATOM     26  C   UNL     1     -13.383  -1.443   0.870  0.00  0.00    +0.124 C 
BRANCH  26  27
ATOM     27  N   UNL     1     -14.570  -2.294   0.986  0.00  0.00    -0.338 N 
ATOM     28  C   UNL     1     -15.332  -2.770  -0.046  0.00  0.00    +0.104 A 
ATOM     29  C   UNL     1     -16.317  -3.506   0.503  0.00  0.00    +0.101 A 
ATOM     30  N   UNL     1     -16.160  -3.480   1.835  0.00  0.00    -0.352 N 
ATOM     31  C   UNL     1     -15.113  -2.760   2.131  0.00  0.00    +0.173 A 
ATOM     32  H   UNL     1     -16.733  -3.929   2.477  0.00  0.00    +0.166 HD
ENDBRANCH  26  27
ENDBRANCH  25  26
ENDBRANCH  24  25
ENDBRANCH  22  24
ENDBRANCH   4  22
TORSDOF 9
