REMARK  Name = ZINC67379006
REMARK  8 active torsions:
REMARK  status: ('A' for Active; 'I' for Inactive)
REMARK    1  A    between atoms: C_1  and  C_2
REMARK    2  A    between atoms: C_5  and  N_24
REMARK    3  A    between atoms: C_7  and  N_8
REMARK    4  A    between atoms: C_9  and  C_11
REMARK    5  A    between atoms: N_13  and  C_14
REMARK    6  A    between atoms: C_14  and  C_15
REMARK    7  A    between atoms: C_15  and  C_16
REMARK    8  A    between atoms: N_18  and  C_19
REMARK                            x       y       z     vdW  Elec       q    Type
REMARK                         _______ _______ _______ _____ _____    ______ ____
ROOT
ATOM      1  C   UNL     1      -0.167   0.044   4.869  0.00  0.00    +0.299 C 
ATOM      2  O   UNL     1      -0.183   1.257   4.874  0.00  0.00    -0.265 OA
ATOM      3  N   UNL     1      -0.248  -0.636   6.030  0.00  0.00    -0.307 N 
ATOM      4  H   UNL     1      -0.235  -1.606   6.026  0.00  0.00    +0.149 HD
ENDROOT
BRANCH   1   6
ATOM      5  N   UNL     1       0.025  -0.016   2.416  0.00  0.00    -0.277 N 
ATOM      6  C   UNL     1      -0.056  -0.696   3.577  0.00  0.00    +0.303 C 
ATOM      7  O   UNL     1      -0.040  -1.910   3.572  0.00  0.00    -0.265 OA
ATOM      8  H   UNL     1       0.078   0.952   2.424  0.00  0.00    +0.155 HD
BRANCH   5  15
ATOM      9  C   UNL     1      -1.268   1.182   0.182  0.00  0.00    +0.045 C 
ATOM     10  C   UNL     1      -0.586  -0.159   0.085  0.00  0.00    -0.029 A 
ATOM     11  C   UNL     1      -0.571  -0.841  -1.116  0.00  0.00    +0.007 A 
ATOM     12  C   UNL     1       0.055  -2.071  -1.206  0.00  0.00    +0.033 A 
ATOM     13  C   UNL     1       0.667  -2.622  -0.095  0.00  0.00    +0.128 A 
ATOM     14  C   UNL     1       0.655  -1.946   1.108  0.00  0.00    +0.056 A 
ATOM     15  C   UNL     1       0.033  -0.706   1.201  0.00  0.00    +0.039 A 
BRANCH  13  16
ATOM     16  N   UNL     1       1.335  -3.939  -0.197  0.00  0.00    +0.056 N 
ATOM     17  O   UNL     1       1.345  -4.532  -1.250  0.00  0.00    -0.126 OA
ATOM     18  O   UNL     1       1.870  -4.422   0.774  0.00  0.00    -0.126 OA
ENDBRANCH  13  16
ENDBRANCH   5  15
ENDBRANCH   1   6
BRANCH   3  19
ATOM     19  C   UNL     1      -0.356   0.090   7.298  0.00  0.00    +0.114 C 
BRANCH  19  20
ATOM     20  C   UNL     1      -0.433  -0.910   8.453  0.00  0.00    +0.114 C 
BRANCH  20  21
ATOM     21  C   UNL     1      -0.544  -0.164   9.758  0.00  0.00    +0.215 C 
ATOM     22  O   UNL     1      -0.561   1.049   9.763  0.00  0.00    -0.276 OA
ATOM     23  N   UNL     1      -0.626  -0.844  10.918  0.00  0.00    -0.312 N 
ATOM     24  H   UNL     1      -0.613  -1.814  10.915  0.00  0.00    +0.149 HD
BRANCH  23  25
ATOM     25  C   UNL     1      -0.734  -0.118  12.187  0.00  0.00    +0.073 C 
ATOM     26  C   UNL     1       0.672   0.210  12.729  0.00  0.00    +0.022 C 
ATOM     27  C   UNL     1       0.536   0.044  14.263  0.00  0.00    +0.002 C 
ATOM     28  C   UNL     1      -0.403  -1.181  14.392  0.00  0.00    +0.002 C 
ATOM     29  C   UNL     1      -1.418  -1.003  13.244  0.00  0.00    +0.022 C 
ENDBRANCH  23  25
ENDBRANCH  20  21
ENDBRANCH  19  20
ENDBRANCH   3  19
TORSDOF 7
