REMARK  Name = ZINC05163981
REMARK  6 active torsions:
REMARK  status: ('A' for Active; 'I' for Inactive)
REMARK    1  A    between atoms: C_1  and  O_2
REMARK    2  A    between atoms: O_2  and  C_3
REMARK    3  A    between atoms: C_7  and  C_9
REMARK    4  A    between atoms: C_16  and  N_30
REMARK    5  A    between atoms: C_17  and  C_28
REMARK    6  A    between atoms: C_18  and  C_20
REMARK                            x       y       z     vdW  Elec       q    Type
REMARK                         _______ _______ _______ _____ _____    ______ ____
ROOT
ATOM      1  C   UNL     1       1.395  -4.104   2.224  0.00  0.00    +0.074 A 
ATOM      2  C   UNL     1       2.485  -4.846   2.537  0.00  0.00    +0.054 A 
ATOM      3  C   UNL     1       2.119  -6.205   2.481  0.00  0.00    +0.245 A 
ATOM      4  N   UNL     1       0.862  -6.278   2.147  0.00  0.00    -0.135 NA
ATOM      5  N   UNL     1       0.370  -4.974   1.982  0.00  0.00    -0.273 N 
ATOM      6  H   UNL     1      -0.538  -4.733   1.738  0.00  0.00    +0.189 HD
ATOM      7  O   UNL     1       3.006  -7.201   2.750  0.00  0.00    -0.421 OA
ATOM      8  C   UNL     1       4.170  -6.855   3.335  0.00  0.00    +0.201 C 
ATOM      9  C   UNL     1       4.629  -5.590   3.437  0.00  0.00    +0.098 C 
ATOM     10  C   UNL     1       3.880  -4.399   2.894  0.00  0.00    +0.103 C 
ENDROOT
BRANCH  10  11
ATOM     11  C   UNL     1       4.577  -3.878   1.664  0.00  0.00    -0.015 A 
ATOM     12  C   UNL     1       4.760  -4.703   0.570  0.00  0.00    +0.006 A 
ATOM     13  C   UNL     1       5.400  -4.225  -0.558  0.00  0.00    +0.002 A 
ATOM     14  C   UNL     1       5.859  -2.921  -0.594  0.00  0.00    +0.021 A 
ATOM     15  C   UNL     1       5.677  -2.094   0.500  0.00  0.00    +0.060 A 
ATOM     16  C   UNL     1       5.030  -2.571   1.628  0.00  0.00    +0.063 A 
ATOM     17 CL   UNL     1       4.795  -1.532   2.999  0.00  0.00    -0.082 Cl
ATOM     18 CL   UNL     1       6.253  -0.457   0.456  0.00  0.00    -0.082 Cl
ENDBRANCH  10  11
BRANCH   1  23
ATOM     19  C   UNL     1       0.626  -0.618   1.042  0.00  0.00    +0.121 A 
ATOM     20  C   UNL     1       1.202   0.141   2.051  0.00  0.00    +0.045 A 
ATOM     21  C   UNL     1       1.838  -0.479   3.111  0.00  0.00    +0.004 A 
ATOM     22  C   UNL     1       1.903  -1.857   3.172  0.00  0.00    +0.010 A 
ATOM     23  C   UNL     1       1.327  -2.627   2.162  0.00  0.00    +0.004 A 
ATOM     24  C   UNL     1       0.681  -2.001   1.096  0.00  0.00    +0.055 A 
BRANCH  19  26
ATOM     25  C   UNL     1      -0.017   1.425   0.010  0.00  0.00    +0.277 C 
ATOM     26  O   UNL     1       0.002  -0.004   0.002  0.00  0.00    -0.495 OA
ENDBRANCH  19  26
ENDBRANCH   1  23
BRANCH   8  27
ATOM     27  N   UNL     1       4.942  -7.859   3.864  0.00  0.00    -0.328 N 
ATOM     28  H   UNL     1       4.644  -8.781   3.809  0.00  0.00    +0.145 HD
ATOM     29  H   UNL     1       5.786  -7.647   4.293  0.00  0.00    +0.145 HD
ENDBRANCH   8  27
BRANCH   9  30
ATOM     30  C   UNL     1       5.883  -5.368   4.091  0.00  0.00    +0.101 C 
ATOM     31  N   UNL     1       6.878  -5.192   4.611  0.00  0.00    -0.191 NA
ENDBRANCH   9  30
TORSDOF 5
