REMARK  Name = ZINC33589091
REMARK  7 active torsions:
REMARK  status: ('A' for Active; 'I' for Inactive)
REMARK    1  A    between atoms: C_6  and  C_7
REMARK    2  A    between atoms: N_11  and  C_15
REMARK    3  A    between atoms: C_15  and  C_16
REMARK    4  A    between atoms: C_16  and  C_17
REMARK    5  A    between atoms: N_19  and  C_20
REMARK    6  A    between atoms: C_23  and  O_29
REMARK    7  A    between atoms: C_25  and  C_26
REMARK                            x       y       z     vdW  Elec       q    Type
REMARK                         _______ _______ _______ _____ _____    ______ ____
ROOT
ATOM      1  C   UNL     1       0.728  -5.276  -0.254  0.00  0.00    +0.124 C 
ENDROOT
BRANCH   1   6
ATOM      2  C   UNL     1      -1.151  -0.692   0.004  0.00  0.00    +0.028 C 
ATOM      3  C   UNL     1      -1.165  -2.046  -0.080  0.00  0.00    +0.077 C 
ATOM      4  C   UNL     1      -0.036  -2.998  -0.123  0.00  0.00    +0.258 C 
ATOM      5  O   UNL     1       1.121  -2.622  -0.083  0.00  0.00    -0.269 OA
ATOM      6  N   UNL     1      -0.346  -4.281  -0.207  0.00  0.00    -0.255 N 
ATOM      7  C   UNL     1      -1.629  -4.694  -0.251  0.00  0.00    +0.121 C 
ATOM      8  S   UNL     1      -2.228  -6.295  -0.359  0.00  0.00    -0.027 S 
ATOM      9  S   UNL     1      -2.553  -3.169  -0.162  0.00  0.00    -0.061 S 
BRANCH   2  15
ATOM     10  C   UNL     1       1.107  -0.406  -0.998  0.00  0.00    +0.011 A 
ATOM     11  C   UNL     1       2.295   0.284  -1.102  0.00  0.00    +0.039 A 
ATOM     12  C   UNL     1       2.512   1.417  -0.332  0.00  0.00    +0.123 A 
ATOM     13  C   UNL     1       1.537   1.863   0.547  0.00  0.00    +0.039 A 
ATOM     14  C   UNL     1       0.345   1.183   0.661  0.00  0.00    +0.011 A 
ATOM     15  C   UNL     1       0.118   0.039  -0.112  0.00  0.00    -0.024 A 
ATOM     16  F   UNL     1       3.680   2.088  -0.439  0.00  0.00    -0.205 F 
ENDBRANCH   2  15
ENDBRANCH   1   6
BRANCH   1  17
ATOM     17  C   UNL     1       1.082  -5.712   1.169  0.00  0.00    +0.115 C 
BRANCH  17  18
ATOM     18  C   UNL     1       2.187  -6.736   1.120  0.00  0.00    +0.219 C 
ATOM     19  O   UNL     1       2.646  -7.082   0.053  0.00  0.00    -0.275 OA
ATOM     20  N   UNL     1       2.665  -7.266   2.264  0.00  0.00    -0.285 N 
ATOM     21  H   UNL     1       2.243  -7.053   3.111  0.00  0.00    +0.155 HD
BRANCH  20  22
ATOM     22  C   UNL     1       3.765  -8.120   2.229  0.00  0.00    +0.048 A 
ATOM     23  C   UNL     1       4.696  -8.016   1.204  0.00  0.00    +0.028 A 
ATOM     24  C   UNL     1       5.785  -8.861   1.169  0.00  0.00    +0.047 A 
ATOM     25  C   UNL     1       5.961  -9.823   2.157  0.00  0.00    +0.118 A 
ATOM     26  C   UNL     1       5.045  -9.941   3.185  0.00  0.00    +0.062 A 
ATOM     27  C   UNL     1       3.939  -9.085   3.233  0.00  0.00    +0.088 A 
BRANCH  27  28
ATOM     28  C   UNL     1       2.962  -9.200   4.327  0.00  0.00    +0.388 C 
ATOM     29  O   UNL     1       3.171  -9.967   5.257  0.00  0.00    -0.241 OA
ATOM     30  O   UNL     1       1.939  -8.529   4.306  0.00  0.00    -0.241 OA
ENDBRANCH  27  28
BRANCH  25  31
ATOM     31  O   UNL     1       7.039 -10.651   2.113  0.00  0.00    -0.507 OA
ATOM     32  H   UNL     1       7.815 -10.313   2.580  0.00  0.00    +0.292 HD
ENDBRANCH  25  31
ENDBRANCH  20  22
ENDBRANCH  17  18
ENDBRANCH   1  17
TORSDOF 7
