REMARK  Name = ZINC39631074
REMARK  11 active torsions:
REMARK  status: ('A' for Active; 'I' for Inactive)
REMARK    1  A    between atoms: C_1  and  C_2
REMARK    2  A    between atoms: C_6  and  C_7
REMARK    3  A    between atoms: C_11  and  C_20
REMARK    4  A    between atoms: N_22  and  C_23
REMARK    5  A    between atoms: C_23  and  C_24
REMARK    6  A    between atoms: C_24  and  C_25
REMARK    7  A    between atoms: C_24  and  C_26
REMARK    8  A    between atoms: C_24  and  C_27
REMARK    9  A    between atoms: C_27  and  N_28
REMARK   10  A    between atoms: N_28  and  C_29
REMARK   11  A    between atoms: N_28  and  C_30
REMARK                            x       y       z     vdW  Elec       q    Type
REMARK                         _______ _______ _______ _____ _____    ______ ____
ROOT
ATOM      1  C   UNL     1       1.532  -1.406   1.077  0.00  0.00    +0.254 C 
ATOM      2  O   UNL     1       1.879  -0.239   1.095  0.00  0.00    -0.269 OA
ATOM      3  N   UNL     1       1.288  -2.055   2.232  0.00  0.00    -0.296 N 
ATOM      4  C   UNL     1       0.977  -3.492   2.419  0.00  0.00    +0.121 C 
ATOM      5  C   UNL     1       1.742  -3.893   3.700  0.00  0.00    +0.100 C 
ATOM      6  C   UNL     1       1.929  -2.578   4.474  0.00  0.00    -0.004 C 
ATOM      7  C   UNL     1       1.276  -1.494   3.605  0.00  0.00    +0.115 C 
ATOM      8  C   UNL     1       3.414  -2.277   4.654  0.00  0.00    -0.010 C 
ATOM      9  C   UNL     1       3.575  -0.995   5.475  0.00  0.00    -0.082 C 
ATOM     10  N   UNL     1       2.927  -1.164   6.782  0.00  0.00    +0.379 N 
ATOM     11  C   UNL     1       1.484  -1.361   6.604  0.00  0.00    -0.082 C 
ATOM     12  C   UNL     1       1.235  -2.658   5.830  0.00  0.00    -0.010 C 
ATOM     13  H   UNL     1       3.320  -1.968   7.248  0.00  0.00    -0.086 HD
ATOM     14  H   UNL     1       3.087  -0.342   7.344  0.00  0.00    -0.086 HD
ENDROOT
BRANCH   1  20
ATOM     15  C   UNL     1       1.817  -0.158  -1.763  0.00  0.00    +0.045 C 
ATOM     16  C   UNL     1       1.496  -1.605  -1.491  0.00  0.00    -0.031 A 
ATOM     17  C   UNL     1       1.303  -2.514  -2.503  0.00  0.00    +0.011 A 
ATOM     18  C   UNL     1       1.017  -3.801  -2.188  0.00  0.00    +0.046 A 
ATOM     19  S   UNL     1       1.000  -3.819  -0.508  0.00  0.00    -0.092 S 
ATOM     20  C   UNL     1       1.381  -2.105  -0.203  0.00  0.00    +0.077 A 
ENDBRANCH   1  20
BRANCH   5  21
ATOM     21  C   UNL     1       0.931  -4.871   4.511  0.00  0.00    +0.218 C 
ATOM     22  O   UNL     1      -0.277  -4.890   4.406  0.00  0.00    -0.275 OA
ATOM     23  N   UNL     1       1.548  -5.724   5.353  0.00  0.00    -0.315 N 
ATOM     24  H   UNL     1       2.514  -5.708   5.437  0.00  0.00    +0.149 HD
BRANCH  23  25
ATOM     25  C   UNL     1       0.759  -6.674   6.141  0.00  0.00    +0.108 C 
BRANCH  25  26
ATOM     26  C   UNL     1       1.696  -7.518   7.007  0.00  0.00    -0.034 C 
ATOM     27  C   UNL     1       2.669  -8.285   6.109  0.00  0.00    +0.010 C 
ATOM     28  C   UNL     1       2.482  -6.604   7.949  0.00  0.00    +0.010 C 
BRANCH  26  29
ATOM     29  C   UNL     1       0.872  -8.511   7.830  0.00  0.00    -0.072 C 
BRANCH  29  30
ATOM     30  N   UNL     1       1.769  -9.304   8.682  0.00  0.00    +0.376 N 
ATOM     31  C   UNL     1       2.017  -8.582   9.937  0.00  0.00    -0.097 C 
ATOM     32  C   UNL     1       1.144 -10.600   8.978  0.00  0.00    -0.097 C 
ATOM     33  H   UNL     1       2.643  -9.454   8.202  0.00  0.00    -0.083 HD
ENDBRANCH  29  30
ENDBRANCH  26  29
ENDBRANCH  25  26
ENDBRANCH  23  25
ENDBRANCH   5  21
TORSDOF 6
