REMARK  Name = ZINC16930016
REMARK  8 active torsions:
REMARK  status: ('A' for Active; 'I' for Inactive)
REMARK    1  A    between atoms: C_1  and  C_2
REMARK    2  A    between atoms: C_2  and  C_4
REMARK    3  A    between atoms: C_2  and  O_6
REMARK    4  A    between atoms: O_6  and  C_7
REMARK    5  A    between atoms: C_12  and  C_13
REMARK    6  A    between atoms: N_17  and  N_21
REMARK    7  A    between atoms: C_22  and  C_24
REMARK    8  A    between atoms: C_29  and  O_30
REMARK                            x       y       z     vdW  Elec       q    Type
REMARK                         _______ _______ _______ _____ _____    ______ ____
ROOT
ATOM      1  C   UNL     1       5.342   4.388  -0.598  0.00  0.00    +0.032 C 
ATOM      2  C   UNL     1       6.606   4.855  -0.757  0.00  0.00    +0.079 C 
ATOM      3  C   UNL     1       7.883   4.305  -0.258  0.00  0.00    +0.275 C 
ATOM      4  O   UNL     1       7.924   3.285   0.405  0.00  0.00    -0.267 OA
ATOM      5  N   UNL     1       8.979   4.977  -0.569  0.00  0.00    -0.169 N 
ATOM      6  C   UNL     1       8.929   6.106  -1.304  0.00  0.00    +0.138 C 
ATOM      7  S   UNL     1      10.225   7.106  -1.806  0.00  0.00    -0.026 S 
ATOM      8  S   UNL     1       7.185   6.301  -1.635  0.00  0.00    -0.059 S 
ENDROOT
BRANCH   1  14
ATOM      9  C   UNL     1       2.948   4.589  -1.256  0.00  0.00    +0.129 A 
ATOM     10  C   UNL     1       1.877   5.359  -1.677  0.00  0.00    +0.046 A 
ATOM     11  C   UNL     1       2.041   6.713  -1.899  0.00  0.00    +0.004 A 
ATOM     12  C   UNL     1       3.275   7.312  -1.703  0.00  0.00    +0.001 A 
ATOM     13  C   UNL     1       4.353   6.564  -1.284  0.00  0.00    +0.011 A 
ATOM     14  C   UNL     1       4.200   5.192  -1.050  0.00  0.00    +0.018 A 
BRANCH   9  15
ATOM     15  O   UNL     1       2.788   3.259  -1.038  0.00  0.00    -0.477 OA
BRANCH  15  17
ATOM     16  C   UNL     1       0.557   2.871  -0.193  0.00  0.00    +0.064 C 
ATOM     17  C   UNL     1       1.518   2.696  -1.371  0.00  0.00    +0.282 C 
BRANCH  17  18
ATOM     18  C   UNL     1       1.682   1.228  -1.671  0.00  0.00    +0.395 C 
ATOM     19  O   UNL     1       2.757   0.697  -1.519  0.00  0.00    -0.242 OA
ATOM     20  O   UNL     1       0.634   0.510  -2.106  0.00  0.00    -0.242 OA
ENDBRANCH  17  18
ENDBRANCH  15  17
ENDBRANCH   9  15
ENDBRANCH   1  14
BRANCH   5  21
ATOM     21  N   UNL     1      10.220   4.504  -0.123  0.00  0.00    -0.222 N 
ATOM     22  C   UNL     1      11.061   3.900  -0.987  0.00  0.00    +0.264 C 
ATOM     23  O   UNL     1      10.742   3.766  -2.152  0.00  0.00    -0.269 OA
ATOM     24  H   UNL     1      10.475   4.611   0.806  0.00  0.00    +0.174 HD
BRANCH  22  25
ATOM     25  C   UNL     1      12.368   3.402  -0.518  0.00  0.00    +0.079 A 
ATOM     26  C   UNL     1      12.741   3.560   0.819  0.00  0.00    +0.017 A 
ATOM     27  C   UNL     1      13.962   3.088   1.251  0.00  0.00    +0.001 A 
ATOM     28  C   UNL     1      14.826   2.468   0.364  0.00  0.00    +0.004 A 
ATOM     29  C   UNL     1      14.472   2.311  -0.961  0.00  0.00    +0.046 A 
ATOM     30  C   UNL     1      13.245   2.774  -1.413  0.00  0.00    +0.129 A 
BRANCH  30  31
ATOM     31  O   UNL     1      12.896   2.621  -2.715  0.00  0.00    -0.506 OA
ATOM     32  H   UNL     1      13.160   3.358  -3.282  0.00  0.00    +0.292 HD
ENDBRANCH  30  31
ENDBRANCH  22  25
ENDBRANCH   5  21
TORSDOF 7
