REMARK  Name = ZINC67401459
REMARK  8 active torsions:
REMARK  status: ('A' for Active; 'I' for Inactive)
REMARK    1  A    between atoms: C_1  and  C_2
REMARK    2  A    between atoms: C_2  and  C_3
REMARK    3  A    between atoms: C_3  and  N_4
REMARK    4  A    between atoms: C_5  and  C_7
REMARK    5  A    between atoms: C_7  and  N_8
REMARK    6  A    between atoms: C_16  and  N_17
REMARK    7  A    between atoms: N_20  and  C_21
REMARK    8  A    between atoms: C_24  and  C_27
REMARK                            x       y       z     vdW  Elec       q    Type
REMARK                         _______ _______ _______ _____ _____    ______ ____
ROOT
ATOM      1  N   UNL     1      -4.325  -4.279   0.144  0.00  0.00    +0.388 N 
ATOM      2  C   UNL     1      -4.184  -5.743   0.103  0.00  0.00    -0.073 C 
ATOM      3  C   UNL     1      -5.534  -6.372   0.448  0.00  0.00    +0.019 C 
ATOM      4  C   UNL     1      -6.614  -5.765  -0.410  0.00  0.00    -0.027 A 
ATOM      5  C   UNL     1      -6.413  -4.583  -1.089  0.00  0.00    -0.059 A 
ATOM      6  C   UNL     1      -7.433  -4.053  -1.865  0.00  0.00    +0.002 A 
ATOM      7  C   UNL     1      -8.647  -4.703  -1.966  0.00  0.00    +0.002 A 
ATOM      8  C   UNL     1      -8.853  -5.889  -1.289  0.00  0.00    +0.023 A 
ATOM      9  C   UNL     1      -7.837  -6.422  -0.509  0.00  0.00    +0.038 A 
ATOM     10  C   UNL     1      -5.103  -3.842  -1.019  0.00  0.00    -0.042 C 
ATOM     11  H   UNL     1      -4.802  -4.008   0.991  0.00  0.00    -0.081 HD
ENDROOT
BRANCH   9  12
ATOM     12  N   UNL     1      -8.042  -7.623   0.178  0.00  0.00    -0.269 N 
ATOM     13  C   UNL     1      -9.002  -8.477  -0.228  0.00  0.00    +0.308 C 
ATOM     14  O   UNL     1      -9.618  -8.256  -1.252  0.00  0.00    -0.252 OA
ATOM     15  N   UNL     1      -9.278  -9.577   0.501  0.00  0.00    -0.269 N 
ATOM     16  H   UNL     1      -7.492  -7.841   0.948  0.00  0.00    +0.156 HD
ATOM     17  H   UNL     1      -8.838  -9.717   1.354  0.00  0.00    +0.156 HD
BRANCH  15  18
ATOM     18  C   UNL     1     -10.200 -10.517   0.027  0.00  0.00    +0.035 A 
ATOM     19  C   UNL     1     -10.313 -10.755  -1.337  0.00  0.00    +0.023 A 
ATOM     20  C   UNL     1     -11.223 -11.684  -1.802  0.00  0.00    +0.005 A 
ATOM     21  C   UNL     1     -12.023 -12.376  -0.910  0.00  0.00    -0.050 A 
ATOM     22  C   UNL     1     -11.914 -12.141   0.448  0.00  0.00    +0.005 A 
ATOM     23  C   UNL     1     -11.001 -11.217   0.919  0.00  0.00    +0.023 A 
ATOM     24  C   UNL     1     -13.015 -13.389  -1.421  0.00  0.00    +0.044 C 
ENDBRANCH  15  18
ENDBRANCH   9  12
BRANCH   1  25
ATOM     25  C   UNL     1      -2.995  -3.655   0.108  0.00  0.00    +0.019 C 
BRANCH  25  27
ATOM     26  N   UNL     1      -2.040  -1.379   0.258  0.00  0.00    -0.317 N 
ATOM     27  C   UNL     1      -3.136  -2.163   0.262  0.00  0.00    +0.196 C 
ATOM     28  O   UNL     1      -4.236  -1.667   0.388  0.00  0.00    -0.278 OA
ATOM     29  H   UNL     1      -1.161  -1.775   0.157  0.00  0.00    +0.149 HD
BRANCH  26  30
ATOM     30  C   UNL     1      -2.177   0.072   0.407  0.00  0.00    +0.104 C 
BRANCH  30  32
ATOM     31  C   UNL     1      -0.935   2.237   0.525  0.00  0.00    +0.005 C 
ATOM     32  C   UNL     1      -0.792   0.722   0.370  0.00  0.00    +0.015 C 
ENDBRANCH  30  32
ENDBRANCH  26  30
ENDBRANCH  25  27
ENDBRANCH   1  25
TORSDOF 6
