REMARK  Name = ZINC64176373
REMARK  4 active torsions:
REMARK  status: ('A' for Active; 'I' for Inactive)
REMARK    1  A    between atoms: C_8  and  C_13
REMARK    2  A    between atoms: N_15  and  C_16
REMARK    3  A    between atoms: C_16  and  C_17
REMARK    4  A    between atoms: C_17  and  C_18
REMARK                            x       y       z     vdW  Elec       q    Type
REMARK                         _______ _______ _______ _____ _____    ______ ____
ROOT
ATOM      1  C   UNL     1      -0.016   1.354   0.009  0.00  0.00    +0.001 A 
ATOM      2  C   UNL     1       1.165   2.097   0.002  0.00  0.00    +0.002 A 
ATOM      3  C   UNL     1       2.394   1.518  -0.013  0.00  0.00    +0.024 A 
ATOM      4  C   UNL     1       2.524   0.117  -0.021  0.00  0.00    +0.040 A 
ATOM      5  N   UNL     1       3.736  -0.439  -0.035  0.00  0.00    -0.284 N 
ATOM      6  C   UNL     1       3.929  -1.747  -0.045  0.00  0.00    +0.233 C 
ATOM      7  O   UNL     1       5.060  -2.197  -0.058  0.00  0.00    -0.274 OA
ATOM      8  C   UNL     1       2.741  -2.681  -0.039  0.00  0.00    +0.184 C 
ATOM      9  C   UNL     1       1.361  -2.054  -0.022  0.00  0.00    +0.004 C 
ATOM     10  C   UNL     1       1.294  -0.692  -0.014  0.00  0.00    -0.007 A 
ATOM     11  C   UNL     1       0.002  -0.004   0.002  0.00  0.00    +0.009 A 
ATOM     12  H   UNL     1       4.511   0.143  -0.039  0.00  0.00    +0.155 HD
ENDROOT
BRANCH   8  13
ATOM     13  C   UNL     1       2.835  -3.557  -1.262  0.00  0.00    +0.229 C 
ATOM     14  O   UNL     1       1.947  -3.542  -2.088  0.00  0.00    -0.275 OA
ATOM     15  N   UNL     1       3.906  -4.356  -1.438  0.00  0.00    -0.314 N 
ATOM     16  H   UNL     1       4.616  -4.368  -0.777  0.00  0.00    +0.149 HD
BRANCH  15  17
ATOM     17  C   UNL     1       3.997  -5.207  -2.627  0.00  0.00    +0.108 C 
BRANCH  17  18
ATOM     18  C   UNL     1       5.301  -6.007  -2.582  0.00  0.00    +0.049 C 
BRANCH  18  19
ATOM     19  C   UNL     1       5.395  -6.883  -3.805  0.00  0.00    -0.072 C 
ATOM     20  C   UNL     1       6.058  -6.435  -4.822  0.00  0.00    -0.028 C 
ATOM     21  C   UNL     1       6.230  -7.185  -6.111  0.00  0.00    +0.027 C 
ATOM     22  C   UNL     1       5.901  -8.666  -5.906  0.00  0.00    +0.004 C 
ATOM     23  C   UNL     1       4.549  -8.767  -5.187  0.00  0.00    +0.005 C 
ATOM     24  C   UNL     1       4.719  -8.222  -3.765  0.00  0.00    +0.030 C 
ENDBRANCH  18  19
ENDBRANCH  17  18
ENDBRANCH  15  17
ENDBRANCH   8  13
TORSDOF 4
