REMARK  Name = ZINC42428756
REMARK  6 active torsions:
REMARK  status: ('A' for Active; 'I' for Inactive)
REMARK    1  A    between atoms: C_1  and  C_2
REMARK    2  A    between atoms: C_2  and  C_3
REMARK    3  A    between atoms: C_7  and  C_24
REMARK    4  A    between atoms: C_9  and  N_12
REMARK    5  A    between atoms: C_14  and  C_21
REMARK    6  A    between atoms: C_18  and  C_20
REMARK                            x       y       z     vdW  Elec       q    Type
REMARK                         _______ _______ _______ _____ _____    ______ ____
ROOT
ATOM      1  N   UNL     1       1.241  -4.309  -0.311  0.00  0.00    +0.385 N 
ATOM      2  C   UNL     1       2.003  -4.891   0.801  0.00  0.00    -0.065 C 
ATOM      3  C   UNL     1       1.771  -6.402   0.848  0.00  0.00    +0.058 C 
ATOM      4  C   UNL     1       0.278  -6.678   1.050  0.00  0.00    +0.009 C 
ATOM      5  C   UNL     1      -0.512  -6.005  -0.075  0.00  0.00    -0.015 C 
ATOM      6  C   UNL     1      -0.196  -4.508  -0.088  0.00  0.00    -0.071 C 
ATOM      7  C   UNL     1      -0.984  -3.830  -1.211  0.00  0.00    -0.013 C 
ATOM      8  H   UNL     1       1.512  -4.759  -1.172  0.00  0.00    -0.081 HD
ENDROOT
BRANCH   1  13
ATOM      9  C   UNL     1       3.335  -1.146  -0.383  0.00  0.00    -0.013 C 
ATOM     10  C   UNL     1       2.625  -0.413   0.757  0.00  0.00    +0.004 C 
ATOM     11  C   UNL     1       1.116  -0.641   0.647  0.00  0.00    +0.017 C 
ATOM     12  C   UNL     1       0.817  -2.138   0.740  0.00  0.00    +0.078 C 
ATOM     13  C   UNL     1       1.528  -2.871  -0.400  0.00  0.00    -0.051 C 
ATOM     14  C   UNL     1       3.037  -2.644  -0.290  0.00  0.00    -0.011 C 
BRANCH   9  16
ATOM     15  C   UNL     1       3.242   0.859  -1.871  0.00  0.00    +0.004 C 
ATOM     16  C   UNL     1       2.834  -0.609  -1.725  0.00  0.00    -0.000 C 
ENDBRANCH   9  16
BRANCH  12  17
ATOM     17  C   UNL     1       1.299  -2.656   2.031  0.00  0.00    +0.064 C 
ATOM     18  N   UNL     1       1.671  -3.055   3.028  0.00  0.00    -0.196 NA
ENDBRANCH  12  17
ENDBRANCH   1  13
BRANCH   3  19
ATOM     19  C   UNL     1       2.228  -7.022  -0.447  0.00  0.00    +0.212 C 
ATOM     20  O   UNL     1       2.693  -6.323  -1.323  0.00  0.00    -0.276 OA
ATOM     21  N   UNL     1       2.119  -8.352  -0.633  0.00  0.00    -0.329 N 
ATOM     22  H   UNL     1       1.747  -8.911   0.067  0.00  0.00    +0.145 HD
ATOM     23  H   UNL     1       2.413  -8.751  -1.467  0.00  0.00    +0.145 HD
ENDBRANCH   3  19
TORSDOF 4
