REMARK  Name = ZINC01710365
REMARK  2 active torsions:
REMARK  status: ('A' for Active; 'I' for Inactive)
REMARK    1  A    between atoms: C_1  and  C_2
REMARK    2  A    between atoms: C_3  and  C_16
REMARK                            x       y       z     vdW  Elec       q    Type
REMARK                         _______ _______ _______ _____ _____    ______ ____
ROOT
ATOM      1  C   UNL     1      -1.147  -0.763   1.644  0.00  0.00    +0.039 C 
ATOM      2  C   UNL     1      -1.263   0.690   2.026  0.00  0.00    -0.074 C 
ATOM      3  C   UNL     1      -0.722   1.572   1.245  0.00  0.00    -0.072 C 
ATOM      4  C   UNL     1      -0.749   3.050   1.511  0.00  0.00    +0.056 C 
ATOM      5  C   UNL     1      -1.848   3.390   2.512  0.00  0.00    +0.127 C 
ATOM      6  C   UNL     1      -1.663   2.467   3.714  0.00  0.00    +0.030 C 
ATOM      7  C   UNL     1      -1.997   1.035   3.289  0.00  0.00    +0.032 C 
ATOM      8  C   UNL     1      -1.633   4.812   2.979  0.00  0.00    +0.236 C 
ATOM      9  O   UNL     1      -0.592   5.156   3.498  0.00  0.00    -0.274 OA
ATOM     10  N   UNL     1      -2.650   5.683   2.794  0.00  0.00    -0.239 N 
ATOM     11  C   UNL     1      -3.801   5.310   2.222  0.00  0.00    +0.312 C 
ATOM     12  O   UNL     1      -4.662   6.158   2.094  0.00  0.00    -0.252 OA
ATOM     13  N   UNL     1      -4.078   4.078   1.781  0.00  0.00    -0.239 N 
ATOM     14  C   UNL     1      -3.183   3.069   1.879  0.00  0.00    +0.236 C 
ATOM     15  O   UNL     1      -3.441   1.955   1.478  0.00  0.00    -0.274 OA
ATOM     16  C   UNL     1      -0.021   1.087   0.003  0.00  0.00    +0.039 C 
ATOM     17  H   UNL     1      -2.542   6.603   3.083  0.00  0.00    +0.159 HD
ATOM     18  H   UNL     1      -4.944   3.904   1.379  0.00  0.00    +0.159 HD
ENDROOT
TORSDOF 0
