REMARK  Name = ZINC43109709
REMARK  10 active torsions:
REMARK  status: ('A' for Active; 'I' for Inactive)
REMARK    1  A    between atoms: C_1  and  N_2
REMARK    2  A    between atoms: N_2  and  C_3
REMARK    3  A    between atoms: N_2  and  C_4
REMARK    4  A    between atoms: C_4  and  C_10
REMARK    5  A    between atoms: C_10  and  N_11
REMARK    6  A    between atoms: N_14  and  N_15
REMARK    7  A    between atoms: C_16  and  C_18
REMARK    8  A    between atoms: C_18  and  O_19
REMARK    9  A    between atoms: O_19  and  C_20
REMARK   10  A    between atoms: C_23  and  C_26
REMARK                            x       y       z     vdW  Elec       q    Type
REMARK                         _______ _______ _______ _____ _____    ______ ____
ROOT
ATOM      1  N   UNL     1      -1.430  -0.478  -2.432  0.00  0.00    -0.300 N 
ATOM      2  C   UNL     1      -1.907  -0.152  -3.650  0.00  0.00    +0.316 C 
ATOM      3  O   UNL     1      -2.906   0.534  -3.749  0.00  0.00    -0.251 OA
ATOM      4  N   UNL     1      -1.276  -0.587  -4.759  0.00  0.00    -0.218 N 
ATOM      5  H   UNL     1      -0.633  -1.026  -2.354  0.00  0.00    +0.150 HD
ATOM      6  H   UNL     1      -1.619  -0.352  -5.636  0.00  0.00    +0.174 HD
ENDROOT
BRANCH   4   7
ATOM      7  N   UNL     1      -0.125  -1.377  -4.646  0.00  0.00    -0.230 N 
ATOM      8  C   UNL     1       0.506  -1.812  -5.755  0.00  0.00    +0.267 C 
ATOM      9  O   UNL     1       0.077  -1.519  -6.851  0.00  0.00    -0.271 OA
ATOM     10  H   UNL     1       0.218  -1.612  -3.769  0.00  0.00    +0.173 HD
BRANCH   8  11
ATOM     11  C   UNL     1       1.744  -2.663  -5.633  0.00  0.00    +0.326 C 
BRANCH  11  12
ATOM     12  O   UNL     1       2.224  -2.994  -6.937  0.00  0.00    -0.483 OA
BRANCH  12  13
ATOM     13  C   UNL     1       3.342  -3.762  -7.006  0.00  0.00    +0.121 A 
ATOM     14  C   UNL     1       3.960  -4.192  -5.837  0.00  0.00    +0.047 A 
ATOM     15  C   UNL     1       5.093  -4.971  -5.902  0.00  0.00    +0.022 A 
ATOM     16  C   UNL     1       5.622  -5.330  -7.145  0.00  0.00    +0.052 A 
ATOM     17  C   UNL     1       4.998  -4.895  -8.318  0.00  0.00    +0.022 A 
ATOM     18  C   UNL     1       3.862  -4.120  -8.244  0.00  0.00    +0.047 A 
BRANCH  16  19
ATOM     19  C   UNL     1       6.801  -6.139  -7.217  0.00  0.00    +0.099 C 
ATOM     20  N   UNL     1       7.737  -6.782  -7.275  0.00  0.00    -0.191 NA
ENDBRANCH  16  19
ENDBRANCH  12  13
ENDBRANCH  11  12
ENDBRANCH   8  11
ENDBRANCH   4   7
BRANCH   1  21
ATOM     21  C   UNL     1      -2.116  -0.006  -1.227  0.00  0.00    +0.094 C 
BRANCH  21  22
ATOM     22  C   UNL     1      -1.376  -0.512   0.012  0.00  0.00    -0.050 C 
ATOM     23  C   UNL     1      -2.092  -0.019   1.271  0.00  0.00    -0.010 C 
ATOM     24  C   UNL     1      -3.528  -0.549   1.282  0.00  0.00    -0.001 C 
ATOM     25  C   UNL     1      -3.507  -2.079   1.274  0.00  0.00    -0.000 C 
ATOM     26  C   UNL     1      -2.791  -2.572   0.015  0.00  0.00    -0.001 C 
ATOM     27  C   UNL     1      -1.355  -2.042   0.004  0.00  0.00    -0.010 C 
BRANCH  22  29
ATOM     28  C   UNL     1      -0.018   1.465   0.010  0.00  0.00    -0.096 C 
ATOM     29  N   UNL     1       0.002  -0.004   0.002  0.00  0.00    +0.381 N 
ATOM     30  C   UNL     1       0.713  -0.491   1.192  0.00  0.00    -0.096 C 
ATOM     31  H   UNL     1       0.474  -0.330  -0.828  0.00  0.00    -0.082 HD
ENDBRANCH  22  29
ENDBRANCH  21  22
ENDBRANCH   1  21
TORSDOF 8
