REMARK  Name = ZINC51120571
REMARK  7 active torsions:
REMARK  status: ('A' for Active; 'I' for Inactive)
REMARK    1  A    between atoms: C_1  and  C_2
REMARK    2  A    between atoms: C_2  and  C_4
REMARK    3  A    between atoms: C_2  and  N_17
REMARK    4  A    between atoms: C_4  and  N_5
REMARK    5  A    between atoms: C_6  and  C_8
REMARK    6  A    between atoms: C_10  and  N_15
REMARK    7  A    between atoms: N_15  and  N_16
REMARK                            x       y       z     vdW  Elec       q    Type
REMARK                         _______ _______ _______ _____ _____    ______ ____
ROOT
ATOM      1  N   UNL     1       0.500  -1.951   1.505  0.00  0.00    -0.313 N 
ATOM      2  C   UNL     1       0.921  -2.564   2.629  0.00  0.00    +0.244 C 
ATOM      3  O   UNL     1       1.459  -1.920   3.508  0.00  0.00    -0.270 OA
ATOM      4  H   UNL     1       0.070  -2.465   0.804  0.00  0.00    +0.149 HD
ENDROOT
BRANCH   2   5
ATOM      5  C   UNL     1       0.728  -4.024   2.793  0.00  0.00    +0.043 A 
ATOM      6  C   UNL     1       1.152  -4.677   3.951  0.00  0.00    +0.057 A 
ATOM      7  C   UNL     1       0.951  -6.048   4.063  0.00  0.00    +0.134 A 
ATOM      8  N   UNL     1       0.368  -6.728   3.089  0.00  0.00    -0.220 NA
ATOM      9  C   UNL     1      -0.046  -6.143   1.980  0.00  0.00    +0.132 A 
ATOM     10  C   UNL     1       0.112  -4.784   1.792  0.00  0.00    +0.053 A 
ATOM     11 CL   UNL     1      -0.804  -7.096   0.743  0.00  0.00    -0.062 Cl
BRANCH   7  12
ATOM     12  N   UNL     1       1.369  -6.713   5.211  0.00  0.00    -0.267 N 
ATOM     13  H   UNL     1       1.797  -6.220   5.928  0.00  0.00    +0.167 HD
BRANCH  12  14
ATOM     14  N   UNL     1       1.175  -8.059   5.329  0.00  0.00    -0.255 NA
ATOM     15  H   UNL     1       1.596  -8.554   4.556  0.00  0.00    +0.140 HD
ATOM     16  H   UNL     1       1.527  -8.400   6.211  0.00  0.00    +0.140 HD
ENDBRANCH  12  14
ENDBRANCH   7  12
ENDBRANCH   2   5
BRANCH   1  17
ATOM     17  C   UNL     1       0.690  -0.507   1.343  0.00  0.00    +0.089 C 
BRANCH  17  19
ATOM     18  C   UNL     1       0.111   1.478  -0.059  0.00  0.00    -0.012 C 
ATOM     19  C   UNL     1       0.012  -0.045   0.052  0.00  0.00    -0.054 C 
BRANCH  19  20
ATOM     20  N   UNL     1      -1.402  -0.444   0.072  0.00  0.00    +0.382 N 
ATOM     21  C   UNL     1      -2.015  -0.131  -1.225  0.00  0.00    -0.078 C 
ATOM     22  C   UNL     1      -3.466  -0.618  -1.238  0.00  0.00    -0.019 C 
ATOM     23  C   UNL     1      -4.244   0.084  -0.121  0.00  0.00    -0.004 C 
ATOM     24  C   UNL     1      -3.553  -0.188   1.218  0.00  0.00    -0.019 C 
ATOM     25  C   UNL     1      -2.099   0.283   1.140  0.00  0.00    -0.078 C 
ATOM     26  H   UNL     1      -1.468  -1.436   0.242  0.00  0.00    -0.081 HD
ENDBRANCH  19  20
ENDBRANCH  17  19
ENDBRANCH   1  17
TORSDOF 6
