REMARK  Name = ZINC22063869
REMARK  11 active torsions:
REMARK  status: ('A' for Active; 'I' for Inactive)
REMARK    1  A    between atoms: C_1  and  C_2
REMARK    2  A    between atoms: C_3  and  O_24
REMARK    3  A    between atoms: C_7  and  C_8
REMARK    4  A    between atoms: C_8  and  S_9
REMARK    5  A    between atoms: S_9  and  C_11
REMARK    6  A    between atoms: C_16  and  O_20
REMARK    7  A    between atoms: O_20  and  C_21
REMARK    8  A    between atoms: C_21  and  O_22
REMARK    9  A    between atoms: O_22  and  C_23
REMARK   10  A    between atoms: O_24  and  C_25
REMARK   11  A    between atoms: C_25  and  C_26
REMARK                            x       y       z     vdW  Elec       q    Type
REMARK                         _______ _______ _______ _____ _____    ______ ____
ROOT
ATOM      1  S   UNL     1      -1.684   0.312   3.039  0.00  0.00    +0.095 S 
ATOM      2  O   UNL     1      -2.309   1.251   2.175  0.00  0.00    -0.249 OA
ENDROOT
BRANCH   1   3
ATOM      3  C   UNL     1      -1.513   1.182   4.561  0.00  0.00    +0.198 A 
ATOM      4  N   UNL     1      -1.418   0.623   5.732  0.00  0.00    -0.220 NA
ATOM      5  C   UNL     1      -1.299   1.582   6.688  0.00  0.00    +0.090 A 
ATOM      6  C   UNL     1      -1.167   1.543   8.078  0.00  0.00    +0.033 A 
ATOM      7  C   UNL     1      -1.066   2.706   8.786  0.00  0.00    +0.048 A 
ATOM      8  C   UNL     1      -1.093   3.937   8.136  0.00  0.00    +0.126 A 
ATOM      9  C   UNL     1      -1.223   3.997   6.760  0.00  0.00    +0.073 A 
ATOM     10  C   UNL     1      -1.326   2.822   6.028  0.00  0.00    +0.070 A 
ATOM     11  N   UNL     1      -1.456   2.536   4.684  0.00  0.00    -0.331 N 
ATOM     12  H   UNL     1      -1.502   3.181   3.961  0.00  0.00    +0.168 HD
BRANCH   8  13
ATOM     13  O   UNL     1      -0.991   5.085   8.856  0.00  0.00    -0.466 OA
BRANCH  13  14
ATOM     14  C   UNL     1      -0.860   4.953  10.273  0.00  0.00    +0.394 C 
BRANCH  14  15
ATOM     15  O   UNL     1       0.466   4.524  10.590  0.00  0.00    -0.347 OA
ATOM     16  C   UNL     1       1.453   5.551  10.469  0.00  0.00    +0.198 C 
ENDBRANCH  14  15
ENDBRANCH  13  14
ENDBRANCH   8  13
ENDBRANCH   1   3
BRANCH   1  17
ATOM     17  C   UNL     1       0.025   0.036   2.497  0.00  0.00    +0.165 C 
BRANCH  17  24
ATOM     18  C   UNL     1      -0.018   1.503   0.010  0.00  0.00    +0.049 C 
ATOM     19  C   UNL     1       0.002  -0.004   0.002  0.00  0.00    +0.011 A 
ATOM     20  C   UNL     1       0.006  -0.703  -1.202  0.00  0.00    +0.127 A 
ATOM     21  C   UNL     1       0.026  -2.095  -1.158  0.00  0.00    +0.063 A 
ATOM     22  C   UNL     1       0.040  -2.727   0.069  0.00  0.00    +0.086 A 
ATOM     23  N   UNL     1       0.036  -2.029   1.189  0.00  0.00    -0.363 N 
ATOM     24  C   UNL     1       0.023  -0.710   1.187  0.00  0.00    +0.035 A 
ATOM     25  H   UNL     1       0.047  -2.500   2.037  0.00  0.00    +0.165 HD
BRANCH  20  26
ATOM     26  O   UNL     1      -0.009  -0.045  -2.389  0.00  0.00    -0.483 OA
BRANCH  26  27
ATOM     27  C   UNL     1      -0.004  -0.844  -3.574  0.00  0.00    +0.342 C 
BRANCH  27  28
ATOM     28  C   UNL     1      -0.023   0.067  -4.804  0.00  0.00    +0.424 C 
ATOM     29  F   UNL     1       1.108   0.891  -4.791  0.00  0.00    -0.167 F 
ATOM     30  F   UNL     1      -0.018  -0.715  -5.964  0.00  0.00    -0.167 F 
ATOM     31  F   UNL     1      -1.177   0.858  -4.780  0.00  0.00    -0.167 F 
ENDBRANCH  27  28
ENDBRANCH  26  27
ENDBRANCH  20  26
ENDBRANCH  17  24
ENDBRANCH   1  17
TORSDOF 9
