REMARK  Name = ZINC44509270
REMARK  5 active torsions:
REMARK  status: ('A' for Active; 'I' for Inactive)
REMARK    1  A    between atoms: C_3  and  N_14
REMARK    2  A    between atoms: C_4  and  C_10
REMARK    3  A    between atoms: C_6  and  N_7
REMARK    4  A    between atoms: N_14  and  C_15
REMARK    5  A    between atoms: C_15  and  C_16
REMARK                            x       y       z     vdW  Elec       q    Type
REMARK                         _______ _______ _______ _____ _____    ______ ____
ROOT
ATOM      1  C   UNL     1      -0.017   1.378   0.010  0.00  0.00    +0.034 A 
ATOM      2  C   UNL     1       1.169   2.087   0.002  0.00  0.00    +0.026 A 
ATOM      3  C   UNL     1       2.381   1.409  -0.013  0.00  0.00    +0.039 A 
ATOM      4  C   UNL     1       2.396   0.020  -0.021  0.00  0.00    +0.078 A 
ATOM      5  C   UNL     1       1.207  -0.682  -0.013  0.00  0.00    +0.047 A 
ATOM      6  C   UNL     1       0.002  -0.004   0.002  0.00  0.00    +0.127 A 
ENDROOT
BRANCH   4   7
ATOM      7  C   UNL     1       3.709  -0.720  -0.038  0.00  0.00    +0.419 C 
ATOM      8  F   UNL     1       3.468  -2.098  -0.043  0.00  0.00    -0.166 F 
ATOM      9  F   UNL     1       4.428  -0.369  -1.185  0.00  0.00    -0.166 F 
ATOM     10  F   UNL     1       4.450  -0.381   1.099  0.00  0.00    -0.166 F 
ENDBRANCH   4   7
BRANCH   6  11
ATOM     11  N   UNL     1      -1.270  -0.760   0.010  0.00  0.00    +0.056 N 
ATOM     12  O   UNL     1      -2.325  -0.168   0.023  0.00  0.00    -0.126 OA
ATOM     13  O   UNL     1      -1.256  -1.969   0.004  0.00  0.00    -0.126 OA
ENDBRANCH   6  11
BRANCH   3  14
ATOM     14  N   UNL     1       3.582   2.122  -0.021  0.00  0.00    -0.343 N 
ATOM     15  H   UNL     1       4.428   1.647  -0.032  0.00  0.00    +0.146 HD
BRANCH  14  16
ATOM     16  C   UNL     1       3.564   3.587  -0.014  0.00  0.00    +0.105 C 
BRANCH  16  17
ATOM     17  C   UNL     1       5.000   4.115  -0.025  0.00  0.00    +0.003 C 
ATOM     18  C   UNL     1       5.701   3.721   1.278  0.00  0.00    -0.014 C 
ATOM     19  C   UNL     1       7.109   4.319   1.295  0.00  0.00    -0.082 C 
ATOM     20  N   UNL     1       7.025   5.781   1.206  0.00  0.00    +0.379 N 
ATOM     21  C   UNL     1       6.419   6.168  -0.074  0.00  0.00    -0.082 C 
ATOM     22  C   UNL     1       4.984   5.641  -0.143  0.00  0.00    -0.014 C 
ATOM     23  H   UNL     1       6.459   6.131   1.964  0.00  0.00    -0.086 HD
ATOM     24  H   UNL     1       7.951   6.175   1.271  0.00  0.00    -0.086 HD
ENDBRANCH  16  17
ENDBRANCH  14  16
ENDBRANCH   3  14
TORSDOF 5
