REMARK  Name = ZINC36260702
REMARK  4 active torsions:
REMARK  status: ('A' for Active; 'I' for Inactive)
REMARK    1  A    between atoms: C_1  and  C_2
REMARK    2  A    between atoms: N_4  and  C_5
REMARK    3  A    between atoms: C_5  and  C_6
REMARK    4  A    between atoms: N_8  and  C_9
REMARK                            x       y       z     vdW  Elec       q    Type
REMARK                         _______ _______ _______ _____ _____    ______ ____
ROOT
ATOM      1  C   UNL     1      -4.152  -4.516   0.018  0.00  0.00    +0.070 C 
ATOM      2  C   UNL     1      -4.661  -4.586   1.460  0.00  0.00    +0.003 C 
ATOM      3  C   UNL     1      -6.067  -5.190   1.470  0.00  0.00    -0.080 C 
ATOM      4  N   UNL     1      -6.027  -6.541   0.897  0.00  0.00    +0.383 N 
ATOM      5  C   UNL     1      -5.609  -6.474  -0.509  0.00  0.00    -0.067 C 
ATOM      6  C   UNL     1      -4.185  -5.918  -0.596  0.00  0.00    +0.010 C 
ATOM      7  C   UNL     1      -5.644  -7.878  -1.119  0.00  0.00    -0.012 C 
ATOM      8  C   UNL     1      -7.066  -8.434  -1.038  0.00  0.00    -0.001 C 
ATOM      9  C   UNL     1      -8.017  -7.518  -1.813  0.00  0.00    -0.000 C 
ATOM     10  C   UNL     1      -7.982  -6.115  -1.202  0.00  0.00    -0.001 C 
ATOM     11  C   UNL     1      -6.559  -5.559  -1.283  0.00  0.00    -0.012 C 
ATOM     12  H   UNL     1      -5.372  -7.106   1.415  0.00  0.00    -0.085 HD
ATOM     13  H   UNL     1      -6.945  -6.957   0.954  0.00  0.00    -0.085 HD
ENDROOT
BRANCH   1  16
ATOM     14  C   UNL     1      -2.550  -2.680   0.012  0.00  0.00    +0.230 C 
ATOM     15  O   UNL     1      -3.482  -1.905   0.025  0.00  0.00    -0.274 OA
ATOM     16  N   UNL     1      -2.778  -4.008   0.007  0.00  0.00    -0.311 N 
ATOM     17  H   UNL     1      -2.032  -4.629  -0.003  0.00  0.00    +0.149 HD
BRANCH  14  18
ATOM     18  C   UNL     1      -1.136  -2.159   0.001  0.00  0.00    +0.200 C 
BRANCH  18  22
ATOM     19  C   UNL     1      -0.018   1.503   0.010  0.00  0.00    +0.109 C 
ATOM     20  C   UNL     1       0.002  -0.004   0.002  0.00  0.00    +0.210 C 
ATOM     21  O   UNL     1       1.060  -0.596  -0.011  0.00  0.00    -0.276 OA
ATOM     22  N   UNL     1      -1.156  -0.694   0.009  0.00  0.00    -0.307 N 
ATOM     23  H   UNL     1      -2.002  -0.220   0.020  0.00  0.00    +0.149 HD
ENDBRANCH  18  22
ENDBRANCH  14  18
ENDBRANCH   1  16
TORSDOF 3
