REMARK  Name = ZINC36206490
REMARK  13 active torsions:
REMARK  status: ('A' for Active; 'I' for Inactive)
REMARK    1  A    between atoms: C_1  and  C_2
REMARK    2  A    between atoms: C_2  and  C_3
REMARK    3  A    between atoms: C_3  and  C_5
REMARK    4  A    between atoms: C_3  and  O_35
REMARK    5  A    between atoms: C_5  and  N_6
REMARK    6  A    between atoms: N_6  and  C_7
REMARK    7  A    between atoms: N_6  and  C_15
REMARK    8  A    between atoms: C_7  and  C_8
REMARK    9  A    between atoms: C_8  and  N_9
REMARK   10  A    between atoms: C_15  and  C_16
REMARK   11  A    between atoms: C_22  and  C_27
REMARK   12  A    between atoms: C_29  and  C_34
REMARK   13  A    between atoms: C_32  and  C_33
REMARK                            x       y       z     vdW  Elec       q    Type
REMARK                         _______ _______ _______ _____ _____    ______ ____
ROOT
ATOM      1  C   UNL     1      -2.591  -4.272   1.717  0.00  0.00    +0.094 A 
ATOM      2  N   UNL     1      -2.546  -5.569   2.113  0.00  0.00    -0.312 N 
ATOM      3  H   UNL     1      -2.676  -6.272   1.457  0.00  0.00    +0.170 HD
ATOM      4  C   UNL     1      -2.324  -5.901   3.399  0.00  0.00    +0.260 A 
ATOM      5  O   UNL     1      -2.285  -7.071   3.739  0.00  0.00    -0.267 OA
ATOM      6  C   UNL     1      -2.132  -4.858   4.361  0.00  0.00    +0.080 A 
ATOM      7  C   UNL     1      -1.879  -4.959   5.793  0.00  0.00    +0.004 A 
ATOM      8  C   UNL     1      -1.729  -3.819   6.510  0.00  0.00    +0.056 A 
ATOM      9  S   UNL     1      -1.921  -2.535   5.289  0.00  0.00    -0.076 S 
ATOM     10  C   UNL     1      -2.196  -3.548   3.858  0.00  0.00    +0.116 A 
ATOM     11  N   UNL     1      -2.414  -3.299   2.570  0.00  0.00    -0.229 NA
ENDROOT
BRANCH   7  12
ATOM     12  C   UNL     1      -1.788  -6.283   6.452  0.00  0.00    -0.013 A 
ATOM     13  C   UNL     1      -2.740  -6.661   7.399  0.00  0.00    +0.012 A 
ATOM     14  C   UNL     1      -2.650  -7.895   8.009  0.00  0.00    -0.050 A 
ATOM     15  C   UNL     1      -1.618  -8.758   7.683  0.00  0.00    +0.003 A 
ATOM     16  C   UNL     1      -0.671  -8.388   6.745  0.00  0.00    +0.004 A 
ATOM     17  C   UNL     1      -0.754  -7.158   6.124  0.00  0.00    -0.043 A 
ATOM     18  C   UNL     1       0.275  -6.760   5.098  0.00  0.00    +0.044 C 
ATOM     19  C   UNL     1      -3.678  -8.305   9.032  0.00  0.00    +0.044 C 
ENDBRANCH   7  12
BRANCH   1  20
ATOM     20  C   UNL     1      -2.842  -3.949   0.266  0.00  0.00    -0.003 C 
BRANCH  20  21
ATOM     21  N   UNL     1      -2.839  -2.492   0.082  0.00  0.00    +0.387 N 
ATOM     22  H   UNL     1      -3.500  -2.071   0.717  0.00  0.00    -0.081 HD
BRANCH  21  23
ATOM     23  C   UNL     1      -1.495  -1.966   0.354  0.00  0.00    -0.047 C 
BRANCH  23  24
ATOM     24  C   UNL     1      -0.522  -2.477  -0.709  0.00  0.00    +0.098 C 
BRANCH  24  26
ATOM     25  C   UNL     1       1.763  -2.195  -1.681  0.00  0.00    +0.006 C 
ATOM     26  C   UNL     1       0.829  -1.778  -0.544  0.00  0.00    +0.026 C 
ENDBRANCH  24  26
BRANCH  24  27
ATOM     27  O   UNL     1      -0.349  -3.888  -0.558  0.00  0.00    -0.394 OA
ATOM     28  H   UNL     1      -0.065  -4.157   0.326  0.00  0.00    +0.210 HD
ENDBRANCH  24  27
ENDBRANCH  23  24
ENDBRANCH  21  23
BRANCH  21  29
ATOM     29  C   UNL     1      -3.218  -2.173  -1.301  0.00  0.00    -0.063 C 
BRANCH  29  30
ATOM     30  C   UNL     1      -3.310  -0.655  -1.468  0.00  0.00    +0.066 C 
BRANCH  30  31
ATOM     31  N   UNL     1      -3.813  -0.339  -2.811  0.00  0.00    -0.300 NA
ATOM     32  C   UNL     1      -2.846  -0.740  -3.844  0.00  0.00    +0.112 C 
ATOM     33  C   UNL     1      -3.434  -0.448  -5.227  0.00  0.00    +0.175 C 
ATOM     34  O   UNL     1      -3.774   0.939  -5.312  0.00  0.00    -0.377 OA
ATOM     35  C   UNL     1      -4.715   1.363  -4.322  0.00  0.00    +0.175 C 
ATOM     36  C   UNL     1      -4.140   1.090  -2.930  0.00  0.00    +0.112 C 
ENDBRANCH  30  31
ENDBRANCH  29  30
ENDBRANCH  21  29
ENDBRANCH  20  21
ENDBRANCH   1  20
TORSDOF 10
