REMARK  Name = ZINC63795889
REMARK  6 active torsions:
REMARK  status: ('A' for Active; 'I' for Inactive)
REMARK    1  A    between atoms: C_1  and  C_2
REMARK    2  A    between atoms: C_2  and  C_3
REMARK    3  A    between atoms: C_2  and  C_4
REMARK    4  A    between atoms: C_10  and  N_15
REMARK    5  A    between atoms: C_16  and  C_18
REMARK    6  A    between atoms: C_18  and  C_19
REMARK                            x       y       z     vdW  Elec       q    Type
REMARK                         _______ _______ _______ _____ _____    ______ ____
ROOT
ATOM      1  N   UNL     1      -1.210  -4.043  -4.311  0.00  0.00    -0.285 N 
ATOM      2  C   UNL     1      -0.598  -3.541  -5.401  0.00  0.00    +0.221 C 
ATOM      3  O   UNL     1      -0.534  -2.341  -5.563  0.00  0.00    -0.275 OA
ATOM      4  H   UNL     1      -1.198  -4.998  -4.144  0.00  0.00    +0.155 HD
ENDROOT
BRANCH   1   9
ATOM      5  C   UNL     1      -1.403  -0.308  -0.179  0.00  0.00    +0.176 C 
ATOM      6  N   UNL     1      -1.275  -1.778  -0.113  0.00  0.00    -0.283 NA
ATOM      7  C   UNL     1      -2.178  -2.278  -1.155  0.00  0.00    +0.129 C 
ATOM      8  C   UNL     1      -1.492  -3.196  -2.131  0.00  0.00    +0.021 C 
ATOM      9  C   UNL     1      -1.866  -3.185  -3.419  0.00  0.00    +0.031 C 
ATOM     10  C   UNL     1      -2.928  -2.318  -3.938  0.00  0.00    +0.025 C 
ATOM     11  C   UNL     1      -3.314  -1.217  -3.229  0.00  0.00    +0.026 C 
ATOM     12  C   UNL     1      -2.630  -1.053  -1.932  0.00  0.00    +0.059 C 
ATOM     13  N   UNL     1      -2.226   0.014  -1.348  0.00  0.00    -0.267 NA
ATOM     14  H   UNL     1      -0.325  -2.067  -0.289  0.00  0.00    +0.125 HD
BRANCH   5  16
ATOM     15  C   UNL     1      -0.161   1.849  -0.401  0.00  0.00    +0.011 C 
ATOM     16  C   UNL     1      -0.019   0.327  -0.328  0.00  0.00    +0.022 C 
ATOM     17  C   UNL     1       0.846  -0.047   0.877  0.00  0.00    +0.011 C 
ENDBRANCH   5  16
ENDBRANCH   1   9
BRANCH   2  18
ATOM     18  C   UNL     1       0.009  -4.472  -6.420  0.00  0.00    +0.129 C 
BRANCH  18  19
ATOM     19  C   UNL     1       0.627  -3.665  -7.532  0.00  0.00    -0.033 C 
ATOM     20  C   UNL     1       1.922  -3.291  -7.643  0.00  0.00    -0.001 A 
ATOM     21  C   UNL     1       3.098  -3.514  -6.793  0.00  0.00    +0.010 A 
ATOM     22  C   UNL     1       4.290  -3.003  -7.175  0.00  0.00    +0.001 A 
ATOM     23  C   UNL     1       4.431  -2.267  -8.359  0.00  0.00    +0.002 A 
ATOM     24  C   UNL     1       3.398  -2.020  -9.192  0.00  0.00    +0.026 A 
ATOM     25  C   UNL     1       2.098  -2.511  -8.889  0.00  0.00    +0.043 A 
ATOM     26  N   UNL     1       0.956  -2.407  -9.524  0.00  0.00    -0.380 N 
ATOM     27  C   UNL     1      -0.074  -3.115  -8.755  0.00  0.00    +0.145 C 
ATOM     28  H   UNL     1       0.815  -1.942 -10.364  0.00  0.00    +0.160 HD
ENDBRANCH  18  19
ENDBRANCH   2  18
TORSDOF 4
