REMARK  Name = ZINC54937989
REMARK  4 active torsions:
REMARK  status: ('A' for Active; 'I' for Inactive)
REMARK    1  A    between atoms: C_4  and  C_7
REMARK    2  A    between atoms: N_10  and  C_12
REMARK    3  A    between atoms: C_15  and  N_19
REMARK    4  A    between atoms: C_17  and  N_18
REMARK                            x       y       z     vdW  Elec       q    Type
REMARK                         _______ _______ _______ _____ _____    ______ ____
ROOT
ATOM      1  C   UNL     1       5.816  -3.547  -0.103  0.00  0.00    +0.086 A 
ATOM      2  C   UNL     1       5.282  -4.561  -0.884  0.00  0.00    +0.032 A 
ATOM      3  C   UNL     1       5.860  -5.816  -0.877  0.00  0.00    +0.035 A 
ATOM      4  C   UNL     1       6.971  -6.067  -0.091  0.00  0.00    +0.128 A 
ATOM      5  C   UNL     1       7.510  -5.063   0.691  0.00  0.00    +0.057 A 
ATOM      6  C   UNL     1       6.939  -3.797   0.685  0.00  0.00    +0.052 A 
ENDROOT
BRANCH   1  10
ATOM      7  C   UNL     1       3.760  -0.650  -0.039  0.00  0.00    +0.020 A 
ATOM      8  C   UNL     1       5.039  -0.085  -0.207  0.00  0.00    +0.143 A 
ATOM      9  N   UNL     1       5.912  -1.057  -0.248  0.00  0.00    -0.174 NA
ATOM     10  N   UNL     1       5.231  -2.273  -0.108  0.00  0.00    -0.237 N 
ATOM     11  C   UNL     1       3.913  -2.005   0.024  0.00  0.00    +0.123 A 
BRANCH   7  15
ATOM     12  C   UNL     1       0.088   1.477   0.241  0.00  0.00    +0.000 A 
ATOM     13  C   UNL     1       1.274   2.169   0.070  0.00  0.00    +0.001 A 
ATOM     14  C   UNL     1       2.468   1.483  -0.021  0.00  0.00    +0.008 A 
ATOM     15  C   UNL     1       2.478   0.092   0.059  0.00  0.00    -0.015 A 
ATOM     16  C   UNL     1       1.281  -0.599   0.232  0.00  0.00    +0.008 A 
ATOM     17  C   UNL     1       0.092   0.097   0.322  0.00  0.00    +0.001 A 
ENDBRANCH   7  15
ENDBRANCH   1  10
BRANCH   6  18
ATOM     18  N   UNL     1       7.486  -2.779   1.470  0.00  0.00    -0.356 N 
ATOM     19  H   UNL     1       7.032  -1.924   1.541  0.00  0.00    +0.142 HD
ATOM     20  H   UNL     1       8.319  -2.926   1.945  0.00  0.00    +0.142 HD
ENDBRANCH   6  18
BRANCH   4  21
ATOM     21  N   UNL     1       7.584  -7.414  -0.088  0.00  0.00    +0.056 N 
ATOM     22  O   UNL     1       7.114  -8.294  -0.771  0.00  0.00    -0.126 OA
ATOM     23  O   UNL     1       8.555  -7.634   0.598  0.00  0.00    -0.126 OA
ENDBRANCH   4  21
TORSDOF 4
