REMARK  Name = ZINC54899410
REMARK  6 active torsions:
REMARK  status: ('A' for Active; 'I' for Inactive)
REMARK    1  A    between atoms: C_1  and  C_2
REMARK    2  A    between atoms: C_2  and  C_22
REMARK    3  A    between atoms: N_9  and  C_10
REMARK    4  A    between atoms: N_9  and  C_11
REMARK    5  A    between atoms: C_17  and  N_20
REMARK    6  A    between atoms: N_20  and  C_21
REMARK                            x       y       z     vdW  Elec       q    Type
REMARK                         _______ _______ _______ _____ _____    ______ ____
ROOT
ATOM      1  C   UNL     1       0.029   1.616   0.028  0.00  0.00    +0.011 C 
ATOM      2  C   UNL     1      -0.043   0.088   0.080  0.00  0.00    -0.031 C 
ATOM      3  C   UNL     1       0.584  -0.493  -1.188  0.00  0.00    +0.062 C 
ATOM      4  C   UNL     1       2.080  -0.210  -1.167  0.00  0.00    +0.053 A 
ATOM      5  C   UNL     1       2.705   0.113  -0.007  0.00  0.00    +0.000 A 
ATOM      6  S   UNL     1       4.385   0.336  -0.521  0.00  0.00    -0.059 S 
ATOM      7  C   UNL     1       4.159   0.003  -2.158  0.00  0.00    +0.161 A 
ATOM      8  N   UNL     1       2.872  -0.252  -2.237  0.00  0.00    -0.229 NA
ATOM      9  N   UNL     1       5.102  -0.002  -3.174  0.00  0.00    -0.310 N 
ATOM     10  C   UNL     1       6.502   0.313  -2.876  0.00  0.00    +0.131 C 
ATOM     11  C   UNL     1       2.100   0.238   1.350  0.00  0.00    -0.032 C 
ATOM     12  C   UNL     1       0.708  -0.413   1.317  0.00  0.00    -0.004 C 
ATOM     13  C   UNL     1      -1.507  -0.347   0.164  0.00  0.00    +0.011 C 
ENDROOT
BRANCH   9  14
ATOM     14  C   UNL     1       4.699  -0.322  -4.546  0.00  0.00    +0.075 C 
ATOM     15  C   UNL     1       5.466  -1.554  -5.029  0.00  0.00    +0.022 C 
ATOM     16  C   UNL     1       5.046  -1.888  -6.461  0.00  0.00    +0.002 C 
ATOM     17  C   UNL     1       5.360  -0.702  -7.375  0.00  0.00    +0.000 C 
ATOM     18  C   UNL     1       4.593   0.531  -6.892  0.00  0.00    +0.002 C 
ATOM     19  C   UNL     1       5.014   0.865  -5.459  0.00  0.00    +0.022 C 
ENDBRANCH   9  14
BRANCH  11  20
ATOM     20  N   UNL     1       2.946  -0.448   2.335  0.00  0.00    +0.382 N 
ATOM     21  C   UNL     1       2.419  -0.207   3.685  0.00  0.00    -0.100 C 
ATOM     22  H   UNL     1       2.945  -1.439   2.147  0.00  0.00    -0.085 HD
ATOM     23  H   UNL     1       3.889  -0.094   2.274  0.00  0.00    -0.085 HD
ENDBRANCH  11  20
TORSDOF 2
