REMARK  Name = ZINC64155577
REMARK  8 active torsions:
REMARK  status: ('A' for Active; 'I' for Inactive)
REMARK    1  A    between atoms: C_1  and  C_2
REMARK    2  A    between atoms: C_2  and  N_3
REMARK    3  A    between atoms: C_4  and  S_8
REMARK    4  A    between atoms: S_8  and  C_9
REMARK    5  A    between atoms: C_9  and  C_11
REMARK    6  A    between atoms: C_9  and  C_12
REMARK    7  A    between atoms: C_12  and  C_14
REMARK    8  A    between atoms: C_22  and  C_24
REMARK                            x       y       z     vdW  Elec       q    Type
REMARK                         _______ _______ _______ _____ _____    ______ ____
ROOT
ATOM      1  C   UNL     1      -2.820  -0.894  -5.207  0.00  0.00    +0.175 C 
ATOM      2  O   UNL     1      -1.681  -0.967  -5.625  0.00  0.00    -0.291 OA
ENDROOT
BRANCH   1   3
ATOM      3  C   UNL     1      -3.899  -0.819  -6.113  0.00  0.00    +0.027 C 
ATOM      4  C   UNL     1      -5.249  -0.843  -5.810  0.00  0.00    +0.006 A 
ATOM      5  C   UNL     1      -5.959  -0.942  -4.590  0.00  0.00    +0.010 A 
ATOM      6  C   UNL     1      -7.311  -0.941  -4.588  0.00  0.00    +0.001 A 
ATOM      7  C   UNL     1      -8.067  -0.844  -5.767  0.00  0.00    +0.002 A 
ATOM      8  C   UNL     1      -7.487  -0.745  -6.982  0.00  0.00    +0.026 A 
ATOM      9  C   UNL     1      -6.017  -0.738  -7.074  0.00  0.00    +0.043 A 
ATOM     10  N   UNL     1      -5.210  -0.655  -8.094  0.00  0.00    -0.377 N 
ATOM     11  C   UNL     1      -3.824  -0.690  -7.619  0.00  0.00    +0.111 C 
ATOM     12  C   UNL     1      -3.096  -1.896  -8.215  0.00  0.00    +0.035 C 
ATOM     13  H   UNL     1      -5.484  -0.579  -9.021  0.00  0.00    +0.160 HD
ENDBRANCH   1   3
BRANCH   1  14
ATOM     14  C   UNL     1      -3.079  -0.884  -3.723  0.00  0.00    +0.122 C 
ATOM     15  C   UNL     1      -3.384  -2.307  -3.249  0.00  0.00    +0.028 C 
BRANCH  14  16
ATOM     16  S   UNL     1      -1.613  -0.259  -2.857  0.00  0.00    -0.077 S 
BRANCH  16  18
ATOM     17  N   UNL     1      -1.329   0.259  -0.115  0.00  0.00    -0.227 N 
ATOM     18  C   UNL     1      -2.119  -0.169  -1.172  0.00  0.00    +0.190 C 
ATOM     19  N   UNL     1      -3.291  -0.492  -0.719  0.00  0.00    -0.147 NA
ATOM     20  N   UNL     1      -3.310  -0.285   0.666  0.00  0.00    -0.184 N 
ATOM     21  N   UNL     1      -2.075   0.178   1.028  0.00  0.00    -0.143 NA
ATOM     22  H   UNL     1      -4.060  -0.444   1.260  0.00  0.00    +0.191 HD
ATOM     23  H   UNL     1      -2.146   1.079   1.477  0.00  0.00    +0.169 HD
BRANCH  17  25
ATOM     24  C   UNL     1       0.093   2.223  -0.440  0.00  0.00    +0.026 C 
ATOM     25  C   UNL     1       0.062   0.711  -0.206  0.00  0.00    +0.124 C 
ENDBRANCH  17  25
ENDBRANCH  16  18
ENDBRANCH  14  16
ENDBRANCH   1  14
TORSDOF 5
