REMARK  Name = ZINC61749917
REMARK  9 active torsions:
REMARK  status: ('A' for Active; 'I' for Inactive)
REMARK    1  A    between atoms: C_1  and  C_2
REMARK    2  A    between atoms: C_5  and  C_8
REMARK    3  A    between atoms: C_8  and  C_9
REMARK    4  A    between atoms: C_8  and  N_25
REMARK    5  A    between atoms: C_9  and  N_10
REMARK    6  A    between atoms: N_13  and  C_14
REMARK    7  A    between atoms: C_18  and  C_21
REMARK    8  A    between atoms: C_19  and  C_20
REMARK    9  A    between atoms: N_23  and  C_24
REMARK                            x       y       z     vdW  Elec       q    Type
REMARK                         _______ _______ _______ _____ _____    ______ ____
ROOT
ATOM      1  N   UNL     1      -2.410  -6.007   0.666  0.00  0.00    -0.300 N 
ATOM      2  C   UNL     1      -3.302  -7.018   0.662  0.00  0.00    +0.304 C 
ATOM      3  O   UNL     1      -4.488  -6.782   0.793  0.00  0.00    -0.253 OA
ATOM      4  N   UNL     1      -2.880  -8.289   0.513  0.00  0.00    -0.269 N 
ATOM      5  H   UNL     1      -1.464  -6.195   0.562  0.00  0.00    +0.150 HD
ATOM      6  H   UNL     1      -1.945  -8.471   0.327  0.00  0.00    +0.156 HD
ENDROOT
BRANCH   4   7
ATOM      7  C   UNL     1      -3.789  -9.346   0.627  0.00  0.00    +0.038 A 
ATOM      8  C   UNL     1      -4.957  -9.182   1.362  0.00  0.00    +0.023 A 
ATOM      9  C   UNL     1      -5.859 -10.223   1.478  0.00  0.00    +0.003 A 
ATOM     10  C   UNL     1      -5.605 -11.433   0.864  0.00  0.00    +0.013 A 
ATOM     11  C   UNL     1      -4.436 -11.608   0.123  0.00  0.00    +0.041 A 
ATOM     12  C   UNL     1      -3.528 -10.556   0.002  0.00  0.00    -0.017 A 
ATOM     13  C   UNL     1      -2.265 -10.734  -0.800  0.00  0.00    +0.046 C 
BRANCH  11  14
ATOM     14  C   UNL     1      -4.161 -12.903  -0.536  0.00  0.00    +0.244 C 
ATOM     15  O   UNL     1      -3.092 -13.093  -1.081  0.00  0.00    -0.270 OA
ATOM     16  N   UNL     1      -5.098 -13.872  -0.533  0.00  0.00    -0.314 N 
ATOM     17  C   UNL     1      -4.826 -15.155  -1.186  0.00  0.00    +0.128 C 
ATOM     18  H   UNL     1      -5.951 -13.721  -0.098  0.00  0.00    +0.149 HD
ENDBRANCH  11  14
ENDBRANCH   4   7
BRANCH   1  19
ATOM     19  C   UNL     1      -2.869  -4.625   0.828  0.00  0.00    +0.095 C 
BRANCH  19  20
ATOM     20  C   UNL     1      -1.683  -3.672   0.671  0.00  0.00    -0.020 C 
BRANCH  20  25
ATOM     21  C   UNL     1       0.493  -4.171  -4.659  0.00  0.00    +0.044 C 
ATOM     22  C   UNL     1      -0.074  -4.041  -3.269  0.00  0.00    -0.050 A 
ATOM     23  C   UNL     1       0.539  -4.683  -2.209  0.00  0.00    +0.003 A 
ATOM     24  C   UNL     1       0.018  -4.563  -0.934  0.00  0.00    +0.002 A 
ATOM     25  C   UNL     1      -1.115  -3.802  -0.719  0.00  0.00    -0.059 A 
ATOM     26  C   UNL     1      -1.728  -3.159  -1.778  0.00  0.00    +0.002 A 
ATOM     27  C   UNL     1      -1.205  -3.275  -3.053  0.00  0.00    +0.003 A 
ENDBRANCH  20  25
BRANCH  20  28
ATOM     28  N   UNL     1      -2.132  -2.291   0.890  0.00  0.00    +0.385 N 
ATOM     29  C   UNL     1      -2.516  -2.096   2.311  0.00  0.00    -0.078 C 
ATOM     30  C   UNL     1      -2.408  -0.562   2.501  0.00  0.00    -0.020 C 
ATOM     31  C   UNL     1      -1.171  -0.195   1.650  0.00  0.00    -0.020 C 
ATOM     32  C   UNL     1      -1.021  -1.347   0.639  0.00  0.00    -0.078 C 
ATOM     33  H   UNL     1      -2.912  -2.079   0.285  0.00  0.00    -0.081 HD
ENDBRANCH  20  28
ENDBRANCH  19  20
ENDBRANCH   1  19
TORSDOF 6
