REMARK  Name = ZINC64672754
REMARK  6 active torsions:
REMARK  status: ('A' for Active; 'I' for Inactive)
REMARK    1  A    between atoms: C_7  and  C_10
REMARK    2  A    between atoms: N_12  and  N_13
REMARK    3  A    between atoms: N_13  and  C_14
REMARK    4  A    between atoms: C_14  and  N_16
REMARK    5  A    between atoms: N_16  and  C_17
REMARK    6  A    between atoms: C_17  and  C_18
REMARK                            x       y       z     vdW  Elec       q    Type
REMARK                         _______ _______ _______ _____ _____    ______ ____
ROOT
ATOM      1  N   UNL     1       0.203  -5.517  -0.030  0.00  0.00    -0.246 N 
ATOM      2  H   UNL     1      -0.753  -5.357  -0.021  0.00  0.00    +0.172 HD
ENDROOT
BRANCH   1   5
ATOM      3  C   UNL     1       0.622  -3.174  -0.021  0.00  0.00    +0.258 C 
ATOM      4  O   UNL     1      -0.578  -2.973  -0.009  0.00  0.00    -0.269 OA
ATOM      5  N   UNL     1       1.094  -4.436  -0.033  0.00  0.00    -0.231 N 
ATOM      6  H   UNL     1       2.051  -4.596  -0.042  0.00  0.00    +0.173 HD
BRANCH   3  13
ATOM      7  C   UNL     1      -0.016   1.346   0.009  0.00  0.00    +0.001 A 
ATOM      8  C   UNL     1       1.158   2.116   0.002  0.00  0.00    +0.002 A 
ATOM      9  C   UNL     1       2.384   1.551  -0.012  0.00  0.00    +0.026 A 
ATOM     10  C   UNL     1       2.495   0.083  -0.021  0.00  0.00    +0.043 A 
ATOM     11  N   UNL     1       3.529  -0.711  -0.035  0.00  0.00    -0.380 N 
ATOM     12  C   UNL     1       3.066  -2.103  -0.039  0.00  0.00    +0.154 C 
ATOM     13  C   UNL     1       1.555  -2.042  -0.024  0.00  0.00    +0.044 C 
ATOM     14  C   UNL     1       1.237  -0.701  -0.014  0.00  0.00    +0.008 A 
ATOM     15  C   UNL     1       0.002  -0.004   0.002  0.00  0.00    +0.010 A 
ATOM     16  H   UNL     1       4.456  -0.427  -0.043  0.00  0.00    +0.160 HD
ENDBRANCH   3  13
ENDBRANCH   1   5
BRANCH   1  17
ATOM     17  C   UNL     1       0.676  -6.779  -0.042  0.00  0.00    +0.147 C 
ATOM     18  S   UNL     1      -0.413  -8.101  -0.039  0.00  0.00    -0.017 S 
BRANCH  17  19
ATOM     19  N   UNL     1       2.005  -7.002  -0.055  0.00  0.00    -0.321 N 
ATOM     20  H   UNL     1       2.622  -6.253  -0.057  0.00  0.00    +0.148 HD
BRANCH  19  21
ATOM     21  C   UNL     1       2.518  -8.374  -0.067  0.00  0.00    +0.138 C 
BRANCH  21  22
ATOM     22  C   UNL     1       4.025  -8.346  -0.081  0.00  0.00    -0.027 A 
ATOM     23  C   UNL     1       4.704  -8.321  -1.285  0.00  0.00    +0.009 A 
ATOM     24  C   UNL     1       6.085  -8.296  -1.303  0.00  0.00    +0.050 A 
ATOM     25  C   UNL     1       6.794  -8.295  -0.113  0.00  0.00    +0.166 A 
ATOM     26  C   UNL     1       6.111  -8.320   1.100  0.00  0.00    +0.167 A 
ATOM     27  C   UNL     1       4.726  -8.340   1.111  0.00  0.00    +0.054 A 
ATOM     28  O   UNL     1       7.024  -8.314   2.115  0.00  0.00    -0.453 OA
ATOM     29  C   UNL     1       8.273  -8.698   1.511  0.00  0.00    +0.466 C 
ATOM     30  O   UNL     1       8.135  -8.273   0.142  0.00  0.00    -0.453 OA
ENDBRANCH  21  22
ENDBRANCH  19  21
ENDBRANCH  17  19
ENDBRANCH   1  17
TORSDOF 6
