REMARK  Name = ZINC13186888
REMARK  9 active torsions:
REMARK  status: ('A' for Active; 'I' for Inactive)
REMARK    1  A    between atoms: C_1  and  C_2
REMARK    2  A    between atoms: C_2  and  C_17
REMARK    3  A    between atoms: N_3  and  N_4
REMARK    4  A    between atoms: C_5  and  C_7
REMARK    5  A    between atoms: N_9  and  C_16
REMARK    6  A    between atoms: C_20  and  S_23
REMARK    7  A    between atoms: S_23  and  N_26
REMARK    8  A    between atoms: N_26  and  C_27
REMARK    9  A    between atoms: C_30  and  C_33
REMARK                            x       y       z     vdW  Elec       q    Type
REMARK                         _______ _______ _______ _____ _____    ______ ____
ROOT
ATOM      1  C   UNL     1       3.080  -0.438  -2.723  0.00  0.00    -0.002 A 
ATOM      2  C   UNL     1       2.431   0.654  -2.142  0.00  0.00    +0.011 A 
ATOM      3  C   UNL     1       1.252   0.464  -1.451  0.00  0.00    +0.029 A 
ATOM      4  C   UNL     1       0.712  -0.804  -1.333  0.00  0.00    +0.109 A 
ATOM      5  C   UNL     1       1.349  -1.891  -1.907  0.00  0.00    +0.029 A 
ATOM      6  C   UNL     1       2.529  -1.716  -2.600  0.00  0.00    +0.011 A 
ENDROOT
BRANCH   1   8
ATOM      7  C   UNL     1       4.932   1.137  -3.593  0.00  0.00    +0.068 C 
ATOM      8  C   UNL     1       4.341  -0.243  -3.463  0.00  0.00    +0.063 C 
ATOM      9  N   UNL     1       4.941  -1.260  -4.001  0.00  0.00    -0.184 NA
BRANCH   9  10
ATOM     10  N   UNL     1       6.139  -1.075  -4.703  0.00  0.00    -0.203 N 
ATOM     11  C   UNL     1       6.763  -2.131  -5.262  0.00  0.00    +0.265 C 
ATOM     12  O   UNL     1       6.285  -3.245  -5.157  0.00  0.00    -0.268 OA
ATOM     13  H   UNL     1       6.520  -0.186  -4.787  0.00  0.00    +0.178 HD
BRANCH  11  14
ATOM     14  C   UNL     1       8.019  -1.936  -5.999  0.00  0.00    +0.064 A 
ATOM     15  C   UNL     1       8.673  -0.756  -6.201  0.00  0.00    +0.099 A 
ATOM     16  N   UNL     1       9.797  -0.974  -6.926  0.00  0.00    -0.349 N 
ATOM     17  C   UNL     1       9.923  -2.314  -7.228  0.00  0.00    +0.050 A 
ATOM     18  C   UNL     1       8.824  -2.979  -6.660  0.00  0.00    +0.012 A 
ATOM     19  C   UNL     1       8.686  -4.356  -6.814  0.00  0.00    +0.011 A 
ATOM     20  C   UNL     1       9.638  -5.063  -7.516  0.00  0.00    +0.001 A 
ATOM     21  C   UNL     1      10.726  -4.408  -8.073  0.00  0.00    +0.002 A 
ATOM     22  C   UNL     1      10.873  -3.045  -7.933  0.00  0.00    +0.026 A 
ATOM     23  C   UNL     1      10.744   0.068  -7.331  0.00  0.00    +0.149 C 
ENDBRANCH  11  14
ENDBRANCH   9  10
ENDBRANCH   1   8
BRANCH   4  24
ATOM     24  S   UNL     1      -0.793  -1.038  -0.449  0.00  0.00    +0.072 S 
ATOM     25  O   UNL     1      -0.748  -2.351   0.091  0.00  0.00    -0.150 OA
ATOM     26  O   UNL     1      -0.969   0.114   0.365  0.00  0.00    -0.150 OA
BRANCH  24  27
ATOM     27  N   UNL     1      -2.021  -1.024  -1.559  0.00  0.00    -0.216 N 
ATOM     28  H   UNL     1      -2.562  -1.818  -1.694  0.00  0.00    +0.174 HD
BRANCH  27  29
ATOM     29  C   UNL     1      -2.277   0.125  -2.299  0.00  0.00    +0.048 A 
ATOM     30  C   UNL     1      -2.919   1.207  -1.702  0.00  0.00    +0.025 A 
ATOM     31  C   UNL     1      -3.169   2.344  -2.426  0.00  0.00    +0.017 A 
ATOM     32  C   UNL     1      -2.787   2.412  -3.770  0.00  0.00    +0.063 A 
ATOM     33  C   UNL     1      -2.147   1.322  -4.368  0.00  0.00    +0.017 A 
ATOM     34  C   UNL     1      -1.896   0.190  -3.636  0.00  0.00    +0.025 A 
BRANCH  32  35
ATOM     35  C   UNL     1      -3.058   3.630  -4.554  0.00  0.00    +0.387 C 
ATOM     36  O   UNL     1      -2.725   3.688  -5.721  0.00  0.00    -0.241 OA
ATOM     37  O   UNL     1      -3.675   4.680  -3.976  0.00  0.00    -0.241 OA
ENDBRANCH  32  35
ENDBRANCH  27  29
ENDBRANCH  24  27
ENDBRANCH   4  24
TORSDOF 7
