REMARK  Name = ZINC41344594
REMARK  8 active torsions:
REMARK  status: ('A' for Active; 'I' for Inactive)
REMARK    1  A    between atoms: C_1  and  C_2
REMARK    2  A    between atoms: C_5  and  C_19
REMARK    3  A    between atoms: C_6  and  C_8
REMARK    4  A    between atoms: C_9  and  C_15
REMARK    5  A    between atoms: N_11  and  C_14
REMARK    6  A    between atoms: C_12  and  N_13
REMARK    7  A    between atoms: C_15  and  O_17
REMARK    8  A    between atoms: O_17  and  C_18
REMARK                            x       y       z     vdW  Elec       q    Type
REMARK                         _______ _______ _______ _____ _____    ______ ____
ROOT
ATOM      1  C   UNL     1       0.051  -2.846   2.461  0.00  0.00    +0.056 A 
ATOM      2  C   UNL     1       1.234  -3.270   3.213  0.00  0.00    +0.179 A 
ATOM      3  N   UNL     1       0.806  -3.908   4.285  0.00  0.00    -0.163 NA
ATOM      4  N   UNL     1      -0.592  -3.928   4.279  0.00  0.00    -0.253 N 
ATOM      5  C   UNL     1      -1.048  -3.279   3.178  0.00  0.00    +0.123 A 
ATOM      6  C   UNL     1      -1.434  -4.546   5.306  0.00  0.00    +0.174 C 
ENDROOT
BRANCH   1  12
ATOM      7  C   UNL     1      -0.018   1.503   0.010  0.00  0.00    +0.044 C 
ATOM      8  C   UNL     1       0.002  -0.004   0.002  0.00  0.00    -0.050 A 
ATOM      9  C   UNL     1       0.006  -0.688  -1.201  0.00  0.00    +0.003 A 
ATOM     10  C   UNL     1       0.024  -2.071  -1.217  0.00  0.00    +0.004 A 
ATOM     11  C   UNL     1       0.039  -2.777  -0.031  0.00  0.00    -0.043 A 
ATOM     12  C   UNL     1       0.036  -2.094   1.184  0.00  0.00    -0.009 A 
ATOM     13  C   UNL     1       0.023  -0.699   1.194  0.00  0.00    +0.012 A 
ATOM     14  C   UNL     1       0.058  -4.284  -0.050  0.00  0.00    +0.044 C 
ENDBRANCH   1  12
BRANCH   5  15
ATOM     15  N   UNL     1      -2.379  -3.089   2.832  0.00  0.00    -0.343 N 
ATOM     16  H   UNL     1      -2.605  -2.612   2.018  0.00  0.00    +0.144 HD
ATOM     17  H   UNL     1      -3.082  -3.433   3.404  0.00  0.00    +0.144 HD
ENDBRANCH   5  15
BRANCH   2  18
ATOM     18  C   UNL     1       2.640  -3.029   2.842  0.00  0.00    +0.360 C 
ATOM     19  O   UNL     1       2.904  -2.424   1.822  0.00  0.00    -0.243 OA
BRANCH  18  20
ATOM     20  O   UNL     1       3.632  -3.480   3.634  0.00  0.00    -0.463 OA
ATOM     21  C   UNL     1       4.971  -3.210   3.213  0.00  0.00    +0.280 C 
ENDBRANCH  18  20
ENDBRANCH   2  18
TORSDOF 4
