REMARK  Name = ZINC20337688
REMARK  6 active torsions:
REMARK  status: ('A' for Active; 'I' for Inactive)
REMARK    1  A    between atoms: N_7  and  C_19
REMARK    2  A    between atoms: C_11  and  C_12
REMARK    3  A    between atoms: C_19  and  C_20
REMARK    4  A    between atoms: C_20  and  C_21
REMARK    5  A    between atoms: C_21  and  C_22
REMARK    6  A    between atoms: C_22  and  N_23
REMARK                            x       y       z     vdW  Elec       q    Type
REMARK                         _______ _______ _______ _____ _____    ______ ____
ROOT
ATOM      1  C   UNL     1       7.917   1.939  -1.901  0.00  0.00    +0.002 A 
ATOM      2  C   UNL     1       7.943   3.296  -1.631  0.00  0.00    +0.004 A 
ATOM      3  C   UNL     1       6.904   3.886  -0.935  0.00  0.00    +0.048 A 
ATOM      4  C   UNL     1       5.834   3.117  -0.506  0.00  0.00    +0.150 A 
ATOM      5  C   UNL     1       5.806   1.750  -0.778  0.00  0.00    +0.079 A 
ATOM      6  C   UNL     1       6.853   1.166  -1.477  0.00  0.00    +0.027 A 
ATOM      7  N   UNL     1       4.726   0.969  -0.351  0.00  0.00    -0.262 N 
ATOM      8  C   UNL     1       3.601   1.589   0.087  0.00  0.00    +0.286 C 
ATOM      9  O   UNL     1       2.633   0.956   0.463  0.00  0.00    -0.266 OA
ATOM     10  C   UNL     1       3.598   3.070   0.085  0.00  0.00    +0.192 C 
ATOM     11  C   UNL     1       2.447   3.772  -0.002  0.00  0.00    +0.079 C 
ATOM     12  O   UNL     1       4.810   3.694   0.181  0.00  0.00    -0.449 OA
ENDROOT
BRANCH  11  13
ATOM     13  C   UNL     1       1.174   3.073  -0.243  0.00  0.00    +0.067 A 
ATOM     14  C   UNL     1       0.054   3.383   0.534  0.00  0.00    +0.028 A 
ATOM     15  C   UNL     1      -1.134   2.717   0.294  0.00  0.00    +0.004 A 
ATOM     16  C   UNL     1      -1.169   1.766  -0.717  0.00  0.00    +0.020 A 
ATOM     17  C   UNL     1      -0.022   1.505  -1.445  0.00  0.00    +0.111 A 
ATOM     18  N   UNL     1       1.098   2.151  -1.199  0.00  0.00    -0.255 NA
ENDBRANCH  11  13
BRANCH   7  19
ATOM     19  C   UNL     1       4.811  -0.494  -0.369  0.00  0.00    +0.114 C 
BRANCH  19  20
ATOM     20  C   UNL     1       5.363  -0.990   0.968  0.00  0.00    +0.018 C 
BRANCH  20  21
ATOM     21  C   UNL     1       5.451  -2.518   0.949  0.00  0.00    -0.018 C 
BRANCH  21  22
ATOM     22  C   UNL     1       6.003  -3.014   2.287  0.00  0.00    -0.086 C 
BRANCH  22  23
ATOM     23  N   UNL     1       6.088  -4.480   2.268  0.00  0.00    +0.378 N 
ATOM     24  H   UNL     1       6.485  -4.837   3.229  0.00  0.00    -0.090 HD
ATOM     25  H   UNL     1       6.756  -4.798   1.454  0.00  0.00    -0.090 HD
ATOM     26  H   UNL     1       5.085  -4.903   2.105  0.00  0.00    -0.090 HD
ENDBRANCH  22  23
ENDBRANCH  21  22
ENDBRANCH  20  21
ENDBRANCH  19  20
ENDBRANCH   7  19
TORSDOF 6
