REMARK  Name = ZINC28227741
REMARK  4 active torsions:
REMARK  status: ('A' for Active; 'I' for Inactive)
REMARK    1  A    between atoms: C_1  and  C_2
REMARK    2  A    between atoms: C_5  and  C_18
REMARK    3  A    between atoms: C_6  and  N_8
REMARK    4  A    between atoms: C_15  and  C_17
REMARK                            x       y       z     vdW  Elec       q    Type
REMARK                         _______ _______ _______ _____ _____    ______ ____
ROOT
ATOM      1  N   UNL     1       0.351   5.500   0.030  0.00  0.00    -0.269 N 
ATOM      2  C   UNL     1       0.287   4.282   0.604  0.00  0.00    +0.310 C 
ATOM      3  O   UNL     1      -0.739   3.918   1.146  0.00  0.00    -0.252 OA
ATOM      4  N   UNL     1       1.361   3.468   0.577  0.00  0.00    -0.247 N 
ATOM      5  C   UNL     1       1.295   2.211   1.169  0.00  0.00    +0.189 A 
ATOM      6  N   UNL     1       0.291   1.629   1.802  0.00  0.00    -0.126 NA
ATOM      7  N   UNL     1       0.392   0.469   2.289  0.00  0.00    -0.145 NA
ATOM      8  C   UNL     1       1.518  -0.208   2.183  0.00  0.00    +0.101 A 
ATOM      9  S   UNL     1       2.513   0.974   1.282  0.00  0.00    -0.036 S 
ATOM     10  C   UNL     1       1.867  -1.588   2.679  0.00  0.00    +0.075 C 
ATOM     11  H   UNL     1       1.304   5.866  -0.378  0.00  0.00    +0.156 HD
ATOM     12  H   UNL     1       2.289   3.797   0.087  0.00  0.00    +0.158 HD
ENDROOT
BRANCH   1  18
ATOM     13  C   UNL     1      -4.551   5.865  -0.086  0.00  0.00    +0.044 C 
ATOM     14  C   UNL     1      -3.185   6.501  -0.104  0.00  0.00    -0.049 A 
ATOM     15  C   UNL     1      -3.064   7.876  -0.196  0.00  0.00    +0.004 A 
ATOM     16  C   UNL     1      -1.812   8.463  -0.214  0.00  0.00    +0.005 A 
ATOM     17  C   UNL     1      -0.678   7.679  -0.134  0.00  0.00    -0.029 A 
ATOM     18  C   UNL     1      -0.796   6.298  -0.046  0.00  0.00    +0.038 A 
ATOM     19  C   UNL     1      -2.055   5.711  -0.029  0.00  0.00    +0.027 A 
ATOM     20  C   UNL     1       0.685   8.320  -0.147  0.00  0.00    +0.045 C 
ENDBRANCH   1  18
TORSDOF 1
