REMARK  Name = ZINC62794825
REMARK  3 active torsions:
REMARK  status: ('A' for Active; 'I' for Inactive)
REMARK    1  A    between atoms: C_3  and  S_11
REMARK    2  A    between atoms: C_6  and  C_7
REMARK    3  A    between atoms: S_11  and  C_12
REMARK                            x       y       z     vdW  Elec       q    Type
REMARK                         _______ _______ _______ _____ _____    ______ ____
ROOT
ATOM      1  C   UNL     1       0.629   0.024  -0.492  0.00  0.00    +0.012 A 
ATOM      2  C   UNL     1       1.798   0.710  -0.732  0.00  0.00    +0.017 A 
ATOM      3  C   UNL     1       2.396   1.447   0.286  0.00  0.00    +0.034 A 
ATOM      4  C   UNL     1       1.813   1.493   1.551  0.00  0.00    +0.055 A 
ATOM      5  C   UNL     1       0.643   0.809   1.796  0.00  0.00    +0.032 A 
ATOM      6  C   UNL     1       0.042   0.068   0.775  0.00  0.00    +0.014 A 
ATOM      7 CL   UNL     1       2.562   2.413   2.819  0.00  0.00    -0.082 Cl
ENDROOT
BRANCH   6   8
ATOM      8  C   UNL     1      -1.213  -0.666   1.034  0.00  0.00    +0.094 C 
ATOM      9  N   UNL     1      -1.772  -0.623   2.243  0.00  0.00    -0.387 N 
ATOM     10  N   UNL     1      -1.786  -1.372   0.059  0.00  0.00    -0.345 N 
ATOM     11  H   UNL     1      -1.355  -0.110   2.953  0.00  0.00    +0.157 HD
ATOM     12  H   UNL     1      -1.379  -1.403  -0.821  0.00  0.00    +0.144 HD
ATOM     13  H   UNL     1      -2.610  -1.854   0.230  0.00  0.00    +0.144 HD
ATOM     14  H   UNL     1      -2.596  -1.105   2.414  0.00  0.00    +0.157 HD
ENDBRANCH   6   8
BRANCH   3  15
ATOM     15  S   UNL     1       3.894   2.322  -0.024  0.00  0.00    -0.048 S 
BRANCH  15  16
ATOM     16  C   UNL     1       3.384   4.003  -0.160  0.00  0.00    +0.196 A 
ATOM     17  N   UNL     1       2.149   4.452  -0.136  0.00  0.00    -0.122 NA
ATOM     18  N   UNL     1       2.146   5.734  -0.252  0.00  0.00    -0.134 NA
ATOM     19  C   UNL     1       3.367   6.172  -0.352  0.00  0.00    +0.134 A 
ATOM     20  N   UNL     1       4.194   5.088  -0.303  0.00  0.00    -0.306 N 
ATOM     21  C   UNL     1       5.654   5.101  -0.404  0.00  0.00    +0.125 C 
ATOM     22  C   UNL     1       6.185   6.438   0.120  0.00  0.00    +0.022 C 
ATOM     23  C   UNL     1       6.249   7.450  -1.022  0.00  0.00    +0.002 C 
ATOM     24  C   UNL     1       4.858   7.703  -1.596  0.00  0.00    +0.008 C 
ATOM     25  C   UNL     1       3.815   7.605  -0.485  0.00  0.00    +0.076 C 
ENDBRANCH  15  16
ENDBRANCH   3  15
TORSDOF 3
