REMARK  Name = ZINC26542167
REMARK  7 active torsions:
REMARK  status: ('A' for Active; 'I' for Inactive)
REMARK    1  A    between atoms: C_1  and  O_2
REMARK    2  A    between atoms: O_2  and  C_3
REMARK    3  A    between atoms: C_3  and  C_5
REMARK    4  A    between atoms: C_9  and  S_11
REMARK    5  A    between atoms: S_11  and  N_14
REMARK    6  A    between atoms: N_14  and  C_15
REMARK    7  A    between atoms: C_19  and  C_21
REMARK                            x       y       z     vdW  Elec       q    Type
REMARK                         _______ _______ _______ _____ _____    ______ ____
ROOT
ATOM      1  S   UNL     1      -0.153   1.424  -0.050  0.00  0.00    +0.093 S 
ATOM      2  O   UNL     1       0.036   0.016  -0.026  0.00  0.00    -0.148 OA
ATOM      3  O   UNL     1       0.935   2.338  -0.051  0.00  0.00    -0.148 OA
ENDROOT
BRANCH   1   8
ATOM      4  C   UNL     1      -1.464   3.051  -3.493  0.00  0.00    +0.061 A 
ATOM      5  C   UNL     1      -2.629   2.322  -3.745  0.00  0.00    +0.016 A 
ATOM      6  C   UNL     1      -3.022   1.332  -2.870  0.00  0.00    +0.023 A 
ATOM      7  C   UNL     1      -2.262   1.056  -1.746  0.00  0.00    +0.068 A 
ATOM      8  C   UNL     1      -1.109   1.778  -1.487  0.00  0.00    +0.129 A 
ATOM      9  C   UNL     1      -0.705   2.771  -2.355  0.00  0.00    +0.045 A 
ATOM     10 CL   UNL     1      -2.760  -0.197  -0.652  0.00  0.00    -0.082 Cl
BRANCH   4  11
ATOM     11  C   UNL     1      -1.037   4.112  -4.426  0.00  0.00    +0.339 C 
ATOM     12  O   UNL     1      -0.024   4.744  -4.205  0.00  0.00    -0.245 OA
BRANCH  11  14
ATOM     13  C   UNL     1      -1.291   5.436  -6.397  0.00  0.00    +0.280 C 
ATOM     14  O   UNL     1      -1.771   4.380  -5.524  0.00  0.00    -0.464 OA
ENDBRANCH  11  14
ENDBRANCH   4  11
ENDBRANCH   1   8
BRANCH   1  15
ATOM     15  N   UNL     1      -1.087   1.799   1.265  0.00  0.00    -0.098 NA
BRANCH  15  16
ATOM     16  C   UNL     1      -1.525   3.112   1.458  0.00  0.00    +0.075 A 
ATOM     17  C   UNL     1      -0.635   4.171   1.313  0.00  0.00    +0.028 A 
ATOM     18  C   UNL     1      -1.065   5.471   1.499  0.00  0.00    +0.022 A 
ATOM     19  C   UNL     1      -2.379   5.727   1.840  0.00  0.00    +0.053 A 
ATOM     20  C   UNL     1      -3.279   4.670   1.993  0.00  0.00    +0.057 A 
ATOM     21  C   UNL     1      -2.846   3.358   1.800  0.00  0.00    +0.041 A 
ATOM     22 CL   UNL     1      -2.911   7.363   2.078  0.00  0.00    -0.083 Cl
BRANCH  20  23
ATOM     23  C   UNL     1      -4.686   4.941   2.357  0.00  0.00    +0.243 C 
ATOM     24  O   UNL     1      -5.061   6.085   2.525  0.00  0.00    -0.270 OA
ATOM     25  N   UNL     1      -5.552   3.919   2.504  0.00  0.00    -0.325 N 
ATOM     26  H   UNL     1      -6.599   4.120   2.775  0.00  0.00    +0.145 HD
ATOM     27  H   UNL     1      -5.213   2.884   2.353  0.00  0.00    +0.145 HD
ENDBRANCH  20  23
ENDBRANCH  15  16
ENDBRANCH   1  15
TORSDOF 6
