REMARK  Name = ZINC31959503
REMARK  5 active torsions:
REMARK  status: ('A' for Active; 'I' for Inactive)
REMARK    1  A    between atoms: C_1  and  C_2
REMARK    2  A    between atoms: C_2  and  N_3
REMARK    3  A    between atoms: C_6  and  C_14
REMARK    4  A    between atoms: C_20  and  C_22
REMARK    5  A    between atoms: C_22  and  N_23
REMARK                            x       y       z     vdW  Elec       q    Type
REMARK                         _______ _______ _______ _____ _____    ______ ____
ROOT
ATOM      1  C   UNL     1       0.002  -0.004   0.002  0.00  0.00    +0.080 A 
ATOM      2  C   UNL     1       1.202  -0.659  -0.013  0.00  0.00    +0.076 A 
ATOM      3  S   UNL     1       2.334   0.725  -0.016  0.00  0.00    -0.060 S 
ATOM      4  C   UNL     1       1.103   2.021   0.002  0.00  0.00    +0.165 A 
ATOM      5  N   UNL     1      -0.016   1.320   0.009  0.00  0.00    -0.225 NA
ATOM      6  N   UNL     1       1.277   3.400   0.008  0.00  0.00    -0.266 N 
ATOM      7  C   UNL     1       2.519   3.922  -0.001  0.00  0.00    +0.201 C 
ATOM      8  O   UNL     1       3.485   3.189  -0.014  0.00  0.00    -0.278 OA
ATOM      9  H   UNL     1       0.401   4.064   0.020  0.00  0.00    +0.157 HD
ENDROOT
BRANCH   1  13
ATOM     10  N   UNL     1      -4.905  -0.166  -0.162  0.00  0.00    -0.266 N 
ATOM     11  C   UNL     1      -3.668  -0.821  -0.071  0.00  0.00    +0.079 A 
ATOM     12  C   UNL     1      -2.488  -0.100  -0.074  0.00  0.00    +0.037 A 
ATOM     13  C   UNL     1      -1.268  -0.770   0.011  0.00  0.00    +0.003 A 
ATOM     14  C   UNL     1      -1.244  -2.160   0.108  0.00  0.00    +0.014 A 
ATOM     15  C   UNL     1      -2.425  -2.875   0.117  0.00  0.00    +0.048 A 
ATOM     16  C   UNL     1      -3.638  -2.212   0.028  0.00  0.00    +0.143 A 
ATOM     17  O   UNL     1      -4.808  -2.906   0.038  0.00  0.00    -0.481 OA
ATOM     18  C   UNL     1      -5.930  -2.265   0.650  0.00  0.00    +0.325 C 
ATOM     19  C   UNL     1      -6.029  -0.842   0.164  0.00  0.00    +0.257 C 
ATOM     20  O   UNL     1      -7.112  -0.306   0.065  0.00  0.00    -0.272 OA
BRANCH  10  22
ATOM     21  C   UNL     1      -5.135   1.276  -2.123  0.00  0.00    +0.025 C 
ATOM     22  C   UNL     1      -4.978   1.229  -0.602  0.00  0.00    +0.110 C 
ENDBRANCH  10  22
ENDBRANCH   1  13
BRANCH   7  23
ATOM     23  C   UNL     1       2.708   5.417   0.005  0.00  0.00    +0.011 C 
BRANCH  23  24
ATOM     24  N   UNL     1       4.144   5.729  -0.007  0.00  0.00    +0.384 N 
ATOM     25  H   UNL     1       4.281   6.821  -0.002  0.00  0.00    -0.089 HD
ATOM     26  H   UNL     1       4.604   5.305  -0.912  0.00  0.00    -0.089 HD
ATOM     27  H   UNL     1       4.621   5.296   0.885  0.00  0.00    -0.089 HD
ENDBRANCH  23  24
ENDBRANCH   7  23
TORSDOF 4
