REMARK  Name = ZINC41181590
REMARK  4 active torsions:
REMARK  status: ('A' for Active; 'I' for Inactive)
REMARK    1  A    between atoms: C_3  and  C_9
REMARK    2  A    between atoms: C_6  and  C_7
REMARK    3  A    between atoms: C_12  and  C_14
REMARK    4  A    between atoms: C_14  and  N_21
REMARK                            x       y       z     vdW  Elec       q    Type
REMARK                         _______ _______ _______ _____ _____    ______ ____
ROOT
ATOM      1  C   UNL     1       3.726   2.620  -0.249  0.00  0.00    +0.078 A 
ATOM      2  C   UNL     1       3.912   3.971  -0.110  0.00  0.00    +0.075 A 
ATOM      3  S   UNL     1       5.695   4.056  -0.067  0.00  0.00    -0.081 S 
ATOM      4  C   UNL     1       6.013   2.411  -0.226  0.00  0.00    +0.068 A 
ATOM      5  N   UNL     1       4.823   1.875  -0.297  0.00  0.00    -0.245 NA
ENDROOT
BRANCH   4   6
ATOM      6  C   UNL     1       7.351   1.720  -0.269  0.00  0.00    -0.021 C 
ATOM      7  C   UNL     1       7.406   0.668   0.855  0.00  0.00    -0.006 C 
ATOM      8  C   UNL     1       8.842   0.212   1.178  0.00  0.00    -0.001 C 
ATOM      9  C   UNL     1       9.672   0.007  -0.059  0.00  0.00    -0.000 C 
ATOM     10  C   UNL     1      10.454   1.305  -0.346  0.00  0.00    -0.000 C 
ATOM     11  C   UNL     1       9.637   2.311  -1.007  0.00  0.00    -0.001 C 
ATOM     12  C   UNL     1       8.437   2.753  -0.144  0.00  0.00    -0.006 C 
BRANCH   6  13
ATOM     13  N   UNL     1       7.491   1.038  -1.563  0.00  0.00    +0.386 N 
ATOM     14  H   UNL     1       7.223   1.666  -2.305  0.00  0.00    -0.089 HD
ATOM     15  H   UNL     1       8.451   0.755  -1.692  0.00  0.00    -0.089 HD
ATOM     16  H   UNL     1       6.895   0.223  -1.580  0.00  0.00    -0.089 HD
ENDBRANCH   6  13
ENDBRANCH   4   6
BRANCH   1  19
ATOM     17  C   UNL     1      -0.004   2.297  -0.465  0.00  0.00    +0.019 A 
ATOM     18  C   UNL     1       1.249   2.848  -0.386  0.00  0.00    +0.011 A 
ATOM     19  C   UNL     1       2.373   2.023  -0.335  0.00  0.00    +0.001 A 
ATOM     20  C   UNL     1       2.224   0.635  -0.366  0.00  0.00    +0.011 A 
ATOM     21  C   UNL     1       0.972   0.082  -0.445  0.00  0.00    +0.019 A 
ATOM     22  C   UNL     1      -0.155   0.907  -0.496  0.00  0.00    +0.052 A 
BRANCH  22  23
ATOM     23  C   UNL     1      -1.463   0.330  -0.578  0.00  0.00    +0.099 C 
ATOM     24  N   UNL     1      -2.501  -0.128  -0.644  0.00  0.00    -0.191 NA
ENDBRANCH  22  23
ENDBRANCH   1  19
TORSDOF 4
