REMARK  Name = ZINC54908518
REMARK  9 active torsions:
REMARK  status: ('A' for Active; 'I' for Inactive)
REMARK    1  A    between atoms: C_1  and  C_2
REMARK    2  A    between atoms: C_8  and  N_10
REMARK    3  A    between atoms: N_10  and  C_11
REMARK    4  A    between atoms: C_15  and  C_17
REMARK    5  A    between atoms: C_17  and  N_18
REMARK    6  A    between atoms: N_18  and  C_19
REMARK    7  A    between atoms: C_19  and  C_20
REMARK    8  A    between atoms: C_19  and  C_21
REMARK    9  A    between atoms: C_19  and  C_22
REMARK                            x       y       z     vdW  Elec       q    Type
REMARK                         _______ _______ _______ _____ _____    ______ ____
ROOT
ATOM      1  N   UNL     1       2.158   0.156   1.096  0.00  0.00    -0.309 N 
ATOM      2  C   UNL     1       2.924  -0.290  -0.070  0.00  0.00    +0.131 C 
ATOM      3  C   UNL     1       2.788   0.857   2.113  0.00  0.00    +0.161 A 
ATOM      4  N   UNL     1       2.303   1.213   3.283  0.00  0.00    -0.233 NA
ATOM      5  C   UNL     1       3.040   1.884   4.151  0.00  0.00    +0.122 A 
ATOM      6  C   UNL     1       4.308   2.185   3.780  0.00  0.00    -0.006 A 
ATOM      7  S   UNL     1       4.362   1.451   2.153  0.00  0.00    -0.059 S 
ENDROOT
BRANCH   1  14
ATOM      8  C   UNL     1       0.343   2.069   2.295  0.00  0.00    +0.009 C 
ATOM      9  C   UNL     1      -0.068   1.168   1.128  0.00  0.00    +0.006 C 
ATOM     10  C   UNL     1       0.222   1.881  -0.194  0.00  0.00    +0.005 C 
ATOM     11  C   UNL     1      -0.190   0.980  -1.360  0.00  0.00    +0.000 C 
ATOM     12  C   UNL     1       0.604  -0.326  -1.300  0.00  0.00    +0.002 C 
ATOM     13  C   UNL     1       0.314  -1.039   0.022  0.00  0.00    +0.023 C 
ATOM     14  C   UNL     1       0.726  -0.138   1.188  0.00  0.00    +0.078 C 
ENDBRANCH   1  14
BRANCH   6  15
ATOM     15  C   UNL     1       5.379   2.929   4.535  0.00  0.00    -0.037 C 
BRANCH  15  16
ATOM     16  N   UNL     1       6.170   1.978   5.327  0.00  0.00    +0.385 N 
ATOM     17  H   UNL     1       5.567   1.501   5.981  0.00  0.00    -0.085 HD
ATOM     18  H   UNL     1       6.599   1.303   4.712  0.00  0.00    -0.085 HD
BRANCH  16  19
ATOM     19  C   UNL     1       7.214   2.703   6.063  0.00  0.00    -0.076 C 
ATOM     20  C   UNL     1       6.563   3.726   6.996  0.00  0.00    -0.011 C 
ATOM     21  C   UNL     1       8.038   1.712   6.888  0.00  0.00    -0.011 C 
ATOM     22  C   UNL     1       8.129   3.425   5.072  0.00  0.00    -0.011 C 
ENDBRANCH  16  19
ENDBRANCH  15  16
ENDBRANCH   6  15
TORSDOF 4
