REMARK  Name = ZINC24981850
REMARK  4 active torsions:
REMARK  status: ('A' for Active; 'I' for Inactive)
REMARK    1  A    between atoms: C_2  and  N_29
REMARK    2  A    between atoms: C_23  and  C_24
REMARK    3  A    between atoms: C_23  and  C_26
REMARK    4  A    between atoms: N_29  and  C_30
REMARK                            x       y       z     vdW  Elec       q    Type
REMARK                         _______ _______ _______ _____ _____    ______ ____
ROOT
ATOM      1  C   UNL     1      -4.901   2.876   1.421  0.00  0.00    +0.034 A 
ATOM      2  C   UNL     1      -5.262   1.724   0.751  0.00  0.00    +0.030 A 
ATOM      3  C   UNL     1      -6.565   1.183   0.757  0.00  0.00    +0.051 A 
ATOM      4  C   UNL     1      -7.529   1.822   1.475  0.00  0.00    +0.071 A 
ATOM      5  C   UNL     1      -7.197   3.054   2.253  0.00  0.00    +0.093 A 
ATOM      6  N   UNL     1      -8.226   3.449   2.918  0.00  0.00    -0.253 NA
ATOM      7  C   UNL     1      -9.310   2.495   2.702  0.00  0.00    +0.140 C 
ATOM      8  N   UNL     1      -8.859   1.582   1.635  0.00  0.00    -0.321 N 
ATOM      9  C   UNL     1      -9.719   0.732   0.945  0.00  0.00    +0.002 C 
ATOM     10  C   UNL     1     -11.017   0.938   1.032  0.00  0.00    +0.032 C 
ATOM     11  C   UNL     1     -12.017   0.062   0.312  0.00  0.00    +0.009 C 
ATOM     12  C   UNL     1     -11.351  -0.727  -0.810  0.00  0.00    +0.001 C 
ATOM     13  C   UNL     1     -10.122  -1.437  -0.227  0.00  0.00    +0.006 C 
ATOM     14  C   UNL     1      -9.093  -0.367   0.131  0.00  0.00    +0.049 C 
ATOM     15  C   UNL     1     -11.598   2.056   1.869  0.00  0.00    +0.017 C 
ATOM     16  C   UNL     1     -10.585   3.156   2.177  0.00  0.00    +0.038 C 
ATOM     17  C   UNL     1     -11.152   4.090   3.249  0.00  0.00    +0.008 C 
ATOM     18  C   UNL     1     -11.462   3.286   4.513  0.00  0.00    +0.001 C 
ATOM     19  C   UNL     1     -10.177   2.644   5.039  0.00  0.00    +0.004 C 
ATOM     20  C   UNL     1      -9.603   1.706   3.974  0.00  0.00    +0.053 C 
ATOM     21  C   UNL     1      -5.816   3.611   2.188  0.00  0.00    +0.026 A 
ATOM     22  C   UNL     1      -5.453   4.794   2.858  0.00  0.00    +0.122 C 
ENDROOT
BRANCH  22  23
ATOM     23  C   UNL     1      -4.053   5.224   2.879  0.00  0.00    +0.252 C 
ATOM     24  O   UNL     1      -3.219   4.614   2.234  0.00  0.00    -0.270 OA
ATOM     25  N   UNL     1      -3.687   6.295   3.612  0.00  0.00    -0.325 N 
ATOM     26  H   UNL     1      -2.635   6.617   3.627  0.00  0.00    +0.145 HD
ATOM     27  H   UNL     1      -4.440   6.846   4.194  0.00  0.00    +0.145 HD
ENDBRANCH  22  23
BRANCH  22  28
ATOM     28  C   UNL     1      -6.453   5.578   3.519  0.00  0.00    +0.105 C 
ATOM     29  N   UNL     1      -7.245   6.200   4.044  0.00  0.00    -0.191 NA
ENDBRANCH  22  28
BRANCH   2  30
ATOM     30  N   UNL     1      -4.286   1.057   0.035  0.00  0.00    -0.341 N 
ATOM     31  H   UNL     1      -4.536   0.134  -0.507  0.00  0.00    +0.146 HD
BRANCH  30  32
ATOM     32  C   UNL     1      -2.918   1.580  -0.001  0.00  0.00    +0.070 C 
ATOM     33  C   UNL     1      -2.219   1.093  -1.272  0.00  0.00    +0.022 C 
ATOM     34  C   UNL     1      -0.790   1.639  -1.310  0.00  0.00    +0.002 C 
ATOM     35  C   UNL     1      -0.022   1.144  -0.083  0.00  0.00    +0.000 C 
ATOM     36  C   UNL     1      -0.721   1.631   1.188  0.00  0.00    +0.002 C 
ATOM     37  C   UNL     1      -2.150   1.085   1.226  0.00  0.00    +0.022 C 
ENDBRANCH  30  32
ENDBRANCH   2  30
TORSDOF 4
