REMARK  Name = ZINC53073865
REMARK  5 active torsions:
REMARK  status: ('A' for Active; 'I' for Inactive)
REMARK    1  A    between atoms: C_3  and  N_17
REMARK    2  A    between atoms: C_5  and  C_6
REMARK    3  A    between atoms: N_8  and  C_9
REMARK    4  A    between atoms: C_9  and  C_15
REMARK    5  A    between atoms: C_15  and  O_16
REMARK                            x       y       z     vdW  Elec       q    Type
REMARK                         _______ _______ _______ _____ _____    ______ ____
ROOT
ATOM      1  C   UNL     1      -0.252  -1.942   0.901  0.00  0.00    +0.280 C 
ATOM      2  O   UNL     1      -0.346  -2.627   1.901  0.00  0.00    -0.267 OA
ATOM      3  N   UNL     1      -1.129  -2.100  -0.110  0.00  0.00    -0.301 N 
ATOM      4  H   UNL     1      -1.099  -1.506  -0.876  0.00  0.00    +0.150 HD
ENDROOT
BRANCH   3   5
ATOM      5  C   UNL     1      -2.128  -3.170  -0.052  0.00  0.00    +0.058 C 
ATOM      6  C   UNL     1      -2.961  -3.160  -1.335  0.00  0.00    +0.028 C 
ATOM      7  C   UNL     1      -2.045  -3.383  -2.540  0.00  0.00    +0.002 C 
ATOM      8  C   UNL     1      -1.338  -4.733  -2.401  0.00  0.00    +0.000 C 
ATOM      9  C   UNL     1      -0.505  -4.743  -1.118  0.00  0.00    +0.002 C 
ATOM     10  C   UNL     1      -1.422  -4.520   0.087  0.00  0.00    +0.028 C 
BRANCH   5  11
ATOM     11  C   UNL     1      -3.045  -2.947   1.153  0.00  0.00    +0.181 C 
BRANCH  11  12
ATOM     12  O   UNL     1      -3.646  -1.654   1.061  0.00  0.00    -0.393 OA
ATOM     13  H   UNL     1      -4.241  -1.445   1.794  0.00  0.00    +0.209 HD
ENDBRANCH  11  12
ENDBRANCH   5  11
ENDBRANCH   3   5
BRANCH   1  18
ATOM     14  C   UNL     1       1.767  -0.681   1.739  0.00  0.00    +0.057 A 
ATOM     15  C   UNL     1       2.579   0.340   1.222  0.00  0.00    +0.076 A 
ATOM     16  C   UNL     1       2.095   0.653   0.000  0.00  0.00    +0.280 A 
ATOM     17  O   UNL     1       1.033  -0.122  -0.254  0.00  0.00    -0.429 OA
ATOM     18  C   UNL     1       0.817  -0.943   0.794  0.00  0.00    +0.192 A 
BRANCH  16  19
ATOM     19  N   UNL     1       2.647   1.684  -0.908  0.00  0.00    +0.093 N 
ATOM     20  O   UNL     1       3.614   2.329  -0.574  0.00  0.00    -0.123 OA
ATOM     21  O   UNL     1       2.131   1.881  -1.983  0.00  0.00    -0.123 OA
ENDBRANCH  16  19
ENDBRANCH   1  18
TORSDOF 5
