REMARK  Name = ZINC64885643
REMARK  7 active torsions:
REMARK  status: ('A' for Active; 'I' for Inactive)
REMARK    1  A    between atoms: N_3  and  C_6
REMARK    2  A    between atoms: C_6  and  C_7
REMARK    3  A    between atoms: C_7  and  C_8
REMARK    4  A    between atoms: C_8  and  N_9
REMARK    5  A    between atoms: N_12  and  N_13
REMARK    6  A    between atoms: C_14  and  C_16
REMARK    7  A    between atoms: C_16  and  C_17
REMARK                            x       y       z     vdW  Elec       q    Type
REMARK                         _______ _______ _______ _____ _____    ______ ____
ROOT
ATOM      1  N   UNL     1       6.964   0.563   5.345  0.00  0.00    -0.233 N 
ATOM      2  C   UNL     1       7.425   0.550   6.611  0.00  0.00    +0.234 C 
ATOM      3  O   UNL     1       8.620   0.533   6.821  0.00  0.00    -0.274 OA
ATOM      4  H   UNL     1       6.009   0.577   5.176  0.00  0.00    +0.173 HD
ENDROOT
BRANCH   1   8
ATOM      5  N   UNL     1       6.075   0.589   2.771  0.00  0.00    -0.298 N 
ATOM      6  C   UNL     1       7.403   0.570   3.005  0.00  0.00    +0.316 C 
ATOM      7  O   UNL     1       8.184   0.564   2.073  0.00  0.00    -0.251 OA
ATOM      8  N   UNL     1       7.864   0.557   4.271  0.00  0.00    -0.218 N 
ATOM      9  H   UNL     1       5.452   0.594   3.514  0.00  0.00    +0.150 HD
ATOM     10  H   UNL     1       8.819   0.543   4.439  0.00  0.00    +0.174 HD
BRANCH   5  11
ATOM     11  C   UNL     1       5.574   0.603   1.395  0.00  0.00    +0.107 C 
BRANCH  11  12
ATOM     12  C   UNL     1       4.044   0.624   1.409  0.00  0.00    +0.040 C 
BRANCH  12  13
ATOM     13  C   UNL     1       3.521   0.638  -0.028  0.00  0.00    +0.124 C 
BRANCH  13  16
ATOM     14  C   UNL     1      -0.016   1.337   0.009  0.00  0.00    +0.101 A 
ATOM     15  C   UNL     1       1.259   1.771  -0.000  0.00  0.00    +0.104 A 
ATOM     16  N   UNL     1       2.056   0.658  -0.014  0.00  0.00    -0.338 N 
ATOM     17  C   UNL     1       1.240  -0.418  -0.012  0.00  0.00    +0.173 A 
ATOM     18  N   UNL     1       0.002  -0.004   0.002  0.00  0.00    -0.352 N 
ATOM     19  H   UNL     1      -0.781  -0.576   0.007  0.00  0.00    +0.166 HD
ENDBRANCH  13  16
ENDBRANCH  12  13
ENDBRANCH  11  12
ENDBRANCH   5  11
ENDBRANCH   1   8
BRANCH   2  20
ATOM     20  C   UNL     1       6.457   0.557   7.766  0.00  0.00    +0.136 C 
BRANCH  20  21
ATOM     21  C   UNL     1       7.223   0.540   9.063  0.00  0.00    +0.007 A 
ATOM     22  C   UNL     1       7.542  -0.536   9.795  0.00  0.00    +0.200 A 
ATOM     23  O   UNL     1       8.229  -0.165  10.889  0.00  0.00    -0.463 OA
ATOM     24  C   UNL     1       8.393   1.173  10.924  0.00  0.00    +0.135 A 
ATOM     25  C   UNL     1       7.775   1.698   9.777  0.00  0.00    +0.024 A 
ATOM     26  C   UNL     1       7.789   3.071   9.543  0.00  0.00    +0.015 A 
ATOM     27  C   UNL     1       8.415   3.914  10.439  0.00  0.00    -0.043 A 
ATOM     28  C   UNL     1       9.028   3.397  11.571  0.00  0.00    -0.041 A 
ATOM     29  C   UNL     1       9.014   2.037  11.815  0.00  0.00    +0.050 A 
ATOM     30  C   UNL     1       9.634   4.525  12.381  0.00  0.00    +0.036 C 
ATOM     31  C   UNL     1       9.709   5.723  11.412  0.00  0.00    +0.009 C 
ATOM     32  C   UNL     1       8.569   5.420  10.417  0.00  0.00    +0.036 C 
ENDBRANCH  20  21
ENDBRANCH   2  20
TORSDOF 7
