REMARK  Name = ZINC28956807
REMARK  8 active torsions:
REMARK  status: ('A' for Active; 'I' for Inactive)
REMARK    1  A    between atoms: C_1  and  C_2
REMARK    2  A    between atoms: N_6  and  C_12
REMARK    3  A    between atoms: C_7  and  C_9
REMARK    4  A    between atoms: C_16  and  C_18
REMARK    5  A    between atoms: C_18  and  C_19
REMARK    6  A    between atoms: C_19  and  C_21
REMARK    7  A    between atoms: C_19  and  N_31
REMARK    8  A    between atoms: C_21  and  C_22
REMARK                            x       y       z     vdW  Elec       q    Type
REMARK                         _______ _______ _______ _____ _____    ______ ____
ROOT
ATOM      1  C   UNL     1      -3.877  -1.293   0.987  0.00  0.00    +0.035 C 
ATOM      2  C   UNL     1      -2.986  -2.386   0.393  0.00  0.00    +0.121 C 
ATOM      3  C   UNL     1      -2.961  -3.586   1.310  0.00  0.00    +0.057 A 
ATOM      4  C   UNL     1      -1.827  -4.202   1.708  0.00  0.00    +0.042 A 
ATOM      5  N   UNL     1      -2.199  -5.234   2.516  0.00  0.00    -0.335 N 
ATOM      6  C   UNL     1      -3.550  -5.214   2.590  0.00  0.00    +0.090 A 
ATOM      7  N   UNL     1      -3.996  -4.222   1.863  0.00  0.00    -0.345 N 
ATOM      8  C   UNL     1      -1.304  -6.185   3.180  0.00  0.00    +0.150 C 
ATOM      9  C   UNL     1      -0.436  -3.784   1.310  0.00  0.00    +0.074 C 
ATOM     10  C   UNL     1      -0.526  -2.878   0.069  0.00  0.00    +0.114 C 
ATOM     11  N   UNL     1      -1.601  -1.896   0.276  0.00  0.00    -0.293 N 
ATOM     12  C   UNL     1      -1.326  -0.579   0.351  0.00  0.00    +0.215 C 
ATOM     13  O   UNL     1      -2.231   0.227   0.416  0.00  0.00    -0.276 OA
ATOM     14  H   UNL     1      -5.022  -3.877   1.669  0.00  0.00    +0.167 HD
ENDROOT
BRANCH   6  15
ATOM     15  C   UNL     1      -4.400  -6.176   3.378  0.00  0.00    +0.053 C 
ATOM     16  C   UNL     1      -5.914  -6.114   3.171  0.00  0.00    +0.012 C 
ATOM     17  C   UNL     1      -5.297  -5.593   4.472  0.00  0.00    +0.012 C 
ENDBRANCH   6  15
BRANCH  12  18
ATOM     18  C   UNL     1       0.105  -0.106   0.354  0.00  0.00    +0.080 C 
BRANCH  18  19
ATOM     19  C   UNL     1       0.138   1.421   0.446  0.00  0.00    -0.062 C 
BRANCH  19  20
ATOM     20  N   UNL     1      -0.459   1.997  -0.766  0.00  0.00    +0.381 N 
ATOM     21  H   UNL     1      -0.435   3.095  -0.700  0.00  0.00    -0.090 HD
ATOM     22  H   UNL     1      -1.501   1.658  -0.859  0.00  0.00    -0.090 HD
ATOM     23  H   UNL     1       0.113   1.671  -1.647  0.00  0.00    -0.090 HD
ENDBRANCH  19  20
BRANCH  19  24
ATOM     24  C   UNL     1       1.587   1.893   0.575  0.00  0.00    +0.022 C 
BRANCH  24  25
ATOM     25  C   UNL     1       1.613   3.384   0.789  0.00  0.00    -0.011 A 
ATOM     26  C   UNL     1       1.784   4.234  -0.288  0.00  0.00    +0.047 A 
ATOM     27  C   UNL     1       1.802   5.603  -0.094  0.00  0.00    +0.159 A 
ATOM     28  C   UNL     1       1.659   6.124   1.184  0.00  0.00    +0.161 A 
ATOM     29  C   UNL     1       1.493   5.273   2.262  0.00  0.00    +0.080 A 
ATOM     30  C   UNL     1       1.470   3.903   2.064  0.00  0.00    +0.129 A 
ATOM     31  F   UNL     1       1.307   3.071   3.117  0.00  0.00    -0.205 F 
ATOM     32  F   UNL     1       1.683   7.461   1.375  0.00  0.00    -0.202 F 
ATOM     33  F   UNL     1       1.964   6.433  -1.147  0.00  0.00    -0.202 F 
ENDBRANCH  24  25
ENDBRANCH  19  24
ENDBRANCH  18  19
ENDBRANCH  12  18
TORSDOF 6
