REMARK  Name = ZINC44713716
REMARK  10 active torsions:
REMARK  status: ('A' for Active; 'I' for Inactive)
REMARK    1  A    between atoms: C_1  and  C_2
REMARK    2  A    between atoms: C_2  and  O_3
REMARK    3  A    between atoms: O_3  and  C_4
REMARK    4  A    between atoms: C_7  and  C_10
REMARK    5  A    between atoms: C_14  and  C_23
REMARK    6  A    between atoms: N_25  and  C_26
REMARK    7  A    between atoms: C_26  and  C_28
REMARK    8  A    between atoms: C_26  and  C_29
REMARK    9  A    between atoms: C_30  and  C_36
REMARK   10  A    between atoms: C_34  and  C_35
REMARK                            x       y       z     vdW  Elec       q    Type
REMARK                         _______ _______ _______ _____ _____    ______ ____
ROOT
ATOM      1  C   UNL     1       1.159  -6.025   1.760  0.00  0.00    +0.247 C 
ATOM      2  O   UNL     1       0.587  -6.763   0.981  0.00  0.00    -0.270 OA
ATOM      3  N   UNL     1       1.875  -6.543   2.777  0.00  0.00    -0.296 N 
ATOM      4  C   UNL     1       2.526  -5.816   3.893  0.00  0.00    +0.121 C 
ATOM      5  C   UNL     1       2.291  -6.709   5.131  0.00  0.00    +0.100 C 
ATOM      6  C   UNL     1       2.072  -8.121   4.562  0.00  0.00    -0.004 C 
ATOM      7  C   UNL     1       2.183  -7.970   3.038  0.00  0.00    +0.115 C 
ATOM      8  C   UNL     1       0.683  -8.632   4.935  0.00  0.00    -0.010 C 
ATOM      9  C   UNL     1       0.511 -10.059   4.406  0.00  0.00    -0.082 C 
ATOM     10  N   UNL     1       1.545 -10.925   4.985  0.00  0.00    +0.379 N 
ATOM     11  C   UNL     1       2.874 -10.481   4.545  0.00  0.00    -0.082 C 
ATOM     12  C   UNL     1       3.146  -9.072   5.080  0.00  0.00    -0.010 C 
ATOM     13  H   UNL     1       1.494 -10.882   5.991  0.00  0.00    -0.086 HD
ATOM     14  H   UNL     1       1.393 -11.876   4.683  0.00  0.00    -0.086 HD
ENDROOT
BRANCH   1  18
ATOM     15  C   UNL     1       0.900  -1.815   1.272  0.00  0.00    +0.121 A 
ATOM     16  C   UNL     1       1.983  -2.369   1.945  0.00  0.00    +0.046 A 
ATOM     17  C   UNL     1       2.071  -3.734   2.105  0.00  0.00    +0.016 A 
ATOM     18  C   UNL     1       1.069  -4.562   1.591  0.00  0.00    +0.037 A 
ATOM     19  C   UNL     1      -0.018  -4.000   0.916  0.00  0.00    +0.016 A 
ATOM     20  C   UNL     1      -0.101  -2.634   0.764  0.00  0.00    +0.046 A 
BRANCH  15  21
ATOM     21  O   UNL     1       0.818  -0.469   1.116  0.00  0.00    -0.492 OA
BRANCH  21  23
ATOM     22  C   UNL     1       1.615   1.796   1.391  0.00  0.00    +0.048 C 
ATOM     23  C   UNL     1       1.881   0.314   1.663  0.00  0.00    +0.225 C 
ENDBRANCH  21  23
ENDBRANCH  15  21
ENDBRANCH   1  18
BRANCH   5  24
ATOM     24  C   UNL     1       1.069  -6.250   5.885  0.00  0.00    +0.219 C 
ATOM     25  O   UNL     1       0.116  -5.803   5.281  0.00  0.00    -0.275 OA
ATOM     26  N   UNL     1       1.035  -6.335   7.229  0.00  0.00    -0.308 N 
ATOM     27  H   UNL     1       1.796  -6.691   7.712  0.00  0.00    +0.149 HD
BRANCH  26  28
ATOM     28  C   UNL     1      -0.153  -5.888   7.962  0.00  0.00    +0.104 C 
ATOM     29  C   UNL     1      -0.013  -4.403   8.303  0.00  0.00    +0.033 C 
BRANCH  28  30
ATOM     30  C   UNL     1      -0.288  -6.685   9.233  0.00  0.00    +0.015 A 
ATOM     31  C   UNL     1      -1.403  -7.322   9.659  0.00  0.00    +0.038 A 
ATOM     32  N   UNL     1      -1.114  -7.916  10.835  0.00  0.00    -0.281 N 
ATOM     33  H   UNL     1      -1.725  -8.445  11.373  0.00  0.00    +0.189 HD
ATOM     34  N   UNL     1       0.223  -7.635  11.143  0.00  0.00    -0.179 NA
ATOM     35  C   UNL     1       0.719  -6.902  10.180  0.00  0.00    +0.065 A 
ATOM     36  C   UNL     1       2.130  -6.378  10.104  0.00  0.00    +0.068 C 
ATOM     37  C   UNL     1      -2.731  -7.361   8.946  0.00  0.00    +0.065 C 
ENDBRANCH  28  30
ENDBRANCH  26  28
ENDBRANCH   5  24
TORSDOF 6
