REMARK  Name = ZINC21473491
REMARK  2 active torsions:
REMARK  status: ('A' for Active; 'I' for Inactive)
REMARK    1  A    between atoms: N_7  and  C_12
REMARK    2  A    between atoms: C_12  and  C_13
REMARK                            x       y       z     vdW  Elec       q    Type
REMARK                         _______ _______ _______ _____ _____    ______ ____
ROOT
ATOM      1  C   UNL     1      -4.102   5.665   0.071  0.00  0.00    +0.233 C 
ATOM      2  O   UNL     1      -4.481   6.125   1.128  0.00  0.00    -0.274 OA
ATOM      3  N   UNL     1      -3.237   4.631   0.058  0.00  0.00    -0.300 N 
ATOM      4  C   UNL     1      -2.745   4.051   1.315  0.00  0.00    +0.110 C 
ATOM      5  C   UNL     1      -1.213   4.052   1.291  0.00  0.00    +0.054 C 
ATOM      6  C   UNL     1      -0.725   3.352   0.027  0.00  0.00    +0.115 C 
ATOM      7  C   UNL     1      -1.237   4.066  -1.220  0.00  0.00    +0.054 C 
ATOM      8  C   UNL     1      -2.769   4.064  -1.214  0.00  0.00    +0.110 C 
ATOM      9  C   UNL     1       0.785   3.285   0.012  0.00  0.00    +0.244 C 
ATOM     10  O   UNL     1       1.561   4.217   0.010  0.00  0.00    -0.273 OA
ATOM     11  N   UNL     1       1.088   1.971   0.002  0.00  0.00    -0.238 N 
ATOM     12  C   UNL     1      -0.014   1.211   0.009  0.00  0.00    +0.307 C 
ATOM     13  O   UNL     1       0.002  -0.004   0.002  0.00  0.00    -0.252 OA
ATOM     14  N   UNL     1      -1.144   1.945   0.018  0.00  0.00    -0.285 N 
ATOM     15  H   UNL     1       2.140   1.648  -0.009  0.00  0.00    +0.159 HD
ATOM     16  H   UNL     1      -2.214   1.690   0.019  0.00  0.00    +0.151 HD
ENDROOT
BRANCH   1  17
ATOM     17  C   UNL     1      -4.598   6.250  -1.226  0.00  0.00    +0.209 C 
BRANCH  17  24
ATOM     18  C   UNL     1      -8.735   5.616  -0.488  0.00  0.00    +0.002 A 
ATOM     19  C   UNL     1      -9.615   6.681  -0.546  0.00  0.00    +0.004 A 
ATOM     20  C   UNL     1      -9.141   7.965  -0.723  0.00  0.00    +0.047 A 
ATOM     21  C   UNL     1      -7.782   8.187  -0.860  0.00  0.00    +0.143 A 
ATOM     22  C   UNL     1      -6.894   7.115  -0.808  0.00  0.00    +0.079 A 
ATOM     23  C   UNL     1      -7.375   5.830  -0.619  0.00  0.00    +0.027 A 
ATOM     24  N   UNL     1      -5.519   7.353  -0.944  0.00  0.00    -0.257 N 
ATOM     25  C   UNL     1      -5.058   8.617  -0.816  0.00  0.00    +0.258 C 
ATOM     26  O   UNL     1      -3.878   8.852  -0.964  0.00  0.00    -0.271 OA
ATOM     27  C   UNL     1      -6.017   9.733  -0.488  0.00  0.00    +0.325 C 
ATOM     28  O   UNL     1      -7.300   9.444  -1.050  0.00  0.00    -0.481 OA
ENDBRANCH  17  24
ENDBRANCH   1  17
TORSDOF 2
