REMARK  Name = ZINC66990571
REMARK  5 active torsions:
REMARK  status: ('A' for Active; 'I' for Inactive)
REMARK    1  A    between atoms: C_1  and  C_2
REMARK    2  A    between atoms: C_2  and  C_4
REMARK    3  A    between atoms: C_2  and  N_15
REMARK    4  A    between atoms: N_15  and  C_16
REMARK    5  A    between atoms: C_16  and  C_17
REMARK                            x       y       z     vdW  Elec       q    Type
REMARK                         _______ _______ _______ _____ _____    ______ ____
ROOT
ATOM      1  C   UNL     1      -0.019   1.526   0.010  0.00  0.00    -0.009 C 
ATOM      2  C   UNL     1       0.002  -0.004   0.002  0.00  0.00    -0.042 C 
ENDROOT
BRANCH   2   3
ATOM      3  C   UNL     1       0.707  -0.490  -1.238  0.00  0.00    -0.044 A 
ATOM      4  C   UNL     1      -0.024  -0.817  -2.365  0.00  0.00    +0.052 A 
ATOM      5  C   UNL     1       0.623  -1.263  -3.507  0.00  0.00    +0.162 A 
ATOM      6  C   UNL     1       2.008  -1.379  -3.518  0.00  0.00    +0.163 A 
ATOM      7  C   UNL     1       2.736  -1.052  -2.384  0.00  0.00    +0.065 A 
ATOM      8  C   UNL     1       2.086  -0.603  -1.249  0.00  0.00    +0.023 A 
ATOM      9 BR   UNL     1       3.082  -0.149   0.293  0.00  0.00    -0.050 Br
ATOM     10  O   UNL     1       2.662  -1.808  -4.631  0.00  0.00    -0.485 OA
ATOM     11  C   UNL     1       1.876  -2.480  -5.621  0.00  0.00    +0.270 C 
ATOM     12  C   UNL     1       0.595  -1.668  -5.850  0.00  0.00    +0.270 C 
ATOM     13  O   UNL     1      -0.112  -1.585  -4.607  0.00  0.00    -0.485 OA
ENDBRANCH   2   3
BRANCH   2  14
ATOM     14  N   UNL     1      -1.376  -0.512   0.012  0.00  0.00    +0.387 N 
ATOM     15  H   UNL     1      -1.888  -0.113  -0.760  0.00  0.00    -0.085 HD
ATOM     16  H   UNL     1      -1.364  -1.518  -0.076  0.00  0.00    -0.085 HD
BRANCH  14  17
ATOM     17  C   UNL     1      -2.026  -0.140   1.276  0.00  0.00    -0.024 C 
BRANCH  17  18
ATOM     18  C   UNL     1      -3.440  -0.661   1.287  0.00  0.00    +0.046 A 
ATOM     19  C   UNL     1      -3.865  -1.866   1.856  0.00  0.00    +0.042 A 
ATOM     20  C   UNL     1      -5.200  -1.972   1.658  0.00  0.00    +0.105 A 
ATOM     21  N   UNL     1      -5.604  -0.873   0.987  0.00  0.00    -0.285 N 
ATOM     22  H   UNL     1      -6.512  -0.677   0.708  0.00  0.00    +0.188 HD
ATOM     23  N   UNL     1      -4.482  -0.063   0.770  0.00  0.00    -0.181 NA
ENDBRANCH  17  18
ENDBRANCH  14  17
ENDBRANCH   2  14
TORSDOF 4
