REMARK  Name = ZINC46526357
REMARK  8 active torsions:
REMARK  status: ('A' for Active; 'I' for Inactive)
REMARK    1  A    between atoms: C_1  and  N_2
REMARK    2  A    between atoms: N_2  and  C_3
REMARK    3  A    between atoms: N_2  and  C_12
REMARK    4  A    between atoms: C_3  and  C_4
REMARK    5  A    between atoms: C_7  and  C_10
REMARK    6  A    between atoms: C_12  and  C_13
REMARK    7  A    between atoms: N_15  and  C_16
REMARK    8  A    between atoms: C_17  and  C_24
REMARK                            x       y       z     vdW  Elec       q    Type
REMARK                         _______ _______ _______ _____ _____    ______ ____
ROOT
ATOM      1  C   UNL     1       2.158  -0.072   1.120  0.00  0.00    +0.201 C 
ATOM      2  O   UNL     1       2.558   0.569   0.171  0.00  0.00    -0.278 OA
ATOM      3  N   UNL     1       3.008  -0.409   2.111  0.00  0.00    -0.281 N 
ATOM      4  H   UNL     1       2.688  -0.922   2.870  0.00  0.00    +0.155 HD
ENDROOT
BRANCH   3   5
ATOM      5  C   UNL     1       4.338  -0.024   2.045  0.00  0.00    +0.084 A 
ATOM      6  C   UNL     1       5.345  -0.283   2.956  0.00  0.00    +0.068 A 
ATOM      7  C   UNL     1       6.676   0.238   2.651  0.00  0.00    -0.023 A 
ATOM      8  C   UNL     1       6.746   0.920   1.493  0.00  0.00    -0.004 A 
ATOM      9  S   UNL     1       5.098   0.856   0.836  0.00  0.00    -0.077 S 
ATOM     10  C   UNL     1       8.134   1.437   1.230  0.00  0.00    +0.043 C 
ATOM     11  C   UNL     1       8.848   1.354   2.597  0.00  0.00    +0.010 C 
ATOM     12  C   UNL     1       8.060   0.227   3.295  0.00  0.00    +0.037 C 
BRANCH   6  13
ATOM     13  C   UNL     1       5.087  -1.049   4.180  0.00  0.00    +0.244 C 
ATOM     14  O   UNL     1       5.213  -2.259   4.178  0.00  0.00    -0.270 OA
ATOM     15  N   UNL     1       4.711  -0.412   5.307  0.00  0.00    -0.325 N 
ATOM     16  H   UNL     1       4.611   0.553   5.308  0.00  0.00    +0.145 HD
ATOM     17  H   UNL     1       4.541  -0.918   6.116  0.00  0.00    +0.145 HD
ENDBRANCH   6  13
ENDBRANCH   3   5
BRANCH   1  18
ATOM     18  C   UNL     1       0.713  -0.491   1.192  0.00  0.00    +0.019 C 
BRANCH  18  20
ATOM     19  C   UNL     1      -0.018   1.465   0.010  0.00  0.00    -0.095 C 
ATOM     20  N   UNL     1       0.002  -0.004   0.002  0.00  0.00    +0.386 N 
ATOM     21  H   UNL     1       0.474  -0.330  -0.828  0.00  0.00    -0.081 HD
BRANCH  20  22
ATOM     22  C   UNL     1      -1.376  -0.512   0.012  0.00  0.00    -0.043 C 
BRANCH  22  23
ATOM     23  C   UNL     1      -2.067  -0.116  -1.267  0.00  0.00    -0.064 A 
ATOM     24  C   UNL     1      -2.750   1.085  -1.337  0.00  0.00    +0.003 A 
ATOM     25  C   UNL     1      -3.385   1.454  -2.504  0.00  0.00    +0.019 A 
ATOM     26  C   UNL     1      -3.338   0.613  -3.617  0.00  0.00    +0.052 A 
ATOM     27  C   UNL     1      -2.646  -0.598  -3.540  0.00  0.00    +0.019 A 
ATOM     28  C   UNL     1      -2.012  -0.953  -2.367  0.00  0.00    +0.003 A 
BRANCH  26  29
ATOM     29  C   UNL     1      -3.995   0.989  -4.832  0.00  0.00    +0.099 C 
ATOM     30  N   UNL     1      -4.516   1.288  -5.796  0.00  0.00    -0.191 NA
ENDBRANCH  26  29
ENDBRANCH  22  23
ENDBRANCH  20  22
ENDBRANCH  18  20
ENDBRANCH   1  18
TORSDOF 7
