REMARK  Name = ZINC25451978
REMARK  7 active torsions:
REMARK  status: ('A' for Active; 'I' for Inactive)
REMARK    1  A    between atoms: C_3  and  N_12
REMARK    2  A    between atoms: C_6  and  C_7
REMARK    3  A    between atoms: C_7  and  S_8
REMARK    4  A    between atoms: S_8  and  N_11
REMARK    5  A    between atoms: N_12  and  S_13
REMARK    6  A    between atoms: S_13  and  C_16
REMARK    7  A    between atoms: C_20  and  N_22
REMARK                            x       y       z     vdW  Elec       q    Type
REMARK                         _______ _______ _______ _____ _____    ______ ____
ROOT
ATOM      1  N   UNL     1       3.023   0.620  -1.545  0.00  0.00    -0.098 NA
ENDROOT
BRANCH   1   4
ATOM      2  C   UNL     1       4.444   2.549  -4.332  0.00  0.00    +0.007 A 
ATOM      3  C   UNL     1       4.219   1.520  -3.438  0.00  0.00    +0.027 A 
ATOM      4  C   UNL     1       3.253   1.659  -2.450  0.00  0.00    +0.074 A 
ATOM      5  C   UNL     1       2.512   2.831  -2.367  0.00  0.00    +0.027 A 
ATOM      6  C   UNL     1       2.746   3.858  -3.260  0.00  0.00    +0.007 A 
ATOM      7  C   UNL     1       3.708   3.716  -4.243  0.00  0.00    -0.025 A 
BRANCH   7   8
ATOM      8  C   UNL     1       3.956   4.837  -5.220  0.00  0.00    +0.219 C 
BRANCH   8   9
ATOM      9  S   UNL     1       2.882   4.627  -6.666  0.00  0.00    +0.031 S 
ATOM     10  O   UNL     1       3.273   3.477  -7.404  0.00  0.00    -0.158 OA
ATOM     11  O   UNL     1       1.524   4.826  -6.300  0.00  0.00    -0.158 OA
BRANCH   9  12
ATOM     12  N   UNL     1       3.245   5.906  -7.654  0.00  0.00    -0.208 NA
ATOM     13  H   UNL     1       2.629   5.852  -8.565  0.00  0.00    +0.144 HD
ATOM     14  H   UNL     1       4.309   5.867  -7.929  0.00  0.00    +0.144 HD
ENDBRANCH   9  12
ENDBRANCH   8   9
ENDBRANCH   7   8
ENDBRANCH   1   4
BRANCH   1  15
ATOM     15  S   UNL     1       4.111   0.322  -0.333  0.00  0.00    +0.092 S 
ATOM     16  O   UNL     1       5.391   0.241  -0.946  0.00  0.00    -0.148 OA
ATOM     17  O   UNL     1       3.571  -0.737   0.446  0.00  0.00    -0.148 OA
BRANCH  15  18
ATOM     18  C   UNL     1       4.139   1.746   0.704  0.00  0.00    +0.113 A 
ATOM     19  C   UNL     1       5.096   2.724   0.509  0.00  0.00    +0.030 A 
ATOM     20  C   UNL     1       5.119   3.841   1.322  0.00  0.00    +0.024 A 
ATOM     21  C   UNL     1       4.183   3.981   2.332  0.00  0.00    +0.071 A 
ATOM     22  C   UNL     1       3.222   3.005   2.523  0.00  0.00    +0.146 A 
ATOM     23  C   UNL     1       3.204   1.885   1.712  0.00  0.00    +0.063 A 
ATOM     24 CL   UNL     1       4.210   5.384   3.354  0.00  0.00    -0.081 Cl
BRANCH  22  25
ATOM     25  N   UNL     1       2.216   3.156   3.598  0.00  0.00    +0.058 N 
ATOM     26  O   UNL     1       1.373   2.294   3.769  0.00  0.00    -0.126 OA
ATOM     27  O   UNL     1       2.232   4.143   4.312  0.00  0.00    -0.126 OA
ENDBRANCH  22  25
ENDBRANCH  15  18
ENDBRANCH   1  15
TORSDOF 7
