REMARK  Name = ZINC52094660
REMARK  8 active torsions:
REMARK  status: ('A' for Active; 'I' for Inactive)
REMARK    1  A    between atoms: C_1  and  C_2
REMARK    2  A    between atoms: C_2  and  N_3
REMARK    3  A    between atoms: N_3  and  C_4
REMARK    4  A    between atoms: C_4  and  C_6
REMARK    5  A    between atoms: C_4  and  C_10
REMARK    6  A    between atoms: C_6  and  C_7
REMARK    7  A    between atoms: C_7  and  C_8
REMARK    8  A    between atoms: C_7  and  C_9
REMARK                            x       y       z     vdW  Elec       q    Type
REMARK                         _______ _______ _______ _____ _____    ______ ____
ROOT
ATOM      1  C   UNL     1      -3.285  -2.823  -0.742  0.00  0.00    -0.045 A 
ATOM      2  C   UNL     1      -4.229  -1.901  -1.152  0.00  0.00    +0.031 A 
ATOM      3  C   UNL     1      -5.453  -2.336  -1.636  0.00  0.00    +0.067 A 
ATOM      4  C   UNL     1      -5.727  -3.703  -1.709  0.00  0.00    +0.068 A 
ATOM      5  C   UNL     1      -4.775  -4.621  -1.295  0.00  0.00    +0.043 A 
ATOM      6  C   UNL     1      -3.555  -4.179  -0.818  0.00  0.00    +0.022 A 
ATOM      7 BR   UNL     1      -2.252  -5.431  -0.262  0.00  0.00    -0.050 Br
ATOM      8  N   UNL     1      -7.014  -3.829  -2.228  0.00  0.00    -0.306 N 
ATOM      9  H   UNL     1      -7.480  -4.663  -2.393  0.00  0.00    +0.170 HD
ATOM     10  C   UNL     1      -7.500  -2.595  -2.461  0.00  0.00    +0.325 A 
ATOM     11  O   UNL     1      -8.602  -2.350  -2.915  0.00  0.00    -0.247 OA
ATOM     12  N   UNL     1      -6.582  -1.673  -2.114  0.00  0.00    -0.306 N 
ATOM     13  H   UNL     1      -6.688  -0.711  -2.185  0.00  0.00    +0.170 HD
ENDROOT
BRANCH   1  14
ATOM     14  C   UNL     1      -1.955  -2.351  -0.215  0.00  0.00    -0.040 C 
BRANCH  14  15
ATOM     15  N   UNL     1      -2.165  -1.236   0.718  0.00  0.00    +0.383 N 
ATOM     16  H   UNL     1      -2.833  -1.509   1.423  0.00  0.00    -0.085 HD
ATOM     17  H   UNL     1      -2.517  -0.437   0.213  0.00  0.00    -0.085 HD
BRANCH  15  19
ATOM     18  C   UNL     1      -1.099   0.308   2.291  0.00  0.00    -0.017 C 
ATOM     19  C   UNL     1      -0.890  -0.887   1.360  0.00  0.00    -0.085 C 
ENDBRANCH  15  19
ENDBRANCH  14  15
BRANCH  14  20
ATOM     20  C   UNL     1      -1.081  -1.883  -1.381  0.00  0.00    -0.008 C 
BRANCH  20  21
ATOM     21  C   UNL     1      -0.718  -3.082  -2.259  0.00  0.00    -0.018 C 
ATOM     22  C   UNL     1      -0.026  -2.590  -3.532  0.00  0.00    +0.007 C 
ATOM     23  C   UNL     1       0.226  -4.009  -1.491  0.00  0.00    +0.007 C 
ENDBRANCH  20  21
ENDBRANCH  14  20
ENDBRANCH   1  14
TORSDOF 5
