REMARK  Name = ZINC44551811
REMARK  2 active torsions:
REMARK  status: ('A' for Active; 'I' for Inactive)
REMARK    1  A    between atoms: C_4  and  O_16
REMARK    2  A    between atoms: C_5  and  C_7
REMARK                            x       y       z     vdW  Elec       q    Type
REMARK                         _______ _______ _______ _____ _____    ______ ____
ROOT
ATOM      1  C   UNL     1       1.248  -2.161  -0.023  0.00  0.00    +0.169 A 
ATOM      2  N   UNL     1       2.315  -2.926  -0.125  0.00  0.00    -0.127 NA
ATOM      3  N   UNL     1       1.971  -4.169  -0.097  0.00  0.00    -0.113 NA
ATOM      4  C   UNL     1       0.678  -4.267   0.024  0.00  0.00    +0.217 A 
ATOM      5  N   UNL     1       0.172  -2.995   0.079  0.00  0.00    -0.295 N 
ATOM      6  C   UNL     1      -1.249  -2.682   0.214  0.00  0.00    +0.128 C 
ATOM      7  C   UNL     1      -2.066  -3.918  -0.183  0.00  0.00    +0.040 C 
ATOM      8  C   UNL     1      -1.526  -5.155   0.543  0.00  0.00    +0.106 C 
ATOM      9  N   UNL     1      -0.135  -5.390   0.101  0.00  0.00    -0.313 N 
ATOM     10  H   UNL     1       0.192  -6.277  -0.115  0.00  0.00    +0.149 HD
ENDROOT
BRANCH   1  15
ATOM     11  C   UNL     1       0.450   1.378   0.949  0.00  0.00    +0.001 A 
ATOM     12  C   UNL     1       1.169   2.089   0.004  0.00  0.00    +0.004 A 
ATOM     13  C   UNL     1       1.915   1.425  -0.952  0.00  0.00    +0.046 A 
ATOM     14  C   UNL     1       1.946   0.040  -0.968  0.00  0.00    +0.128 A 
ATOM     15  C   UNL     1       1.221  -0.683  -0.014  0.00  0.00    +0.061 A 
ATOM     16  C   UNL     1       0.472  -0.001   0.946  0.00  0.00    +0.015 A 
BRANCH  14  17
ATOM     17  O   UNL     1       2.678  -0.614  -1.907  0.00  0.00    -0.506 OA
ATOM     18  H   UNL     1       3.590  -0.794  -1.640  0.00  0.00    +0.292 HD
ENDBRANCH  14  17
ENDBRANCH   1  15
TORSDOF 2
