REMARK  Name = ZINC35050957
REMARK  9 active torsions:
REMARK  status: ('A' for Active; 'I' for Inactive)
REMARK    1  A    between atoms: C_1  and  C_2
REMARK    2  A    between atoms: C_5  and  C_36
REMARK    3  A    between atoms: C_14  and  C_24
REMARK    4  A    between atoms: C_17  and  O_23
REMARK    5  A    between atoms: C_19  and  C_21
REMARK    6  A    between atoms: C_21  and  O_22
REMARK    7  A    between atoms: C_26  and  C_29
REMARK    8  A    between atoms: C_29  and  C_30
REMARK    9  A    between atoms: C_36  and  C_38
REMARK                            x       y       z     vdW  Elec       q    Type
REMARK                         _______ _______ _______ _____ _____    ______ ____
ROOT
ATOM      1  C   UNL     1      -0.010   1.536   0.009  0.00  0.00    +0.010 C 
ATOM      2  C   UNL     1      -0.000   0.006   0.003  0.00  0.00    +0.023 C 
ATOM      3  C   UNL     1      -1.411  -0.497   0.121  0.00  0.00    +0.048 C 
ATOM      4  C   UNL     1      -1.786  -1.049   1.468  0.00  0.00    +0.123 C 
ATOM      5  C   UNL     1      -1.027  -0.614   2.704  0.00  0.00    +0.170 C 
ATOM      6  C   UNL     1       0.279   0.175   2.411  0.00  0.00    +0.077 C 
ATOM      7  C   UNL     1       0.867  -0.501   1.178  0.00  0.00    +0.096 C 
ATOM      8  C   UNL     1       2.290  -0.066   0.787  0.00  0.00    +0.085 C 
ATOM      9  C   UNL     1       2.640  -1.074  -0.333  0.00  0.00    -0.011 C 
ATOM     10  C   UNL     1       3.211  -2.155   0.220  0.00  0.00    -0.009 C 
ATOM     11  C   UNL     1       3.343  -1.988   1.691  0.00  0.00    +0.191 C 
ATOM     12  O   UNL     1       3.426  -2.833   2.558  0.00  0.00    -0.289 OA
ATOM     13  C   UNL     1       3.342  -0.502   1.819  0.00  0.00    +0.140 C 
ATOM     14  C   UNL     1       3.468   0.305   3.049  0.00  0.00    +0.076 C 
ATOM     15  C   UNL     1       2.277   0.126   3.946  0.00  0.00    -0.045 C 
ATOM     16  C   UNL     1       1.083   0.025   3.653  0.00  0.00    -0.016 C 
ATOM     17  C   UNL     1       3.658  -3.373  -0.546  0.00  0.00    +0.047 C 
ATOM     18  O   UNL     1       0.821  -1.915   1.296  0.00  0.00    -0.318 OA
ATOM     19  C   UNL     1      -0.208  -2.570   2.020  0.00  0.00    +0.291 C 
ATOM     20  O   UNL     1      -0.487  -1.862   3.255  0.00  0.00    -0.319 OA
ATOM     21  O   UNL     1      -1.478  -2.478   1.344  0.00  0.00    -0.313 OA
ENDROOT
BRANCH   4  22
ATOM     22  C   UNL     1      -3.265  -0.867   1.697  0.00  0.00    -0.046 C 
ATOM     23  C   UNL     1      -4.032  -1.912   1.885  0.00  0.00    +0.010 C 
ATOM     24  C   UNL     1      -3.861   0.517   1.710  0.00  0.00    +0.041 C 
ENDBRANCH   4  22
BRANCH  13  25
ATOM     25  O   UNL     1       4.540  -0.161   1.117  0.00  0.00    -0.380 OA
ATOM     26  H   UNL     1       5.351  -0.359   1.604  0.00  0.00    +0.211 HD
ENDBRANCH  13  25
BRANCH  15  27
ATOM     27  C   UNL     1       2.588   0.043   5.418  0.00  0.00    +0.186 C 
BRANCH  27  28
ATOM     28  O   UNL     1       1.395  -0.266   6.140  0.00  0.00    -0.391 OA
ATOM     29  H   UNL     1       1.520  -0.336   7.096  0.00  0.00    +0.210 HD
ENDBRANCH  27  28
ENDBRANCH  15  27
BRANCH  19  30
ATOM     30  C   UNL     1       0.169  -4.026   2.300  0.00  0.00    +0.133 C 
BRANCH  30  31
ATOM     31  C   UNL     1      -0.942  -4.694   3.069  0.00  0.00    -0.040 A 
ATOM     32  C   UNL     1      -0.941  -4.664   4.451  0.00  0.00    +0.004 A 
ATOM     33  C   UNL     1      -1.960  -5.276   5.156  0.00  0.00    +0.000 A 
ATOM     34  C   UNL     1      -2.981  -5.918   4.480  0.00  0.00    +0.000 A 
ATOM     35  C   UNL     1      -2.982  -5.947   3.098  0.00  0.00    +0.000 A 
ATOM     36  C   UNL     1      -1.966  -5.330   2.392  0.00  0.00    +0.004 A 
ENDBRANCH  30  31
ENDBRANCH  19  30
TORSDOF 6
