REMARK  Name = ZINC09390623
REMARK  5 active torsions:
REMARK  status: ('A' for Active; 'I' for Inactive)
REMARK    1  A    between atoms: C_1  and  C_2
REMARK    2  A    between atoms: C_2  and  N_53
REMARK    3  A    between atoms: C_8  and  N_13
REMARK    4  A    between atoms: C_9  and  C_10
REMARK    5  A    between atoms: C_14  and  C_16
REMARK                            x       y       z     vdW  Elec       q    Type
REMARK                         _______ _______ _______ _____ _____    ______ ____
ROOT
ATOM      1  N   UNL     1      -3.708   7.574   0.078  0.00  0.00    -0.275 N 
ATOM      2  C   UNL     1      -2.514   8.198   0.070  0.00  0.00    +0.256 C 
ATOM      3  O   UNL     1      -2.463   9.414   0.075  0.00  0.00    -0.270 OA
ATOM      4  H   UNL     1      -3.749   6.604   0.074  0.00  0.00    +0.156 HD
ENDROOT
BRANCH   2   5
ATOM      5  C   UNL     1      -1.272   7.410   0.054  0.00  0.00    +0.122 A 
ATOM      6  C   UNL     1      -1.312   6.021   0.046  0.00  0.00    +0.032 A 
ATOM      7  C   UNL     1      -0.098   5.309   0.032  0.00  0.00    +0.026 A 
ATOM      8  C   UNL     1      -0.094   3.844   0.024  0.00  0.00    -0.007 A 
ATOM      9  C   UNL     1      -1.282   3.109   0.031  0.00  0.00    +0.009 A 
ATOM     10  C   UNL     1      -1.232   1.745   0.017  0.00  0.00    +0.001 A 
ATOM     11  C   UNL     1      -0.013   1.076   0.008  0.00  0.00    +0.001 A 
ATOM     12  C   UNL     1       1.164   1.764   0.000  0.00  0.00    +0.008 A 
ATOM     13  C   UNL     1       1.149   3.167   0.008  0.00  0.00    -0.017 A 
ATOM     14  C   UNL     1       2.344   3.913   0.001  0.00  0.00    +0.012 A 
ATOM     15  C   UNL     1       2.325   5.269   0.008  0.00  0.00    +0.047 A 
ATOM     16  C   UNL     1       1.126   5.992   0.024  0.00  0.00    +0.140 A 
ATOM     17  O   UNL     1       1.161   7.341   0.030  0.00  0.00    -0.422 OA
ATOM     18  C   UNL     1       0.035   8.073   0.045  0.00  0.00    +0.350 A 
ATOM     19  O   UNL     1       0.101   9.289   0.050  0.00  0.00    -0.244 OA
ENDBRANCH   2   5
BRANCH   1  25
ATOM     20  C   UNL     1      -9.486   9.792   0.588  0.00  0.00    -0.074 C 
ATOM     21  C   UNL     1      -8.735   8.536   0.135  0.00  0.00    +0.018 C 
ATOM     22  C   UNL     1      -7.244   8.855   0.119  0.00  0.00    -0.027 A 
ATOM     23  C   UNL     1      -6.825  10.140   0.121  0.00  0.00    -0.021 A 
ATOM     24  S   UNL     1      -5.059  10.039   0.110  0.00  0.00    -0.079 S 
ATOM     25  C   UNL     1      -4.878   8.316   0.093  0.00  0.00    +0.085 A 
ATOM     26  C   UNL     1      -6.189   7.859   0.103  0.00  0.00    +0.068 A 
ATOM     27  C   UNL     1      -7.694  11.359   0.133  0.00  0.00    -0.035 C 
ATOM     28  N   UNL     1      -9.067  10.940  -0.242  0.00  0.00    +0.383 N 
ATOM     29  H   UNL     1      -9.072  10.658  -1.229  0.00  0.00    -0.081 HD
BRANCH  26  30
ATOM     30  C   UNL     1      -6.496   6.425   0.099  0.00  0.00    +0.244 C 
ATOM     31  O   UNL     1      -6.613   5.825   1.151  0.00  0.00    -0.270 OA
ATOM     32  N   UNL     1      -6.649   5.772  -1.071  0.00  0.00    -0.325 N 
ATOM     33  H   UNL     1      -6.556   6.251  -1.909  0.00  0.00    +0.145 HD
ATOM     34  H   UNL     1      -6.852   4.824  -1.074  0.00  0.00    +0.145 HD
ENDBRANCH  26  30
BRANCH  28  36
ATOM     35  C   UNL     1     -10.106  12.445   1.420  0.00  0.00    -0.017 C 
ATOM     36  C   UNL     1     -10.007  12.066  -0.059  0.00  0.00    -0.082 C 
ENDBRANCH  28  36
ENDBRANCH   1  25
TORSDOF 4
