REMARK  Name = ZINC39862146
REMARK  7 active torsions:
REMARK  status: ('A' for Active; 'I' for Inactive)
REMARK    1  A    between atoms: C_6  and  C_7
REMARK    2  A    between atoms: C_10  and  C_12
REMARK    3  A    between atoms: N_16  and  C_20
REMARK    4  A    between atoms: C_20  and  C_22
REMARK    5  A    between atoms: C_20  and  C_27
REMARK    6  A    between atoms: C_22  and  C_23
REMARK    7  A    between atoms: C_23  and  C_24
REMARK                            x       y       z     vdW  Elec       q    Type
REMARK                         _______ _______ _______ _____ _____    ______ ____
ROOT
ATOM      1  C   UNL     1      -4.816  -1.050   0.036  0.00  0.00    +0.066 C 
ATOM      2  C   UNL     1      -5.354   0.200   0.145  0.00  0.00    +0.080 C 
ATOM      3  C   UNL     1      -4.703   1.471   0.157  0.00  0.00    +0.259 C 
ATOM      4  O   UNL     1      -3.491   1.556   0.061  0.00  0.00    -0.269 OA
ATOM      5  N   UNL     1      -5.454   2.552   0.273  0.00  0.00    -0.241 N 
ATOM      6  C   UNL     1      -6.798   2.457   0.378  0.00  0.00    +0.121 C 
ATOM      7  S   UNL     1      -7.953   3.711   0.536  0.00  0.00    -0.027 S 
ATOM      8  S   UNL     1      -7.065   0.693   0.303  0.00  0.00    -0.061 S 
ENDROOT
BRANCH   1  12
ATOM      9  C   UNL     1      -1.364  -0.738  -0.793  0.00  0.00    +0.136 A 
ATOM     10  C   UNL     1      -1.425  -2.090  -0.603  0.00  0.00    +0.050 A 
ATOM     11  C   UNL     1      -2.744  -2.399  -0.261  0.00  0.00    +0.050 A 
ATOM     12  C   UNL     1      -3.445  -1.205  -0.257  0.00  0.00    +0.130 A 
ATOM     13  O   UNL     1      -2.585  -0.215  -0.577  0.00  0.00    -0.455 OA
BRANCH   9  19
ATOM     14  C   UNL     1      -0.224   1.410  -1.328  0.00  0.00    +0.013 A 
ATOM     15  C   UNL     1       0.908   2.116  -1.678  0.00  0.00    +0.022 A 
ATOM     16  C   UNL     1       2.108   1.455  -1.873  0.00  0.00    +0.059 A 
ATOM     17  C   UNL     1       2.182   0.079  -1.716  0.00  0.00    +0.060 A 
ATOM     18  C   UNL     1       1.057  -0.639  -1.365  0.00  0.00    +0.033 A 
ATOM     19  C   UNL     1      -0.157   0.024  -1.168  0.00  0.00    +0.019 A 
ATOM     20 CL   UNL     1       3.692  -0.741  -1.962  0.00  0.00    -0.082 Cl
ATOM     21 CL   UNL     1       3.528   2.352  -2.315  0.00  0.00    -0.082 Cl
ENDBRANCH   9  19
ENDBRANCH   1  12
BRANCH   5  22
ATOM     22  C   UNL     1      -4.821   3.873   0.289  0.00  0.00    +0.196 C 
BRANCH  22  23
ATOM     23  C   UNL     1      -5.341   4.694  -0.863  0.00  0.00    +0.376 C 
ATOM     24  O   UNL     1      -6.291   4.295  -1.515  0.00  0.00    -0.244 OA
ATOM     25  O   UNL     1      -4.813   5.757  -1.142  0.00  0.00    -0.244 OA
ENDBRANCH  22  23
BRANCH  22  26
ATOM     26  C   UNL     1      -5.146   4.579   1.607  0.00  0.00    +0.044 C 
BRANCH  26  27
ATOM     27  C   UNL     1      -4.511   3.811   2.768  0.00  0.00    +0.098 C 
BRANCH  27  28
ATOM     28  C   UNL     1      -4.831   4.506   4.066  0.00  0.00    +0.211 C 
ATOM     29  O   UNL     1      -5.503   5.517   4.062  0.00  0.00    -0.276 OA
ATOM     30  N   UNL     1      -4.373   4.006   5.230  0.00  0.00    -0.329 N 
ATOM     31  H   UNL     1      -3.836   3.198   5.232  0.00  0.00    +0.145 HD
ATOM     32  H   UNL     1      -4.579   4.453   6.065  0.00  0.00    +0.145 HD
ENDBRANCH  27  28
ENDBRANCH  26  27
ENDBRANCH  22  26
ENDBRANCH   5  22
TORSDOF 7
