REMARK  Name = ZINC51357897
REMARK  5 active torsions:
REMARK  status: ('A' for Active; 'I' for Inactive)
REMARK    1  A    between atoms: C_1  and  C_2
REMARK    2  A    between atoms: C_2  and  C_3
REMARK    3  A    between atoms: C_2  and  N_4
REMARK    4  A    between atoms: C_8  and  C_9
REMARK    5  A    between atoms: C_15  and  C_17
REMARK                            x       y       z     vdW  Elec       q    Type
REMARK                         _______ _______ _______ _____ _____    ______ ____
ROOT
ATOM      1  C   UNL     1      -1.224  -1.975  -2.057  0.00  0.00    +0.263 C 
ATOM      2  O   UNL     1      -1.869  -2.526  -2.930  0.00  0.00    -0.268 OA
ATOM      3  N   UNL     1       0.104  -1.801  -2.208  0.00  0.00    -0.295 N 
ATOM      4  C   UNL     1       0.999  -1.142  -1.240  0.00  0.00    +0.108 C 
ATOM      5  C   UNL     1       2.201  -0.649  -2.084  0.00  0.00    +0.021 C 
ATOM      6  C   UNL     1       2.357  -1.804  -3.108  0.00  0.00    +0.022 C 
ATOM      7  C   UNL     1       0.900  -2.243  -3.361  0.00  0.00    +0.062 C 
ENDROOT
BRANCH   7   8
ATOM      8  C   UNL     1       0.828  -3.766  -3.491  0.00  0.00    -0.051 C 
ATOM      9  C   UNL     1       1.307  -4.427  -2.181  0.00  0.00    -0.016 C 
ATOM     10  C   UNL     1       2.100  -5.662  -2.682  0.00  0.00    -0.021 C 
ATOM     11  C   UNL     1       2.753  -5.111  -3.975  0.00  0.00    -0.082 C 
ATOM     12  N   UNL     1       1.727  -4.221  -4.567  0.00  0.00    +0.382 N 
ATOM     13  H   UNL     1       1.196  -4.726  -5.261  0.00  0.00    -0.085 HD
ATOM     14  H   UNL     1       2.174  -3.425  -4.996  0.00  0.00    -0.085 HD
ENDBRANCH   7   8
BRANCH   1  19
ATOM     15  N   UNL     1      -3.251  -1.459  -0.622  0.00  0.00    -0.339 N 
ATOM     16  C   UNL     1      -3.476  -0.964   0.620  0.00  0.00    +0.106 A 
ATOM     17  C   UNL     1      -2.284  -0.681   1.201  0.00  0.00    +0.059 A 
ATOM     18  C   UNL     1      -1.274  -1.011   0.291  0.00  0.00    +0.052 A 
ATOM     19  C   UNL     1      -1.893  -1.500  -0.841  0.00  0.00    +0.106 A 
ATOM     20 CL   UNL     1      -2.052  -0.027   2.792  0.00  0.00    -0.082 Cl
BRANCH  15  22
ATOM     21  C   UNL     1      -5.013  -3.109  -1.015  0.00  0.00    +0.030 C 
ATOM     22  C   UNL     1      -4.282  -1.885  -1.571  0.00  0.00    +0.081 C 
ATOM     23  C   UNL     1      -5.282  -0.747  -1.783  0.00  0.00    +0.030 C 
ENDBRANCH  15  22
ENDBRANCH   1  19
TORSDOF 3
