REMARK  Name = ZINC63677414
REMARK  1 active torsions:
REMARK  status: ('A' for Active; 'I' for Inactive)
REMARK    1  A    between atoms: C_11  and  C_23
REMARK                            x       y       z     vdW  Elec       q    Type
REMARK                         _______ _______ _______ _____ _____    ______ ____
ROOT
ATOM      1  C   UNL     1      -0.017   1.393   0.010  0.00  0.00    +0.001 A 
ATOM      2  C   UNL     1       1.140   2.137   0.003  0.00  0.00    +0.001 A 
ATOM      3  C   UNL     1       2.403   1.535  -0.011  0.00  0.00    +0.012 A 
ATOM      4  C   UNL     1       2.437   0.154  -0.018  0.00  0.00    +0.031 A 
ATOM      5  C   UNL     1       1.246  -0.615  -0.013  0.00  0.00    +0.007 A 
ATOM      6  C   UNL     1       0.002  -0.004   0.002  0.00  0.00    +0.010 A 
ATOM      7  C   UNL     1       1.643  -2.027  -0.027  0.00  0.00    +0.047 C 
ATOM      8  C   UNL     1       3.009  -2.110  -0.041  0.00  0.00    +0.030 C 
ATOM      9  C   UNL     1       3.562  -0.805  -0.031  0.00  0.00    +0.192 C 
ATOM     10  O   UNL     1       4.745  -0.526  -0.035  0.00  0.00    -0.287 OA
ATOM     11  C   UNL     1       3.771  -3.415  -0.066  0.00  0.00    +0.073 C 
ATOM     12  C   UNL     1       2.830  -4.537   0.395  0.00  0.00    +0.148 C 
ATOM     13  C   UNL     1       1.482  -4.343  -0.252  0.00  0.00    +0.106 C 
ATOM     14  N   UNL     1       0.936  -5.251  -1.003  0.00  0.00    -0.151 NA
ATOM     15  C   UNL     1       1.531  -6.421  -1.270  0.00  0.00    +0.331 C 
ATOM     16  O   UNL     1       0.958  -7.232  -1.974  0.00  0.00    -0.250 OA
ATOM     17  N   UNL     1       2.744  -6.722  -0.780  0.00  0.00    -0.238 N 
ATOM     18  C   UNL     1       3.405  -5.868   0.005  0.00  0.00    +0.231 C 
ATOM     19  O   UNL     1       4.502  -6.183   0.416  0.00  0.00    -0.275 OA
ATOM     20  N   UNL     1       0.832  -3.152  -0.028  0.00  0.00    -0.303 N 
ATOM     21  H   UNL     1       3.148  -7.575  -1.005  0.00  0.00    +0.159 HD
ATOM     22  H   UNL     1      -0.126  -3.102   0.119  0.00  0.00    +0.153 HD
ENDROOT
BRANCH  11  23
ATOM     23  C   UNL     1       4.250  -3.694  -1.468  0.00  0.00    -0.039 A 
ATOM     24  C   UNL     1       3.337  -3.817  -2.498  0.00  0.00    +0.005 A 
ATOM     25  C   UNL     1       3.776  -4.073  -3.784  0.00  0.00    +0.015 A 
ATOM     26  C   UNL     1       5.129  -4.205  -4.039  0.00  0.00    +0.018 A 
ATOM     27  C   UNL     1       6.042  -4.082  -3.007  0.00  0.00    +0.015 A 
ATOM     28  C   UNL     1       5.603  -3.821  -1.723  0.00  0.00    +0.005 A 
ATOM     29 BR   UNL     1       5.730  -4.556  -5.797  0.00  0.00    -0.050 Br
ENDBRANCH  11  23
TORSDOF 1
