REMARK  Name = ZINC35664938
REMARK  14 active torsions:
REMARK  status: ('A' for Active; 'I' for Inactive)
REMARK    1  A    between atoms: C_1  and  C_2
REMARK    2  A    between atoms: C_2  and  C_3
REMARK    3  A    between atoms: C_2  and  C_4
REMARK    4  A    between atoms: C_4  and  C_5
REMARK    5  A    between atoms: C_14  and  C_31
REMARK    6  A    between atoms: N_18  and  C_19
REMARK    7  A    between atoms: C_19  and  C_20
REMARK    8  A    between atoms: C_20  and  C_21
REMARK    9  A    between atoms: C_24  and  O_29
REMARK   10  A    between atoms: C_25  and  O_27
REMARK   11  A    between atoms: O_27  and  C_28
REMARK   12  A    between atoms: O_29  and  C_30
REMARK   13  A    between atoms: C_31  and  C_32
REMARK   14  A    between atoms: C_31  and  C_33
REMARK                            x       y       z     vdW  Elec       q    Type
REMARK                         _______ _______ _______ _____ _____    ______ ____
ROOT
ATOM      1  C   UNL     1      -1.202  -2.128   0.321  0.00  0.00    +0.216 C 
ATOM      2  O   UNL     1      -0.161  -2.750   0.331  0.00  0.00    -0.276 OA
ATOM      3  N   UNL     1      -2.373  -2.776   0.163  0.00  0.00    -0.301 N 
ATOM      4  C   UNL     1      -3.641  -2.034   0.143  0.00  0.00    +0.108 C 
ATOM      5  C   UNL     1      -4.403  -2.396  -1.137  0.00  0.00    +0.025 C 
ATOM      6  C   UNL     1      -4.551  -3.913  -1.227  0.00  0.00    +0.006 C 
ATOM      7  C   UNL     1      -3.177  -4.580  -1.270  0.00  0.00    +0.025 C 
ATOM      8  C   UNL     1      -2.405  -4.236   0.003  0.00  0.00    +0.108 C 
ATOM      9  N   UNL     1      -5.316  -4.269  -2.440  0.00  0.00    +0.401 N 
ATOM     10  C   UNL     1      -6.714  -4.336  -1.948  0.00  0.00    +0.022 C 
ATOM     11  C   UNL     1      -6.590  -4.668  -0.477  0.00  0.00    +0.201 C 
ATOM     12  O   UNL     1      -7.479  -5.088   0.232  0.00  0.00    -0.277 OA
ATOM     13  N   UNL     1      -5.323  -4.416  -0.087  0.00  0.00    -0.313 N 
ATOM     14  H   UNL     1      -5.221  -3.553  -3.144  0.00  0.00    -0.082 HD
ATOM     15  H   UNL     1      -5.021  -5.165  -2.798  0.00  0.00    -0.082 HD
ENDROOT
BRANCH  10  16
ATOM     16  C   UNL     1      -7.484  -5.436  -2.681  0.00  0.00    -0.023 C 
ATOM     17  C   UNL     1      -8.921  -5.488  -2.159  0.00  0.00    +0.006 C 
ATOM     18  C   UNL     1      -7.498  -5.137  -4.181  0.00  0.00    +0.006 C 
ENDBRANCH  10  16
BRANCH   1  19
ATOM     19  C   UNL     1      -1.185  -0.629   0.484  0.00  0.00    +0.099 C 
BRANCH  19  21
ATOM     20  C   UNL     1       0.287   1.379   0.683  0.00  0.00    +0.008 C 
ATOM     21  C   UNL     1       0.259  -0.150   0.643  0.00  0.00    -0.008 C 
ATOM     22  C   UNL     1       0.840  -0.705   1.945  0.00  0.00    +0.008 C 
ENDBRANCH  19  21
ENDBRANCH   1  19
BRANCH  13  23
ATOM     23  C   UNL     1      -4.799  -4.614   1.267  0.00  0.00    +0.110 C 
BRANCH  23  24
ATOM     24  C   UNL     1      -4.292  -6.050   1.413  0.00  0.00    +0.054 C 
BRANCH  24  25
ATOM     25  C   UNL     1      -3.706  -6.239   2.788  0.00  0.00    -0.042 A 
ATOM     26  C   UNL     1      -2.366  -5.982   3.008  0.00  0.00    +0.007 A 
ATOM     27  C   UNL     1      -1.824  -6.154   4.268  0.00  0.00    +0.049 A 
ATOM     28  C   UNL     1      -2.624  -6.584   5.314  0.00  0.00    +0.161 A 
ATOM     29  C   UNL     1      -3.974  -6.842   5.093  0.00  0.00    +0.162 A 
ATOM     30  C   UNL     1      -4.512  -6.663   3.828  0.00  0.00    +0.053 A 
BRANCH  29  31
ATOM     31  O   UNL     1      -4.764  -7.264   6.116  0.00  0.00    -0.491 OA
ATOM     32  C   UNL     1      -6.139  -7.509   5.815  0.00  0.00    +0.277 C 
ENDBRANCH  29  31
BRANCH  28  33
ATOM     33  O   UNL     1      -2.092  -6.754   6.554  0.00  0.00    -0.491 OA
ATOM     34  C   UNL     1      -0.700  -6.471   6.707  0.00  0.00    +0.277 C 
ENDBRANCH  28  33
ENDBRANCH  24  25
ENDBRANCH  23  24
ENDBRANCH  13  23
TORSDOF 8
