REMARK  Name = ZINC18129430
REMARK  11 active torsions:
REMARK  status: ('A' for Active; 'I' for Inactive)
REMARK    1  A    between atoms: C_1  and  C_2
REMARK    2  A    between atoms: C_2  and  C_3
REMARK    3  A    between atoms: C_8  and  N_9
REMARK    4  A    between atoms: C_10  and  C_12
REMARK    5  A    between atoms: C_12  and  N_63
REMARK    6  A    between atoms: C_18  and  C_20
REMARK    7  A    between atoms: C_23  and  O_28
REMARK    8  A    between atoms: C_24  and  O_26
REMARK    9  A    between atoms: O_26  and  C_27
REMARK   10  A    between atoms: O_28  and  C_29
REMARK   11  A    between atoms: C_29  and  C_30
REMARK                            x       y       z     vdW  Elec       q    Type
REMARK                         _______ _______ _______ _____ _____    ______ ____
ROOT
ATOM      1  C   UNL     1       2.254  -6.918   0.794  0.00  0.00    -0.059 C 
ATOM      2  C   UNL     1       1.271  -6.374  -0.248  0.00  0.00    +0.089 C 
ATOM      3  N   UNL     1       1.245  -4.907  -0.144  0.00  0.00    -0.301 N 
ATOM      4  C   UNL     1       2.526  -4.185  -0.175  0.00  0.00    +0.089 C 
ATOM      5  C   UNL     1       3.460  -4.815   0.870  0.00  0.00    -0.059 C 
ATOM      6  C   UNL     1       0.078  -4.242  -0.030  0.00  0.00    +0.247 C 
ATOM      7  O   UNL     1      -0.964  -4.858   0.087  0.00  0.00    -0.270 OA
ATOM      8  N   UNL     1       3.566  -6.265   0.595  0.00  0.00    +0.387 N 
ATOM      9  H   UNL     1       3.860  -6.398  -0.380  0.00  0.00    -0.081 HD
ENDROOT
BRANCH   6  10
ATOM     10  C   UNL     1       0.065  -2.766  -0.048  0.00  0.00    +0.041 A 
ATOM     11  C   UNL     1       1.001  -2.067  -0.814  0.00  0.00    +0.017 A 
ATOM     12  C   UNL     1       0.987  -0.689  -0.830  0.00  0.00    +0.050 A 
ATOM     13  C   UNL     1       0.045   0.007  -0.085  0.00  0.00    +0.162 A 
ATOM     14  C   UNL     1      -0.889  -0.684   0.686  0.00  0.00    +0.162 A 
ATOM     15  C   UNL     1      -0.884  -2.066   0.702  0.00  0.00    +0.062 A 
BRANCH  14  16
ATOM     16  O   UNL     1      -1.807   0.001   1.419  0.00  0.00    -0.491 OA
ATOM     17  C   UNL     1      -2.733  -0.772   2.185  0.00  0.00    +0.277 C 
ENDBRANCH  14  16
BRANCH  13  18
ATOM     18  O   UNL     1       0.036   1.365  -0.103  0.00  0.00    -0.484 OA
BRANCH  18  19
ATOM     19  C   UNL     1       1.024   2.010  -0.910  0.00  0.00    +0.256 C 
BRANCH  19  20
ATOM     20  C   UNL     1       0.860   3.504  -0.806  0.00  0.00    +0.006 C 
ATOM     21  C   UNL     1       1.910   4.268  -0.635  0.00  0.00    +0.007 C 
ENDBRANCH  19  20
ENDBRANCH  18  19
ENDBRANCH  13  18
ENDBRANCH   6  10
BRANCH   8  22
ATOM     22  C   UNL     1       4.573  -6.875   1.488  0.00  0.00    +0.019 C 
BRANCH  22  24
ATOM     23  N   UNL     1       4.946  -7.217   3.909  0.00  0.00    -0.287 N 
ATOM     24  C   UNL     1       4.196  -6.669   2.932  0.00  0.00    +0.201 C 
ATOM     25  O   UNL     1       3.217  -6.011   3.216  0.00  0.00    -0.278 OA
ATOM     26  H   UNL     1       5.763  -7.689   3.686  0.00  0.00    +0.155 HD
BRANCH  23  32
ATOM     27  C   UNL     1       4.950  -8.051   6.176  0.00  0.00    -0.026 A 
ATOM     28  C   UNL     1       4.553  -7.936   7.494  0.00  0.00    +0.005 A 
ATOM     29  C   UNL     1       3.754  -6.878   7.887  0.00  0.00    +0.000 A 
ATOM     30  C   UNL     1       3.350  -5.932   6.963  0.00  0.00    +0.002 A 
ATOM     31  C   UNL     1       3.747  -6.039   5.644  0.00  0.00    +0.023 A 
ATOM     32  C   UNL     1       4.545  -7.103   5.245  0.00  0.00    +0.036 A 
BRANCH  27  34
ATOM     33  C   UNL     1       7.288  -8.770   5.771  0.00  0.00    +0.009 C 
ATOM     34  C   UNL     1       5.822  -9.204   5.748  0.00  0.00    +0.033 C 
ENDBRANCH  27  34
ENDBRANCH  23  32
ENDBRANCH  22  24
ENDBRANCH   8  22
TORSDOF 9
