REMARK  Name = ZINC40464476
REMARK  8 active torsions:
REMARK  status: ('A' for Active; 'I' for Inactive)
REMARK    1  A    between atoms: C_1  and  N_2
REMARK    2  A    between atoms: N_2  and  C_3
REMARK    3  A    between atoms: C_3  and  C_4
REMARK    4  A    between atoms: C_10  and  C_12
REMARK    5  A    between atoms: C_12  and  C_14
REMARK    6  A    between atoms: C_12  and  N_22
REMARK    7  A    between atoms: C_14  and  C_15
REMARK    8  A    between atoms: C_18  and  O_21
REMARK                            x       y       z     vdW  Elec       q    Type
REMARK                         _______ _______ _______ _____ _____    ______ ____
ROOT
ATOM      1  C   UNL     1      -0.023   0.089  -2.470  0.00  0.00    +0.017 C 
ENDROOT
BRANCH   1   4
ATOM      2  C   UNL     1      -0.018   1.461   0.010  0.00  0.00    +0.132 C 
ATOM      3  N   UNL     1       0.002  -0.004   0.002  0.00  0.00    -0.301 N 
ATOM      4  C   UNL     1       0.000  -0.672  -1.169  0.00  0.00    +0.201 C 
ATOM      5  O   UNL     1       0.017  -1.884  -1.175  0.00  0.00    -0.277 OA
BRANCH   3   6
ATOM      6  C   UNL     1       0.024  -0.743   1.267  0.00  0.00    +0.149 C 
BRANCH   6   7
ATOM      7  C   UNL     1      -1.389  -1.016   1.714  0.00  0.00    +0.008 A 
ATOM      8  C   UNL     1      -2.180  -2.082   1.440  0.00  0.00    +0.014 A 
ATOM      9  C   UNL     1      -3.459  -2.121   1.964  0.00  0.00    +0.028 A 
ATOM     10  C   UNL     1      -3.883  -1.090   2.737  0.00  0.00    +0.078 A 
ATOM     11  S   UNL     1      -2.452  -0.022   2.748  0.00  0.00    -0.080 S 
ATOM     12 CL   UNL     1      -5.418  -0.869   3.518  0.00  0.00    -0.076 Cl
ENDBRANCH   6   7
ENDBRANCH   3   6
ENDBRANCH   1   4
BRANCH   1  13
ATOM     13  N   UNL     1       0.453  -0.781  -3.554  0.00  0.00    +0.386 N 
ATOM     14  H   UNL     1      -0.148  -1.588  -3.626  0.00  0.00    -0.089 HD
ATOM     15  H   UNL     1       0.438  -0.272  -4.425  0.00  0.00    -0.089 HD
ATOM     16  H   UNL     1       1.396  -1.081  -3.356  0.00  0.00    -0.089 HD
ENDBRANCH   1  13
BRANCH   1  17
ATOM     17  C   UNL     1      -1.452   0.543  -2.770  0.00  0.00    +0.028 C 
BRANCH  17  18
ATOM     18  C   UNL     1      -1.456   1.407  -4.005  0.00  0.00    -0.048 A 
ATOM     19  C   UNL     1      -1.286   2.774  -3.891  0.00  0.00    +0.007 A 
ATOM     20  C   UNL     1      -1.290   3.568  -5.022  0.00  0.00    +0.045 A 
ATOM     21  C   UNL     1      -1.463   2.992  -6.272  0.00  0.00    +0.117 A 
ATOM     22  C   UNL     1      -1.633   1.620  -6.383  0.00  0.00    +0.045 A 
ATOM     23  C   UNL     1      -1.624   0.830  -5.250  0.00  0.00    +0.007 A 
BRANCH  21  24
ATOM     24  O   UNL     1      -1.468   3.771  -7.386  0.00  0.00    -0.507 OA
ATOM     25  H   UNL     1      -0.595   3.895  -7.782  0.00  0.00    +0.292 HD
ENDBRANCH  21  24
ENDBRANCH  17  18
ENDBRANCH   1  17
TORSDOF 7
