REMARK  Name = ZINC43401427
REMARK  4 active torsions:
REMARK  status: ('A' for Active; 'I' for Inactive)
REMARK    1  A    between atoms: C_1  and  C_2
REMARK    2  A    between atoms: C_5  and  C_17
REMARK    3  A    between atoms: C_6  and  O_8
REMARK    4  A    between atoms: O_8  and  C_9
REMARK                            x       y       z     vdW  Elec       q    Type
REMARK                         _______ _______ _______ _____ _____    ______ ____
ROOT
ATOM      1  C   UNL     1      -0.510   1.457   0.158  0.00  0.00    +0.066 C 
ATOM      2  C   UNL     1      -0.364  -0.042   0.104  0.00  0.00    +0.042 A 
ATOM      3  C   UNL     1      -0.434  -0.688  -1.117  0.00  0.00    +0.024 A 
ATOM      4  C   UNL     1      -0.300  -2.065  -1.167  0.00  0.00    +0.018 A 
ATOM      5  C   UNL     1      -0.097  -2.757   0.031  0.00  0.00    +0.074 A 
ATOM      6  C   UNL     1      -0.038  -2.031   1.230  0.00  0.00    +0.231 A 
ATOM      7  N   UNL     1      -0.167  -0.714   1.222  0.00  0.00    -0.217 NA
ENDROOT
BRANCH   5   8
ATOM      8  C   UNL     1       0.052  -4.226   0.035  0.00  0.00    +0.099 C 
ATOM      9  N   UNL     1      -0.895  -4.993  -0.504  0.00  0.00    -0.387 N 
ATOM     10  N   UNL     1       1.134  -4.785   0.577  0.00  0.00    -0.344 N 
ATOM     11  H   UNL     1      -1.715  -4.593  -0.833  0.00  0.00    +0.157 HD
ATOM     12  H   UNL     1       1.823  -4.226   0.970  0.00  0.00    +0.144 HD
ATOM     13  H   UNL     1       1.232  -5.750   0.580  0.00  0.00    +0.144 HD
ATOM     14  H   UNL     1      -0.764  -5.952  -0.568  0.00  0.00    +0.157 HD
ENDBRANCH   5   8
BRANCH   6  15
ATOM     15  O   UNL     1       0.158  -2.680   2.401  0.00  0.00    -0.436 OA
BRANCH  15  16
ATOM     16  C   UNL     1       0.102  -1.956   3.550  0.00  0.00    +0.144 A 
ATOM     17  C   UNL     1       1.266  -1.445   4.107  0.00  0.00    +0.049 A 
ATOM     18  C   UNL     1       1.206  -0.709   5.274  0.00  0.00    +0.023 A 
ATOM     19  C   UNL     1      -0.012  -0.481   5.889  0.00  0.00    +0.042 A 
ATOM     20  C   UNL     1      -1.174  -0.990   5.336  0.00  0.00    +0.039 A 
ATOM     21  C   UNL     1      -1.120  -1.721   4.165  0.00  0.00    +0.062 A 
ATOM     22 BR   UNL     1      -2.709  -2.410   3.405  0.00  0.00    -0.046 Br
ATOM     23 CL   UNL     1      -0.083   0.445   7.356  0.00  0.00    -0.084 Cl
ENDBRANCH  15  16
ENDBRANCH   6  15
TORSDOF 3
