REMARK  Name = ZINC39500384
REMARK  7 active torsions:
REMARK  status: ('A' for Active; 'I' for Inactive)
REMARK    1  A    between atoms: C_1  and  C_2
REMARK    2  A    between atoms: C_8  and  C_10
REMARK    3  A    between atoms: C_16  and  C_18
REMARK    4  A    between atoms: C_18  and  C_19
REMARK    5  A    between atoms: C_19  and  S_20
REMARK    6  A    between atoms: S_20  and  C_21
REMARK    7  A    between atoms: N_26  and  C_27
REMARK                            x       y       z     vdW  Elec       q    Type
REMARK                         _______ _______ _______ _____ _____    ______ ____
ROOT
ATOM      1  C   UNL     1       0.051  -2.693   2.513  0.00  0.00    +0.041 C 
ATOM      2  C   UNL     1      -1.201  -2.315   3.308  0.00  0.00    +0.028 C 
ATOM      3  C   UNL     1      -1.199  -3.065   4.643  0.00  0.00    +0.108 C 
ATOM      4  N   UNL     1       0.065  -2.787   5.340  0.00  0.00    -0.301 N 
ATOM      5  C   UNL     1       1.329  -3.029   4.632  0.00  0.00    +0.108 C 
ATOM      6  C   UNL     1       1.298  -2.280   3.296  0.00  0.00    +0.028 C 
ATOM      7  C   UNL     1       0.064  -2.318   6.603  0.00  0.00    +0.216 C 
ATOM      8  O   UNL     1      -0.987  -2.121   7.176  0.00  0.00    -0.276 OA
ENDROOT
BRANCH   1  16
ATOM      9  C   UNL     1      -0.018   1.503   0.010  0.00  0.00    +0.086 C 
ATOM     10  C   UNL     1       0.002  -0.004   0.002  0.00  0.00    +0.107 A 
ATOM     11  N   UNL     1       0.005  -0.656  -1.177  0.00  0.00    -0.311 N 
ATOM     12  H   UNL     1      -0.005  -0.156  -2.009  0.00  0.00    +0.170 HD
ATOM     13  C   UNL     1       0.024  -2.006  -1.200  0.00  0.00    +0.252 A 
ATOM     14  O   UNL     1       0.027  -2.611  -2.260  0.00  0.00    -0.268 OA
ATOM     15  C   UNL     1       0.039  -2.702   0.026  0.00  0.00    +0.093 A 
ATOM     16  C   UNL     1       0.035  -1.983   1.183  0.00  0.00    +0.052 A 
ATOM     17  N   UNL     1       0.022  -0.648   1.138  0.00  0.00    -0.239 NA
ENDBRANCH   1  16
BRANCH   7  18
ATOM     18  C   UNL     1       1.368  -2.037   7.304  0.00  0.00    +0.107 C 
BRANCH  18  19
ATOM     19  C   UNL     1       1.087  -1.518   8.715  0.00  0.00    +0.081 C 
BRANCH  19  20
ATOM     20  S   UNL     1       2.658  -1.180   9.559  0.00  0.00    -0.126 S 
BRANCH  20  21
ATOM     21  C   UNL     1       2.156  -0.581  11.195  0.00  0.00    +0.183 C 
ATOM     22  N   UNL     1       1.259   0.598  11.067  0.00  0.00    -0.323 NA
ATOM     23  N   UNL     1       0.504   0.571  12.329  0.00  0.00    +0.409 N 
ATOM     24  N   UNL     1       0.277  -0.852  12.594  0.00  0.00    -0.280 NA
ATOM     25  N   UNL     1       1.324  -1.592  11.887  0.00  0.00    -0.234 NA
ATOM     26  C   UNL     1       2.132  -2.389  12.820  0.00  0.00    +0.124 C 
ATOM     27  H   UNL     1       1.792   1.451  10.983  0.00  0.00    +0.106 HD
ATOM     28  H   UNL     1       1.046   0.985  13.072  0.00  0.00    -0.032 HD
ATOM     29  H   UNL     1      -0.640  -1.136  12.285  0.00  0.00    +0.121 HD
ATOM     30  H   UNL     1      -0.376   1.053  12.223  0.00  0.00    -0.032 HD
ENDBRANCH  20  21
ENDBRANCH  19  20
ENDBRANCH  18  19
ENDBRANCH   7  18
TORSDOF 5
