REMARK  Name = ZINC32604005
REMARK  5 active torsions:
REMARK  status: ('A' for Active; 'I' for Inactive)
REMARK    1  A    between atoms: C_1  and  C_2
REMARK    2  A    between atoms: C_7  and  N_8
REMARK    3  A    between atoms: C_15  and  C_17
REMARK    4  A    between atoms: C_17  and  C_18
REMARK    5  A    between atoms: C_17  and  C_19
REMARK                            x       y       z     vdW  Elec       q    Type
REMARK                         _______ _______ _______ _____ _____    ______ ____
ROOT
ATOM      1  N   UNL     1       2.397   1.533  -0.013  0.00  0.00    -0.269 N 
ATOM      2  C   UNL     1       3.550   2.222  -0.122  0.00  0.00    +0.310 C 
ATOM      3  O   UNL     1       3.535   3.437  -0.115  0.00  0.00    -0.252 OA
ATOM      4  N   UNL     1       4.720   1.562  -0.238  0.00  0.00    -0.247 N 
ATOM      5  C   UNL     1       5.910   2.273  -0.350  0.00  0.00    +0.189 A 
ATOM      6  N   UNL     1       6.114   3.579  -0.364  0.00  0.00    -0.126 NA
ATOM      7  N   UNL     1       7.270   4.073  -0.474  0.00  0.00    -0.144 NA
ATOM      8  C   UNL     1       8.326   3.292  -0.581  0.00  0.00    +0.106 A 
ATOM      9  S   UNL     1       7.540   1.687  -0.504  0.00  0.00    -0.035 S 
ATOM     10  H   UNL     1       2.416   0.435   0.056  0.00  0.00    +0.156 HD
ATOM     11  H   UNL     1       4.733   0.463  -0.244  0.00  0.00    +0.158 HD
ENDROOT
BRANCH   1  18
ATOM     12  C   UNL     1       0.145   0.302  -1.241  0.00  0.00    +0.045 C 
ATOM     13  C   UNL     1       0.051   1.650  -0.574  0.00  0.00    -0.029 A 
ATOM     14  C   UNL     1      -1.153   2.328  -0.552  0.00  0.00    +0.005 A 
ATOM     15  C   UNL     1      -1.241   3.563   0.064  0.00  0.00    +0.000 A 
ATOM     16  C   UNL     1      -0.123   4.128   0.650  0.00  0.00    +0.002 A 
ATOM     17  C   UNL     1       1.084   3.458   0.626  0.00  0.00    +0.023 A 
ATOM     18  C   UNL     1       1.175   2.215   0.013  0.00  0.00    +0.038 A 
ENDBRANCH   1  18
BRANCH   8  19
ATOM     19  C   UNL     1       9.784   3.650  -0.721  0.00  0.00    +0.040 C 
ATOM     20  C   UNL     1       9.986   4.477  -1.992  0.00  0.00    +0.014 C 
ATOM     21  C   UNL     1      10.227   4.467   0.495  0.00  0.00    +0.014 C 
ENDBRANCH   8  19
TORSDOF 2
