REMARK  Name = ZINC20023785
REMARK  4 active torsions:
REMARK  status: ('A' for Active; 'I' for Inactive)
REMARK    1  A    between atoms: C_4  and  C_7
REMARK    2  A    between atoms: C_15  and  C_16
REMARK    3  A    between atoms: C_19  and  C_21
REMARK    4  A    between atoms: C_24  and  C_27
REMARK                            x       y       z     vdW  Elec       q    Type
REMARK                         _______ _______ _______ _____ _____    ______ ____
ROOT
ATOM      1  C   UNL     1       4.065  -0.894  -1.508  0.00  0.00    +0.056 C 
ATOM      2  C   UNL     1       5.205  -0.513  -2.124  0.00  0.00    +0.072 C 
ATOM      3  S   UNL     1       6.281  -1.906  -1.813  0.00  0.00    -0.062 S 
ATOM      4  C   UNL     1       5.118  -2.913  -0.931  0.00  0.00    +0.163 C 
ATOM      5  N   UNL     1       5.252  -4.122  -0.446  0.00  0.00    -0.154 NA
ATOM      6  C   UNL     1       4.195  -4.720   0.140  0.00  0.00    +0.273 C 
ATOM      7  O   UNL     1       4.319  -5.787   0.721  0.00  0.00    -0.268 OA
ATOM      8  C   UNL     1       2.879  -4.044   0.059  0.00  0.00    +0.082 C 
ATOM      9  C   UNL     1       1.690  -4.750   0.136  0.00  0.00    +0.062 C 
ATOM     10  C   UNL     1       2.903  -2.566  -0.108  0.00  0.00    +0.136 C 
ATOM     11  N   UNL     1       1.995  -1.772   0.397  0.00  0.00    -0.284 NA
ATOM     12  N   UNL     1       4.004  -2.100  -0.860  0.00  0.00    -0.233 N 
ATOM     13  H   UNL     1       2.111  -0.810   0.351  0.00  0.00    +0.188 HD
ENDROOT
BRANCH   1  17
ATOM     14  C   UNL     1       0.668   1.656  -1.568  0.00  0.00    +0.000 A 
ATOM     15  C   UNL     1       1.889   2.144  -1.137  0.00  0.00    +0.001 A 
ATOM     16  C   UNL     1       2.996   1.321  -1.115  0.00  0.00    +0.010 A 
ATOM     17  C   UNL     1       2.883  -0.007  -1.528  0.00  0.00    -0.003 A 
ATOM     18  C   UNL     1       1.648  -0.494  -1.961  0.00  0.00    +0.010 A 
ATOM     19  C   UNL     1       0.549   0.340  -1.978  0.00  0.00    +0.001 A 
ENDBRANCH   1  17
BRANCH   9  20
ATOM     20  C   UNL     1       0.461  -4.069   0.063  0.00  0.00    +0.129 A 
ATOM     21  C   UNL     1      -0.665  -4.495  -0.624  0.00  0.00    +0.050 A 
ATOM     22  C   UNL     1      -1.647  -3.524  -0.429  0.00  0.00    +0.050 A 
ATOM     23  C   UNL     1      -1.093  -2.542   0.364  0.00  0.00    +0.136 A 
ATOM     24  O   UNL     1       0.174  -2.890   0.654  0.00  0.00    -0.455 OA
BRANCH  23  25
ATOM     25  C   UNL     1      -1.775  -1.319   0.823  0.00  0.00    +0.017 A 
ATOM     26  C   UNL     1      -3.112  -1.092   0.478  0.00  0.00    +0.012 A 
ATOM     27  C   UNL     1      -3.744   0.042   0.902  0.00  0.00    +0.016 A 
ATOM     28  C   UNL     1      -3.055   0.976   1.683  0.00  0.00    +0.063 A 
ATOM     29  C   UNL     1      -1.718   0.750   2.028  0.00  0.00    +0.016 A 
ATOM     30  C   UNL     1      -1.088  -0.387   1.608  0.00  0.00    +0.012 A 
BRANCH  28  31
ATOM     31  C   UNL     1      -3.737   2.200   2.140  0.00  0.00    +0.387 C 
ATOM     32  O   UNL     1      -4.906   2.398   1.838  0.00  0.00    -0.241 OA
ATOM     33  O   UNL     1      -3.135   3.017   2.823  0.00  0.00    -0.241 OA
ENDBRANCH  28  31
ENDBRANCH  23  25
ENDBRANCH   9  20
TORSDOF 4
