REMARK  Name = ZINC36335660
REMARK  5 active torsions:
REMARK  status: ('A' for Active; 'I' for Inactive)
REMARK    1  A    between atoms: C_1  and  N_2
REMARK    2  A    between atoms: N_2  and  C_3
REMARK    3  A    between atoms: N_2  and  C_4
REMARK    4  A    between atoms: C_7  and  N_10
REMARK    5  A    between atoms: C_17  and  N_21
REMARK                            x       y       z     vdW  Elec       q    Type
REMARK                         _______ _______ _______ _____ _____    ______ ____
ROOT
ATOM      1  N   UNL     1      -0.005  -2.764  -4.838  0.00  0.00    -0.202 N 
ATOM      2  C   UNL     1       0.002  -4.104  -4.950  0.00  0.00    +0.258 C 
ATOM      3  O   UNL     1       0.009  -4.894  -4.027  0.00  0.00    -0.269 OA
ATOM      4  C   UNL     1      -0.002  -4.455  -6.386  0.00  0.00    +0.052 A 
ATOM      5  C   UNL     1       0.001  -5.646  -7.090  0.00  0.00    +0.014 A 
ATOM      6  C   UNL     1      -0.005  -5.630  -8.478  0.00  0.00    +0.003 A 
ATOM      7  C   UNL     1      -0.014  -4.436  -9.166  0.00  0.00    +0.023 A 
ATOM      8  C   UNL     1      -0.016  -3.223  -8.475  0.00  0.00    +0.038 A 
ATOM      9  C   UNL     1      -0.011  -3.227  -7.081  0.00  0.00    +0.070 A 
ATOM     10  C   UNL     1      -0.018  -2.177  -6.049  0.00  0.00    +0.260 C 
ATOM     11  O   UNL     1      -0.032  -0.980  -6.255  0.00  0.00    -0.269 OA
ENDROOT
BRANCH   1  15
ATOM     12  C   UNL     1       0.000  -0.697  -1.213  0.00  0.00    +0.029 A 
ATOM     13  C   UNL     1       0.013  -2.086  -1.221  0.00  0.00    +0.025 A 
ATOM     14  C   UNL     1       0.011  -2.769  -2.421  0.00  0.00    +0.026 A 
ATOM     15  C   UNL     1      -0.004  -2.068  -3.619  0.00  0.00    +0.045 A 
ATOM     16  C   UNL     1      -0.017  -0.680  -3.611  0.00  0.00    +0.026 A 
ATOM     17  C   UNL     1      -0.021   0.004  -2.412  0.00  0.00    +0.025 A 
BRANCH  12  19
ATOM     18  C   UNL     1      -0.018   1.461   0.010  0.00  0.00    +0.129 C 
ATOM     19  N   UNL     1       0.002  -0.004   0.002  0.00  0.00    -0.336 N 
ATOM     20  C   UNL     1       0.024  -0.743   1.267  0.00  0.00    +0.129 C 
ENDBRANCH  12  19
ENDBRANCH   1  15
BRANCH   8  21
ATOM     21  N   UNL     1      -0.025  -2.022  -9.170  0.00  0.00    -0.357 N 
ATOM     22  H   UNL     1      -0.028  -2.024 -10.140  0.00  0.00    +0.142 HD
ATOM     23  H   UNL     1      -0.026  -1.182  -8.686  0.00  0.00    +0.142 HD
ENDBRANCH   8  21
TORSDOF 3
