REMARK  Name = ZINC43255931
REMARK  7 active torsions:
REMARK  status: ('A' for Active; 'I' for Inactive)
REMARK    1  A    between atoms: C_1  and  C_2
REMARK    2  A    between atoms: C_2  and  C_3
REMARK    3  A    between atoms: C_3  and  C_5
REMARK    4  A    between atoms: C_3  and  N_23
REMARK    5  A    between atoms: C_5  and  C_7
REMARK    6  A    between atoms: C_5  and  O_13
REMARK    7  A    between atoms: O_13  and  C_14
REMARK                            x       y       z     vdW  Elec       q    Type
REMARK                         _______ _______ _______ _____ _____    ______ ____
ROOT
ATOM      1  C   UNL     1       0.965  -2.013  -1.160  0.00  0.00    +0.196 C 
ENDROOT
BRANCH   1   2
ATOM      2  C   UNL     1       1.862  -2.661  -2.183  0.00  0.00    +0.030 A 
ATOM      3  C   UNL     1       3.189  -2.927  -2.107  0.00  0.00    +0.016 A 
ATOM      4  C   UNL     1       3.813  -3.536  -3.180  0.00  0.00    +0.028 A 
ATOM      5  C   UNL     1       3.078  -3.849  -4.277  0.00  0.00    +0.078 A 
ATOM      6  S   UNL     1       1.451  -3.285  -3.804  0.00  0.00    -0.078 S 
ATOM      7 CL   UNL     1       3.586  -4.607  -5.753  0.00  0.00    -0.076 Cl
ENDBRANCH   1   2
BRANCH   1   8
ATOM      8  C   UNL     1       0.748  -0.544  -1.530  0.00  0.00    -0.029 C 
BRANCH   8   9
ATOM      9  N   UNL     1       0.204  -0.458  -2.892  0.00  0.00    +0.383 N 
ATOM     10  H   UNL     1       0.854  -0.876  -3.541  0.00  0.00    -0.089 HD
ATOM     11  H   UNL     1      -0.676  -0.949  -2.935  0.00  0.00    -0.089 HD
ATOM     12  H   UNL     1       0.061   0.511  -3.136  0.00  0.00    -0.089 HD
ENDBRANCH   8   9
BRANCH   8  14
ATOM     13  C   UNL     1      -0.348   1.589  -0.830  0.00  0.00    +0.002 C 
ATOM     14  C   UNL     1      -0.238   0.089  -0.546  0.00  0.00    -0.016 C 
ENDBRANCH   8  14
ENDBRANCH   1   8
BRANCH   1  15
ATOM     15  O   UNL     1      -0.294  -2.688  -1.134  0.00  0.00    -0.485 OA
BRANCH  15  16
ATOM     16  C   UNL     1      -0.379  -3.806  -0.364  0.00  0.00    +0.125 A 
ATOM     17  C   UNL     1       0.748  -4.288   0.284  0.00  0.00    +0.049 A 
ATOM     18  C   UNL     1       0.664  -5.424   1.068  0.00  0.00    +0.053 A 
ATOM     19  C   UNL     1      -0.547  -6.083   1.208  0.00  0.00    +0.166 A 
ATOM     20  C   UNL     1      -1.680  -5.600   0.558  0.00  0.00    +0.170 A 
ATOM     21  C   UNL     1      -1.594  -4.459  -0.222  0.00  0.00    +0.095 A 
ATOM     22  O   UNL     1      -2.733  -6.417   0.853  0.00  0.00    -0.452 OA
ATOM     23  C   UNL     1      -2.148  -7.633   1.356  0.00  0.00    +0.466 C 
ATOM     24  O   UNL     1      -0.891  -7.203   1.910  0.00  0.00    -0.453 OA
ENDBRANCH  15  16
ENDBRANCH   1  15
TORSDOF 6
