REMARK  Name = ZINC66926019
REMARK  8 active torsions:
REMARK  status: ('A' for Active; 'I' for Inactive)
REMARK    1  A    between atoms: C_1  and  C_2
REMARK    2  A    between atoms: C_5  and  C_7
REMARK    3  A    between atoms: C_7  and  C_9
REMARK    4  A    between atoms: C_7  and  N_25
REMARK    5  A    between atoms: C_9  and  N_10
REMARK    6  A    between atoms: N_13  and  N_14
REMARK    7  A    between atoms: C_15  and  C_17
REMARK    8  A    between atoms: C_17  and  C_18
REMARK                            x       y       z     vdW  Elec       q    Type
REMARK                         _______ _______ _______ _____ _____    ______ ____
ROOT
ATOM      1  N   UNL     1       3.248  -4.589   1.308  0.00  0.00    -0.299 N 
ATOM      2  C   UNL     1       3.862  -5.017   2.429  0.00  0.00    +0.316 C 
ATOM      3  O   UNL     1       3.659  -4.451   3.486  0.00  0.00    -0.251 OA
ATOM      4  N   UNL     1       4.699  -6.071   2.379  0.00  0.00    -0.218 N 
ATOM      5  H   UNL     1       3.410  -5.041   0.465  0.00  0.00    +0.150 HD
ATOM      6  H   UNL     1       5.141  -6.379   3.186  0.00  0.00    +0.174 HD
ENDROOT
BRANCH   4   7
ATOM      7  N   UNL     1       4.933  -6.723   1.161  0.00  0.00    -0.233 N 
ATOM      8  C   UNL     1       5.770  -7.778   1.111  0.00  0.00    +0.234 C 
ATOM      9  O   UNL     1       6.322  -8.163   2.120  0.00  0.00    -0.274 OA
ATOM     10  H   UNL     1       4.492  -6.416   0.354  0.00  0.00    +0.173 HD
BRANCH   8  11
ATOM     11  C   UNL     1       6.021  -8.479  -0.199  0.00  0.00    +0.135 C 
BRANCH  11  12
ATOM     12  C   UNL     1       6.988  -9.615   0.017  0.00  0.00    -0.003 A 
ATOM     13  C   UNL     1       8.340  -9.423  -0.199  0.00  0.00    +0.007 A 
ATOM     14  C   UNL     1       9.227 -10.464  -0.002  0.00  0.00    +0.000 A 
ATOM     15  C   UNL     1       8.763 -11.700   0.412  0.00  0.00    +0.003 A 
ATOM     16  C   UNL     1       7.412 -11.894   0.629  0.00  0.00    +0.038 A 
ATOM     17  C   UNL     1       6.524 -10.850   0.436  0.00  0.00    +0.127 A 
ATOM     18  F   UNL     1       5.203 -11.037   0.652  0.00  0.00    -0.205 F 
ENDBRANCH  11  12
ENDBRANCH   8  11
ENDBRANCH   4   7
BRANCH   1  19
ATOM     19  C   UNL     1       2.338  -3.443   1.362  0.00  0.00    +0.098 C 
BRANCH  19  20
ATOM     20  C   UNL     1       1.678  -3.250  -0.005  0.00  0.00    +0.016 C 
BRANCH  20  25
ATOM     21  C   UNL     1      -2.285  -6.370  -0.010  0.00  0.00    +0.086 C 
ATOM     22  C   UNL     1      -0.927  -5.791  -0.311  0.00  0.00    +0.102 A 
ATOM     23  C   UNL     1       0.007  -6.345  -1.105  0.00  0.00    +0.044 A 
ATOM     24  C   UNL     1       1.118  -5.471  -1.103  0.00  0.00    +0.043 A 
ATOM     25  C   UNL     1       0.797  -4.434  -0.309  0.00  0.00    +0.093 A 
ATOM     26  O   UNL     1      -0.445  -4.630   0.164  0.00  0.00    -0.466 OA
ENDBRANCH  20  25
BRANCH  20  27
ATOM     27  N   UNL     1       0.866  -2.026   0.011  0.00  0.00    +0.387 N 
ATOM     28  C   UNL     1       1.732  -0.840   0.232  0.00  0.00    -0.078 C 
ATOM     29  C   UNL     1       0.882   0.329  -0.327  0.00  0.00    -0.020 C 
ATOM     30  C   UNL     1       0.197  -0.301  -1.561  0.00  0.00    -0.020 C 
ATOM     31  C   UNL     1       0.228  -1.820  -1.307  0.00  0.00    -0.078 C 
ATOM     32  H   UNL     1       0.164  -2.084   0.733  0.00  0.00    -0.081 HD
ENDBRANCH  20  27
ENDBRANCH  19  20
ENDBRANCH   1  19
TORSDOF 7
