REMARK  Name = ZINC14923620
REMARK  10 active torsions:
REMARK  status: ('A' for Active; 'I' for Inactive)
REMARK    1  A    between atoms: C_1  and  C_2
REMARK    2  A    between atoms: C_2  and  C_4
REMARK    3  A    between atoms: C_2  and  N_18
REMARK    4  A    between atoms: N_6  and  C_7
REMARK    5  A    between atoms: C_8  and  C_15
REMARK    6  A    between atoms: N_18  and  C_19
REMARK    7  A    between atoms: N_18  and  C_20
REMARK    8  A    between atoms: C_20  and  C_21
REMARK    9  A    between atoms: C_26  and  O_27
REMARK   10  A    between atoms: O_27  and  C_28
REMARK                            x       y       z     vdW  Elec       q    Type
REMARK                         _______ _______ _______ _____ _____    ______ ____
ROOT
ATOM      1  C   UNL     1       0.584  -0.477   1.442  0.00  0.00    +0.204 C 
ATOM      2  O   UNL     1      -0.082  -1.080   2.256  0.00  0.00    -0.277 OA
ATOM      3  N   UNL     1       1.876  -0.197   1.702  0.00  0.00    -0.281 N 
ATOM      4  H   UNL     1       2.409   0.285   1.051  0.00  0.00    +0.155 HD
ENDROOT
BRANCH   3   5
ATOM      5  C   UNL     1       2.444  -0.598   2.902  0.00  0.00    +0.084 A 
ATOM      6  C   UNL     1       3.740  -0.395   3.340  0.00  0.00    +0.068 A 
ATOM      7  C   UNL     1       4.093  -0.921   4.657  0.00  0.00    -0.023 A 
ATOM      8  C   UNL     1       3.083  -1.550   5.285  0.00  0.00    -0.004 A 
ATOM      9  S   UNL     1       1.715  -1.433   4.160  0.00  0.00    -0.077 S 
ATOM     10  C   UNL     1       3.500  -2.075   6.632  0.00  0.00    +0.043 C 
ATOM     11  C   UNL     1       5.044  -2.064   6.594  0.00  0.00    +0.010 C 
ATOM     12  C   UNL     1       5.326  -0.958   5.557  0.00  0.00    +0.037 C 
BRANCH   6  13
ATOM     13  C   UNL     1       4.721   0.318   2.515  0.00  0.00    +0.244 C 
ATOM     14  O   UNL     1       4.836   1.526   2.615  0.00  0.00    -0.270 OA
ATOM     15  N   UNL     1       5.494  -0.364   1.647  0.00  0.00    -0.325 N 
ATOM     16  H   UNL     1       5.402  -1.326   1.567  0.00  0.00    +0.145 HD
ATOM     17  H   UNL     1       6.143   0.108   1.101  0.00  0.00    +0.145 HD
ENDBRANCH   6  13
ENDBRANCH   3   5
BRANCH   1  19
ATOM     18  C   UNL     1      -0.567   1.386   0.277  0.00  0.00    -0.004 C 
ATOM     19  C   UNL     1      -0.033  -0.041   0.138  0.00  0.00    +0.016 C 
BRANCH  19  20
ATOM     20  N   UNL     1      -1.138  -0.946  -0.207  0.00  0.00    +0.388 N 
ATOM     21  C   UNL     1      -1.763  -0.499  -1.460  0.00  0.00    -0.095 C 
ATOM     22  H   UNL     1      -1.824  -0.937   0.533  0.00  0.00    -0.081 HD
BRANCH  20  23
ATOM     23  C   UNL     1      -0.620  -2.309  -0.378  0.00  0.00    -0.039 C 
BRANCH  23  24
ATOM     24  C   UNL     1      -1.768  -3.260  -0.597  0.00  0.00    -0.022 A 
ATOM     25  C   UNL     1      -2.242  -4.025   0.452  0.00  0.00    +0.005 A 
ATOM     26  C   UNL     1      -3.296  -4.897   0.252  0.00  0.00    +0.000 A 
ATOM     27  C   UNL     1      -3.878  -5.006  -0.997  0.00  0.00    +0.004 A 
ATOM     28  C   UNL     1      -3.409  -4.244  -2.049  0.00  0.00    +0.046 A 
ATOM     29  C   UNL     1      -2.355  -3.364  -1.849  0.00  0.00    +0.121 A 
BRANCH  29  30
ATOM     30  O   UNL     1      -1.895  -2.608  -2.881  0.00  0.00    -0.495 OA
ATOM     31  C   UNL     1      -2.547  -2.767  -4.143  0.00  0.00    +0.277 C 
ENDBRANCH  29  30
ENDBRANCH  23  24
ENDBRANCH  20  23
ENDBRANCH  19  20
ENDBRANCH   1  19
TORSDOF 7
