REMARK  Name = ZINC05092802
REMARK  1 active torsions:
REMARK  status: ('A' for Active; 'I' for Inactive)
REMARK    1  A    between atoms: C_6  and  C_7
REMARK                            x       y       z     vdW  Elec       q    Type
REMARK                         _______ _______ _______ _____ _____    ______ ____
ROOT
ATOM      1  C   UNL     1       0.583   0.672  -0.197  0.00  0.00    +0.170 C 
ATOM      2  C   UNL     1      -0.394   1.348  -1.103  0.00  0.00    +0.110 C 
ATOM      3  N   UNL     1      -1.380   2.035  -0.462  0.00  0.00    -0.194 N 
ATOM      4  S   UNL     1      -1.114   1.852   1.172  0.00  0.00    +0.111 S 
ATOM      5  O   UNL     1      -2.185   1.074   1.689  0.00  0.00    -0.138 OA
ATOM      6  O   UNL     1      -0.759   3.127   1.688  0.00  0.00    -0.138 OA
ATOM      7  N   UNL     1       0.256   0.900   1.216  0.00  0.00    -0.163 NA
ATOM      8  H   UNL     1      -0.919   1.709  -3.028  0.00  0.00    +0.157 HD
ATOM      9  H   UNL     1      -2.100   2.535  -0.877  0.00  0.00    +0.176 HD
ATOM     10  H   UNL     1       0.729   0.572   1.997  0.00  0.00    +0.151 HD
ATOM     11  N   UNL     1      -0.254   1.249  -2.407  0.00  0.00    -0.388 N 
ATOM     12  H   UNL     1       0.525   0.707  -2.800  0.00  0.00    +0.157 HD
ENDROOT
BRANCH   1  18
ATOM     13  C   UNL     1       2.354   2.422   0.059  0.00  0.00    +0.007 A 
ATOM     14  C   UNL     1       3.623   2.911  -0.192  0.00  0.00    +0.020 A 
ATOM     15  C   UNL     1       4.497   2.192  -0.986  0.00  0.00    +0.041 A 
ATOM     16  C   UNL     1       4.104   0.979  -1.524  0.00  0.00    +0.020 A 
ATOM     17  C   UNL     1       2.838   0.488  -1.268  0.00  0.00    +0.007 A 
ATOM     18  C   UNL     1       1.964   1.208  -0.475  0.00  0.00    -0.022 A 
ATOM     19 CL   UNL     1       6.087   2.809  -1.307  0.00  0.00    -0.084 Cl
ENDBRANCH   1  18
TORSDOF 1
