REMARK  Name = ZINC64886575
REMARK  8 active torsions:
REMARK  status: ('A' for Active; 'I' for Inactive)
REMARK    1  A    between atoms: C_5  and  C_6
REMARK    2  A    between atoms: C_8  and  C_11
REMARK    3  A    between atoms: C_11  and  C_12
REMARK    4  A    between atoms: N_14  and  N_15
REMARK    5  A    between atoms: N_18  and  C_19
REMARK    6  A    between atoms: C_19  and  C_20
REMARK    7  A    between atoms: C_20  and  C_21
REMARK    8  A    between atoms: C_21  and  N_22
REMARK                            x       y       z     vdW  Elec       q    Type
REMARK                         _______ _______ _______ _____ _____    ______ ____
ROOT
ATOM      1  C   UNL     1      -2.074  -4.703  -1.151  0.00  0.00    +0.235 C 
ATOM      2  O   UNL     1      -1.463  -3.980  -1.910  0.00  0.00    -0.274 OA
ATOM      3  N   UNL     1      -2.088  -6.035  -1.355  0.00  0.00    -0.233 N 
ATOM      4  H   UNL     1      -2.577  -6.613  -0.748  0.00  0.00    +0.173 HD
ENDROOT
BRANCH   3   5
ATOM      5  N   UNL     1      -1.397  -6.585  -2.442  0.00  0.00    -0.218 N 
ATOM      6  C   UNL     1      -1.412  -7.918  -2.645  0.00  0.00    +0.316 C 
ATOM      7  O   UNL     1      -0.812  -8.395  -3.589  0.00  0.00    -0.251 OA
ATOM      8  N   UNL     1      -2.091  -8.720  -1.802  0.00  0.00    -0.298 N 
ATOM      9  H   UNL     1      -0.908  -6.007  -3.049  0.00  0.00    +0.174 HD
ATOM     10  H   UNL     1      -2.569  -8.339  -1.050  0.00  0.00    +0.150 HD
BRANCH   8  11
ATOM     11  C   UNL     1      -2.106 -10.169  -2.023  0.00  0.00    +0.107 C 
BRANCH  11  12
ATOM     12  C   UNL     1      -2.942 -10.842  -0.933  0.00  0.00    +0.040 C 
BRANCH  12  13
ATOM     13  C   UNL     1      -2.959 -12.354  -1.164  0.00  0.00    +0.124 C 
BRANCH  13  14
ATOM     14  N   UNL     1      -3.759 -12.999  -0.119  0.00  0.00    -0.338 N 
ATOM     15  C   UNL     1      -3.303 -13.456   1.087  0.00  0.00    +0.104 A 
ATOM     16  C   UNL     1      -4.365 -13.973   1.735  0.00  0.00    +0.101 A 
ATOM     17  N   UNL     1      -5.440 -13.835   0.945  0.00  0.00    -0.352 N 
ATOM     18  C   UNL     1      -5.085 -13.248  -0.166  0.00  0.00    +0.173 A 
ATOM     19  H   UNL     1      -6.340 -14.123   1.165  0.00  0.00    +0.166 HD
ENDBRANCH  13  14
ENDBRANCH  12  13
ENDBRANCH  11  12
ENDBRANCH   8  11
ENDBRANCH   3   5
BRANCH   1  20
ATOM     20  C   UNL     1      -2.817  -4.111   0.018  0.00  0.00    +0.153 C 
BRANCH  20  23
ATOM     21  C   UNL     1      -1.257  -0.778   0.010  0.00  0.00    +0.109 A 
ATOM     22  N   UNL     1      -1.437  -2.092   0.011  0.00  0.00    -0.243 NA
ATOM     23  C   UNL     1      -2.643  -2.614   0.019  0.00  0.00    +0.058 A 
ATOM     24  C   UNL     1      -3.732  -1.803   0.027  0.00  0.00    +0.071 A 
ATOM     25  S   UNL     1      -2.947  -0.196   0.031  0.00  0.00    -0.075 S 
BRANCH  21  30
ATOM     26  C   UNL     1      -0.017   1.389   0.010  0.00  0.00    +0.018 A 
ATOM     27  C   UNL     1       1.155   2.061   0.002  0.00  0.00    +0.046 A 
ATOM     28  S   UNL     1       2.352   0.738  -0.016  0.00  0.00    -0.104 S 
ATOM     29  C   UNL     1       1.216  -0.638  -0.013  0.00  0.00    +0.055 A 
ATOM     30  C   UNL     1       0.002  -0.004   0.002  0.00  0.00    +0.014 A 
ENDBRANCH  21  30
ENDBRANCH  20  23
ENDBRANCH   1  20
TORSDOF 8
