REMARK  Name = ZINC05518718
REMARK  6 active torsions:
REMARK  status: ('A' for Active; 'I' for Inactive)
REMARK    1  A    between atoms: C_2  and  C_3
REMARK    2  A    between atoms: C_6  and  N_9
REMARK    3  A    between atoms: N_10  and  C_11
REMARK    4  A    between atoms: C_13  and  N_18
REMARK    5  A    between atoms: C_16  and  O_17
REMARK    6  A    between atoms: N_19  and  C_20
REMARK                            x       y       z     vdW  Elec       q    Type
REMARK                         _______ _______ _______ _____ _____    ______ ____
ROOT
ATOM      1  C   UNL     1       2.117   3.087  -0.003  0.00  0.00    +0.129 A 
ATOM      2  C   UNL     1       1.861   1.716  -0.007  0.00  0.00    +0.062 A 
ATOM      3  C   UNL     1       0.543   1.259   0.003  0.00  0.00    +0.088 A 
ATOM      4  C   UNL     1      -0.515   2.177   0.017  0.00  0.00    +0.033 A 
ATOM      5  C   UNL     1      -0.261   3.530   0.022  0.00  0.00    +0.050 A 
ATOM      6  C   UNL     1       1.046   3.997   0.012  0.00  0.00    +0.144 A 
ENDROOT
BRANCH   1   8
ATOM      7  N   UNL     1       4.384   2.706  -0.026  0.00  0.00    -0.149 NA
ATOM      8  N   UNL     1       3.403   3.543  -0.012  0.00  0.00    -0.146 NA
BRANCH   7  12
ATOM      9  C   UNL     1       8.286   4.089  -0.056  0.00  0.00    +0.012 A 
ATOM     10  C   UNL     1       8.033   2.716  -0.060  0.00  0.00    +0.013 A 
ATOM     11  C   UNL     1       6.736   2.255  -0.050  0.00  0.00    +0.030 A 
ATOM     12  C   UNL     1       5.672   3.162  -0.035  0.00  0.00    +0.086 A 
ATOM     13  C   UNL     1       5.927   4.537  -0.037  0.00  0.00    +0.030 A 
ATOM     14  C   UNL     1       7.224   4.996  -0.041  0.00  0.00    +0.013 A 
BRANCH   9  16
ATOM     15  H   UNL     1      11.620   3.965  -0.088  0.00  0.00    +0.157 HD
ATOM     16  C   UNL     1       9.681   4.584  -0.067  0.00  0.00    +0.094 C 
ATOM     17  N   UNL     1       9.931   5.939  -0.063  0.00  0.00    -0.345 N 
ATOM     18  H   UNL     1       9.193   6.569  -0.053  0.00  0.00    +0.144 HD
ATOM     19  H   UNL     1      10.845   6.264  -0.070  0.00  0.00    +0.144 HD
ATOM     20  N   UNL     1      10.643   3.674  -0.080  0.00  0.00    -0.387 N 
ATOM     21  H   UNL     1      10.404   2.675  -0.083  0.00  0.00    +0.157 HD
ENDBRANCH   9  16
ENDBRANCH   7  12
ENDBRANCH   1   8
BRANCH   6  22
ATOM     22  O   UNL     1       1.290   5.331   0.017  0.00  0.00    -0.505 OA
ATOM     23  H   UNL     1       1.369   5.713   0.902  0.00  0.00    +0.292 HD
ENDBRANCH   6  22
BRANCH   3  24
ATOM     24  N   UNL     1       0.285  -0.082  -0.001  0.00  0.00    -0.149 NA
ATOM     25  N   UNL     1      -0.934  -0.504   0.009  0.00  0.00    -0.149 NA
BRANCH  25  26
ATOM     26  C   UNL     1      -1.192  -1.846   0.005  0.00  0.00    +0.086 A 
ATOM     27  C   UNL     1      -0.139  -2.764  -0.015  0.00  0.00    +0.029 A 
ATOM     28  C   UNL     1      -0.407  -4.117  -0.013  0.00  0.00    +0.002 A 
ATOM     29  C   UNL     1      -1.716  -4.566  -0.003  0.00  0.00    +0.000 A 
ATOM     30  C   UNL     1      -2.764  -3.663   0.011  0.00  0.00    +0.002 A 
ATOM     31  C   UNL     1      -2.511  -2.307   0.015  0.00  0.00    +0.029 A 
ENDBRANCH  25  26
ENDBRANCH   3  24
TORSDOF 6
