REMARK  Name = ZINC44100833
REMARK  9 active torsions:
REMARK  status: ('A' for Active; 'I' for Inactive)
REMARK    1  A    between atoms: C_1  and  C_2
REMARK    2  A    between atoms: C_4  and  C_19
REMARK    3  A    between atoms: C_7  and  O_8
REMARK    4  A    between atoms: O_8  and  C_9
REMARK    5  A    between atoms: C_15  and  N_17
REMARK    6  A    between atoms: N_17  and  C_18
REMARK    7  A    between atoms: C_19  and  C_20
REMARK    8  A    between atoms: C_19  and  C_21
REMARK    9  A    between atoms: C_19  and  C_22
REMARK                            x       y       z     vdW  Elec       q    Type
REMARK                         _______ _______ _______ _____ _____    ______ ____
ROOT
ATOM      1  C   UNL     1      -0.029   1.466  -0.013  0.00  0.00    +0.047 C 
ATOM      2  C   UNL     1       0.223  -0.020   0.010  0.00  0.00    -0.009 A 
ATOM      3  C   UNL     1       0.445  -0.702  -1.171  0.00  0.00    +0.011 A 
ATOM      4  C   UNL     1       0.675  -2.065  -1.151  0.00  0.00    -0.042 A 
ATOM      5  C   UNL     1       0.685  -2.749   0.051  0.00  0.00    +0.008 A 
ATOM      6  C   UNL     1       0.464  -2.072   1.235  0.00  0.00    +0.046 A 
ATOM      7  C   UNL     1       0.238  -0.703   1.217  0.00  0.00    +0.124 A 
ENDROOT
BRANCH   4   8
ATOM      8  C   UNL     1       0.916  -2.807  -2.440  0.00  0.00    -0.013 C 
ATOM      9  C   UNL     1       2.152  -2.232  -3.135  0.00  0.00    +0.015 C 
ATOM     10  C   UNL     1       1.142  -4.290  -2.141  0.00  0.00    +0.015 C 
ATOM     11  C   UNL     1      -0.301  -2.651  -3.353  0.00  0.00    +0.015 C 
ENDBRANCH   4   8
BRANCH   7  12
ATOM     12  O   UNL     1       0.025  -0.033   2.381  0.00  0.00    -0.488 OA
BRANCH  12  13
ATOM     13  C   UNL     1      -0.069  -0.817   3.572  0.00  0.00    +0.185 C 
ATOM     14  C   UNL     1       1.335  -1.085   4.121  0.00  0.00    +0.202 C 
ATOM     15  O   UNL     1       1.954   0.155   4.467  0.00  0.00    -0.376 OA
ATOM     16  C   UNL     1       1.263   0.890   5.480  0.00  0.00    +0.158 C 
ATOM     17  C   UNL     1      -0.143   1.238   4.986  0.00  0.00    +0.016 C 
ATOM     18  C   UNL     1      -0.884  -0.055   4.622  0.00  0.00    -0.026 C 
BRANCH  18  19
ATOM     19  N   UNL     1      -2.207   0.272   4.075  0.00  0.00    +0.382 N 
ATOM     20  C   UNL     1      -3.029   0.896   5.121  0.00  0.00    -0.100 C 
ATOM     21  H   UNL     1      -2.103   0.913   3.303  0.00  0.00    -0.086 HD
ATOM     22  H   UNL     1      -2.656  -0.572   3.753  0.00  0.00    -0.086 HD
ENDBRANCH  18  19
ENDBRANCH  12  13
ENDBRANCH   7  12
TORSDOF 4
