REMARK  Name = ZINC40570686
REMARK  8 active torsions:
REMARK  status: ('A' for Active; 'I' for Inactive)
REMARK    1  A    between atoms: C_1  and  C_2
REMARK    2  A    between atoms: C_2  and  N_3
REMARK    3  A    between atoms: C_4  and  C_6
REMARK    4  A    between atoms: C_10  and  N_11
REMARK    5  A    between atoms: C_12  and  C_14
REMARK    6  A    between atoms: C_14  and  C_27
REMARK    7  A    between atoms: C_15  and  C_16
REMARK    8  A    between atoms: C_17  and  C_26
REMARK                            x       y       z     vdW  Elec       q    Type
REMARK                         _______ _______ _______ _____ _____    ______ ____
ROOT
ATOM      1  N   UNL     1       3.821  -2.274   1.566  0.00  0.00    -0.275 N 
ATOM      2  C   UNL     1       5.149  -2.416   1.744  0.00  0.00    +0.259 C 
ATOM      3  O   UNL     1       5.596  -2.620   2.857  0.00  0.00    -0.269 OA
ATOM      4  H   UNL     1       3.465  -2.111   0.678  0.00  0.00    +0.156 HD
ENDROOT
BRANCH   1   9
ATOM      5  C   UNL     1       1.582  -2.243   2.657  0.00  0.00    +0.069 A 
ATOM      6  C   UNL     1       0.910  -2.381   3.938  0.00  0.00    -0.023 A 
ATOM      7  C   UNL     1       1.743  -2.607   4.977  0.00  0.00    -0.004 A 
ATOM      8  S   UNL     1       3.360  -2.632   4.260  0.00  0.00    -0.077 S 
ATOM      9  C   UNL     1       2.964  -2.362   2.651  0.00  0.00    +0.085 A 
ATOM     10  C   UNL     1       1.360  -2.791   6.413  0.00  0.00    +0.043 C 
ATOM     11  C   UNL     1      -0.088  -2.311   6.591  0.00  0.00    +0.005 C 
ATOM     12  C   UNL     1      -0.952  -2.921   5.484  0.00  0.00    +0.005 C 
ATOM     13  C   UNL     1      -0.595  -2.288   4.136  0.00  0.00    +0.037 C 
BRANCH   5  15
ATOM     14  N   UNL     1       0.585  -0.731   1.027  0.00  0.00    -0.312 N 
ATOM     15  C   UNL     1       0.831  -1.995   1.423  0.00  0.00    +0.247 C 
ATOM     16  O   UNL     1       0.429  -2.931   0.757  0.00  0.00    -0.270 OA
ATOM     17  H   UNL     1       0.905   0.015   1.558  0.00  0.00    +0.149 HD
BRANCH  14  19
ATOM     18  C   UNL     1      -0.305   1.025  -0.424  0.00  0.00    +0.024 C 
ATOM     19  C   UNL     1      -0.166  -0.483  -0.206  0.00  0.00    +0.101 C 
ENDBRANCH  14  19
ENDBRANCH   5  15
ENDBRANCH   1   9
BRANCH   2  20
ATOM     20  C   UNL     1       6.057  -2.323   0.594  0.00  0.00    +0.114 C 
ATOM     21  C   UNL     1       7.406  -2.590   0.754  0.00  0.00    +0.034 C 
BRANCH  21  22
ATOM     22  C   UNL     1       7.891  -3.058   1.996  0.00  0.00    +0.004 A 
ATOM     23  C   UNL     1       8.762  -2.405   2.847  0.00  0.00    +0.021 A 
ATOM     24  N   UNL     1       8.990  -3.168   3.933  0.00  0.00    -0.358 N 
ATOM     25  H   UNL     1       9.569  -2.919   4.671  0.00  0.00    +0.166 HD
ATOM     26  C   UNL     1       8.286  -4.353   3.854  0.00  0.00    +0.047 A 
ATOM     27  C   UNL     1       7.564  -4.341   2.650  0.00  0.00    +0.007 A 
ATOM     28  C   UNL     1       6.754  -5.420   2.310  0.00  0.00    +0.010 A 
ATOM     29  C   UNL     1       6.661  -6.499   3.162  0.00  0.00    +0.001 A 
ATOM     30  C   UNL     1       7.370  -6.512   4.354  0.00  0.00    +0.002 A 
ATOM     31  C   UNL     1       8.182  -5.453   4.699  0.00  0.00    +0.026 A 
ATOM     32  C   UNL     1       9.365  -1.046   2.598  0.00  0.00    +0.064 C 
ENDBRANCH  21  22
BRANCH  20  33
ATOM     33  C   UNL     1       5.548  -1.957  -0.693  0.00  0.00    +0.104 C 
ATOM     34  N   UNL     1       5.144  -1.666  -1.714  0.00  0.00    -0.191 NA
ENDBRANCH  20  33
ENDBRANCH   2  20
TORSDOF 6
