REMARK  Name = ZINC39482481
REMARK  9 active torsions:
REMARK  status: ('A' for Active; 'I' for Inactive)
REMARK    1  A    between atoms: C_1  and  C_2
REMARK    2  A    between atoms: C_2  and  C_3
REMARK    3  A    between atoms: C_2  and  S_4
REMARK    4  A    between atoms: S_4  and  S_7
REMARK    5  A    between atoms: S_7  and  N_10
REMARK    6  A    between atoms: N_10  and  C_11
REMARK    7  A    between atoms: C_14  and  C_25
REMARK    8  A    between atoms: C_16  and  N_17
REMARK    9  A    between atoms: C_30  and  O_31
REMARK                            x       y       z     vdW  Elec       q    Type
REMARK                         _______ _______ _______ _____ _____    ______ ____
ROOT
ATOM      1  C   UNL     1      -3.221  -4.686   0.294  0.00  0.00    +0.097 A 
ATOM      2  C   UNL     1      -2.119  -5.525   0.387  0.00  0.00    +0.029 A 
ATOM      3  C   UNL     1      -2.295  -6.890   0.488  0.00  0.00    +0.010 A 
ATOM      4  C   UNL     1      -3.580  -7.430   0.497  0.00  0.00    -0.013 A 
ATOM      5  C   UNL     1      -4.689  -6.590   0.404  0.00  0.00    +0.033 A 
ATOM      6  C   UNL     1      -4.510  -5.220   0.308  0.00  0.00    +0.055 A 
ENDROOT
BRANCH   6   7
ATOM      7  N   UNL     1      -5.621  -4.373   0.221  0.00  0.00    -0.324 N 
ATOM      8  C   UNL     1      -6.198  -4.017  -1.084  0.00  0.00    +0.120 C 
ATOM      9  C   UNL     1      -7.706  -4.285  -1.040  0.00  0.00    +0.101 C 
ATOM     10  N   UNL     1      -8.291  -3.583   0.111  0.00  0.00    -0.298 NA
ATOM     11  C   UNL     1      -7.748  -4.091   1.377  0.00  0.00    +0.164 C 
ATOM     12  C   UNL     1      -6.246  -3.820   1.432  0.00  0.00    +0.140 C 
ATOM     13 CL   UNL     1      -8.563  -3.263   2.756  0.00  0.00    -0.103 Cl
ATOM     14  H   UNL     1      -8.155  -2.586   0.033  0.00  0.00    +0.123 HD
ENDBRANCH   6   7
BRANCH   4  15
ATOM     15  C   UNL     1      -3.768  -8.897   0.605  0.00  0.00    +0.024 A 
ATOM     16  C   UNL     1      -4.652  -9.422   1.545  0.00  0.00    +0.012 A 
ATOM     17  C   UNL     1      -4.823 -10.788   1.642  0.00  0.00    +0.001 A 
ATOM     18  C   UNL     1      -4.119 -11.639   0.808  0.00  0.00    +0.004 A 
ATOM     19  C   UNL     1      -3.240 -11.129  -0.128  0.00  0.00    +0.046 A 
ATOM     20  C   UNL     1      -3.063  -9.759  -0.240  0.00  0.00    +0.125 A 
BRANCH  20  21
ATOM     21  O   UNL     1      -2.203  -9.256  -1.164  0.00  0.00    -0.506 OA
ATOM     22  H   UNL     1      -1.297  -9.151  -0.842  0.00  0.00    +0.292 HD
ENDBRANCH  20  21
ENDBRANCH   4  15
BRANCH   1  23
ATOM     23  N   UNL     1      -3.039  -3.302   0.192  0.00  0.00    -0.080 NA
BRANCH  23  24
ATOM     24  S   UNL     1      -1.509  -2.667   0.175  0.00  0.00    +0.187 S 
ATOM     25  O   UNL     1      -0.898  -3.113  -1.028  0.00  0.00    -0.130 OA
ATOM     26  O   UNL     1      -0.949  -2.923   1.455  0.00  0.00    -0.130 OA
BRANCH  24  27
ATOM     27  S   UNL     1      -1.700  -0.632   0.015  0.00  0.00    +0.106 S 
ATOM     28  O   UNL     1      -2.359  -0.234   1.209  0.00  0.00    -0.151 OA
ATOM     29  O   UNL     1      -2.308  -0.423  -1.252  0.00  0.00    -0.151 OA
BRANCH  27  31
ATOM     30  C   UNL     1      -0.019   1.526   0.010  0.00  0.00    +0.033 C 
ATOM     31  C   UNL     1       0.002  -0.004   0.002  0.00  0.00    +0.150 C 
ATOM     32  C   UNL     1       0.742  -0.511   1.242  0.00  0.00    +0.033 C 
ENDBRANCH  27  31
ENDBRANCH  24  27
ENDBRANCH  23  24
ENDBRANCH   1  23
TORSDOF 7
