REMARK  Name = ZINC04945708
REMARK  8 active torsions:
REMARK  status: ('A' for Active; 'I' for Inactive)
REMARK    1  A    between atoms: C_1  and  N_2
REMARK    2  A    between atoms: N_2  and  C_3
REMARK    3  A    between atoms: N_2  and  C_4
REMARK    4  A    between atoms: C_7  and  N_10
REMARK    5  A    between atoms: C_11  and  C_13
REMARK    6  A    between atoms: C_13  and  S_14
REMARK    7  A    between atoms: S_14  and  C_15
REMARK    8  A    between atoms: C_16  and  C_27
REMARK                            x       y       z     vdW  Elec       q    Type
REMARK                         _______ _______ _______ _____ _____    ______ ____
ROOT
ATOM      1  S   UNL     1      -8.635  -1.821   0.394  0.00  0.00    -0.107 S 
ENDROOT
BRANCH   1   2
ATOM      2  C   UNL     1     -10.046  -2.867   0.527  0.00  0.00    +0.066 A 
ATOM      3  C   UNL     1     -11.377  -2.485   0.646  0.00  0.00    +0.096 A 
ATOM      4  C   UNL     1     -12.371  -3.541   0.741  0.00  0.00    +0.079 A 
ATOM      5  C   UNL     1     -11.822  -4.820   0.695  0.00  0.00    +0.085 A 
ATOM      6  S   UNL     1     -10.080  -4.545   0.529  0.00  0.00    -0.075 S 
ATOM      7  C   UNL     1     -12.618  -5.964   0.772  0.00  0.00    +0.200 A 
ATOM      8  C   UNL     1     -13.992  -5.815   0.896  0.00  0.00    +0.122 A 
ATOM      9  C   UNL     1     -14.531  -4.527   0.940  0.00  0.00    +0.253 A 
ATOM     10  O   UNL     1     -15.739  -4.389   1.050  0.00  0.00    -0.268 OA
ATOM     11  N   UNL     1     -13.751  -3.439   0.866  0.00  0.00    -0.320 N 
ATOM     12  H   UNL     1     -14.160  -2.560   0.900  0.00  0.00    +0.169 HD
ATOM     13  O   UNL     1     -12.059  -7.197   0.725  0.00  0.00    -0.286 OA
BRANCH   3  14
ATOM     14  C   UNL     1     -11.755  -1.104   0.676  0.00  0.00    +0.103 C 
ATOM     15  N   UNL     1     -12.054  -0.009   0.700  0.00  0.00    -0.191 NA
ENDBRANCH   3  14
ENDBRANCH   1   2
BRANCH   1  16
ATOM     16  C   UNL     1      -7.243  -2.976   0.263  0.00  0.00    +0.171 C 
BRANCH  16  18
ATOM     17  N   UNL     1      -4.783  -2.854   0.031  0.00  0.00    -0.285 N 
ATOM     18  C   UNL     1      -5.956  -2.200   0.142  0.00  0.00    +0.227 C 
ATOM     19  O   UNL     1      -5.977  -0.988   0.144  0.00  0.00    -0.275 OA
ATOM     20  H   UNL     1      -4.772  -3.821  -0.047  0.00  0.00    +0.155 HD
BRANCH  17  24
ATOM     21  C   UNL     1      -1.199  -0.722   0.028  0.00  0.00    +0.029 A 
ATOM     22  C   UNL     1      -2.275  -0.270   0.780  0.00  0.00    +0.025 A 
ATOM     23  C   UNL     1      -3.462  -0.976   0.781  0.00  0.00    +0.025 A 
ATOM     24  C   UNL     1      -3.579  -2.138   0.030  0.00  0.00    +0.034 A 
ATOM     25  C   UNL     1      -2.503  -2.590  -0.722  0.00  0.00    +0.025 A 
ATOM     26  C   UNL     1      -1.318  -1.880  -0.729  0.00  0.00    +0.025 A 
BRANCH  21  28
ATOM     27  C   UNL     1       1.137  -0.480  -0.772  0.00  0.00    +0.129 C 
ATOM     28  N   UNL     1       0.004  -0.006   0.027  0.00  0.00    -0.336 N 
ATOM     29  C   UNL     1       0.129   1.216   0.825  0.00  0.00    +0.129 C 
ENDBRANCH  21  28
ENDBRANCH  17  24
ENDBRANCH  16  18
ENDBRANCH   1  16
TORSDOF 6
