REMARK  Name = ZINC00978656
REMARK  4 active torsions:
REMARK  status: ('A' for Active; 'I' for Inactive)
REMARK    1  A    between atoms: C_1  and  C_2
REMARK    2  A    between atoms: N_13  and  C_14
REMARK    3  A    between atoms: C_14  and  C_16
REMARK    4  A    between atoms: C_14  and  C_17
REMARK                            x       y       z     vdW  Elec       q    Type
REMARK                         _______ _______ _______ _____ _____    ______ ____
ROOT
ATOM      1  C   UNL     1      -0.498   1.520   0.135  0.00  0.00    +0.044 C 
ATOM      2  C   UNL     1      -0.322   0.024   0.117  0.00  0.00    -0.050 A 
ATOM      3  C   UNL     1      -0.011  -0.618  -1.074  0.00  0.00    +0.005 A 
ATOM      4  C   UNL     1       0.154  -1.985  -1.111  0.00  0.00    +0.026 A 
ATOM      5  C   UNL     1       0.010  -2.732   0.053  0.00  0.00    +0.047 A 
ATOM      6  C   UNL     1      -0.306  -2.079   1.263  0.00  0.00    +0.004 A 
ATOM      7  C   UNL     1      -0.464  -0.686   1.274  0.00  0.00    +0.013 A 
ATOM      8  C   UNL     1      -0.385  -3.076   2.256  0.00  0.00    -0.013 A 
ATOM      9  C   UNL     1      -0.125  -4.278   1.658  0.00  0.00    +0.065 A 
ATOM     10  N   UNL     1       0.113  -4.081   0.323  0.00  0.00    -0.353 N 
ATOM     11  H   UNL     1       0.320  -4.774  -0.323  0.00  0.00    +0.166 HD
ATOM     12  C   UNL     1      -0.124  -5.537   2.430  0.00  0.00    +0.060 C 
ATOM     13  N   UNL     1      -0.096  -6.700   1.860  0.00  0.00    -0.278 NA
ATOM     14  C   UNL     1      -0.156  -5.372   3.942  0.00  0.00    +0.057 C 
ATOM     15  C   UNL     1      -1.164  -4.270   4.285  0.00  0.00    +0.011 C 
ATOM     16  C   UNL     1      -0.695  -2.925   3.723  0.00  0.00    +0.038 C 
ENDROOT
BRANCH  13  17
ATOM     17  C   UNL     1       0.053  -7.911   2.672  0.00  0.00    +0.132 C 
ATOM     18  C   UNL     1      -1.233  -8.736   2.598  0.00  0.00    +0.038 C 
BRANCH  17  19
ATOM     19  C   UNL     1       1.205  -8.729   2.147  0.00  0.00    -0.023 A 
ATOM     20  C   UNL     1       1.405  -8.846   0.784  0.00  0.00    +0.006 A 
ATOM     21  C   UNL     1       2.462  -9.596   0.303  0.00  0.00    +0.000 A 
ATOM     22  C   UNL     1       3.319 -10.228   1.184  0.00  0.00    +0.000 A 
ATOM     23  C   UNL     1       3.119 -10.110   2.547  0.00  0.00    +0.000 A 
ATOM     24  C   UNL     1       2.065  -9.357   3.028  0.00  0.00    +0.006 A 
ENDBRANCH  17  19
ENDBRANCH  13  17
TORSDOF 2
