REMARK  Name = ZINC51745963
REMARK  9 active torsions:
REMARK  status: ('A' for Active; 'I' for Inactive)
REMARK    1  A    between atoms: C_1  and  C_2
REMARK    2  A    between atoms: N_5  and  C_8
REMARK    3  A    between atoms: C_8  and  C_9
REMARK    4  A    between atoms: C_8  and  C_21
REMARK    5  A    between atoms: C_9  and  N_10
REMARK    6  A    between atoms: N_13  and  C_14
REMARK    7  A    between atoms: C_14  and  C_15
REMARK    8  A    between atoms: N_17  and  C_18
REMARK    9  A    between atoms: C_18  and  C_19
REMARK                            x       y       z     vdW  Elec       q    Type
REMARK                         _______ _______ _______ _____ _____    ______ ____
ROOT
ATOM      1  C   UNL     1      -0.759  -3.953   1.425  0.00  0.00    -0.020 C 
ENDROOT
BRANCH   1   6
ATOM      2  C   UNL     1      -0.646   1.641   0.321  0.00  0.00    +0.007 C 
ATOM      3  C   UNL     1      -0.495   0.122   0.209  0.00  0.00    -0.018 C 
ATOM      4  C   UNL     1      -1.871  -0.539   0.331  0.00  0.00    -0.015 C 
ATOM      5  C   UNL     1      -1.704  -2.060   0.298  0.00  0.00    -0.078 C 
ATOM      6  N   UNL     1      -0.853  -2.487   1.415  0.00  0.00    +0.385 N 
ATOM      7  C   UNL     1       0.490  -1.913   1.265  0.00  0.00    -0.078 C 
ATOM      8  C   UNL     1       0.408  -0.387   1.336  0.00  0.00    -0.015 C 
ATOM      9  H   UNL     1      -1.257  -2.172   2.284  0.00  0.00    -0.081 HD
ENDBRANCH   1   6
BRANCH   1  10
ATOM     10  C   UNL     1      -2.142  -4.544   1.532  0.00  0.00    -0.059 A 
ATOM     11  C   UNL     1      -3.081  -3.959   2.361  0.00  0.00    +0.002 A 
ATOM     12  C   UNL     1      -4.348  -4.501   2.459  0.00  0.00    +0.000 A 
ATOM     13  C   UNL     1      -4.678  -5.627   1.729  0.00  0.00    +0.000 A 
ATOM     14  C   UNL     1      -3.739  -6.211   0.899  0.00  0.00    +0.000 A 
ATOM     15  C   UNL     1      -2.472  -5.667   0.797  0.00  0.00    +0.002 A 
ENDBRANCH   1  10
BRANCH   1  16
ATOM     16  C   UNL     1       0.082  -4.402   2.621  0.00  0.00    +0.095 C 
BRANCH  16  17
ATOM     17  N   UNL     1       0.238  -5.859   2.589  0.00  0.00    -0.301 N 
ATOM     18  C   UNL     1       0.851  -6.493   3.607  0.00  0.00    +0.300 C 
ATOM     19  O   UNL     1       1.275  -5.857   4.553  0.00  0.00    -0.253 OA
ATOM     20  N   UNL     1       0.995  -7.833   3.578  0.00  0.00    -0.291 N 
ATOM     21  H   UNL     1      -0.101  -6.366   1.835  0.00  0.00    +0.150 HD
ATOM     22  H   UNL     1       0.656  -8.341   2.823  0.00  0.00    +0.151 HD
BRANCH  20  23
ATOM     23  C   UNL     1       1.662  -8.523   4.685  0.00  0.00    +0.201 C 
BRANCH  23  24
ATOM     24  C   UNL     1       1.692 -10.004   4.408  0.00  0.00    +0.231 C 
ATOM     25  O   UNL     1       1.204 -10.441   3.387  0.00  0.00    -0.274 OA
ATOM     26  N   UNL     1       2.260 -10.844   5.296  0.00  0.00    -0.303 N 
ATOM     27  H   UNL     1       2.651 -10.495   6.112  0.00  0.00    +0.150 HD
BRANCH  26  28
ATOM     28  C   UNL     1       2.289 -12.284   5.027  0.00  0.00    +0.193 C 
BRANCH  28  29
ATOM     29  C   UNL     1       2.960 -12.977   6.139  0.00  0.00    -0.087 C 
ATOM     30  C   UNL     1       3.494 -13.530   7.027  0.00  0.00    +0.005 C 
ENDBRANCH  28  29
ENDBRANCH  26  28
ENDBRANCH  23  24
ENDBRANCH  20  23
ENDBRANCH  16  17
ENDBRANCH   1  16
TORSDOF 8
