REMARK  Name = ZINC42361248
REMARK  9 active torsions:
REMARK  status: ('A' for Active; 'I' for Inactive)
REMARK    1  A    between atoms: C_1  and  C_2
REMARK    2  A    between atoms: C_2  and  C_3
REMARK    3  A    between atoms: C_2  and  N_4
REMARK    4  A    between atoms: C_7  and  C_10
REMARK    5  A    between atoms: C_7  and  N_12
REMARK    6  A    between atoms: C_10  and  N_11
REMARK    7  A    between atoms: N_12  and  C_13
REMARK    8  A    between atoms: N_12  and  C_14
REMARK    9  A    between atoms: C_14  and  C_15
REMARK                            x       y       z     vdW  Elec       q    Type
REMARK                         _______ _______ _______ _____ _____    ______ ____
ROOT
ATOM      1  N   UNL     1       0.913  -0.088  -1.606  0.00  0.00    +0.381 N 
ATOM      2  C   UNL     1       2.349   0.147  -1.418  0.00  0.00    -0.077 C 
ATOM      3  C   UNL     1       3.130  -0.503  -2.562  0.00  0.00    +0.002 C 
ATOM      4  C   UNL     1       2.854  -2.009  -2.570  0.00  0.00    +0.003 C 
ATOM      5  C   UNL     1       1.346  -2.241  -2.691  0.00  0.00    +0.002 C 
ATOM      6  C   UNL     1       0.631  -1.527  -1.542  0.00  0.00    -0.077 C 
ATOM      7  H   UNL     1       0.630   0.270  -2.506  0.00  0.00    -0.081 HD
ENDROOT
BRANCH   1   9
ATOM      8  C   UNL     1       0.455   2.104  -0.613  0.00  0.00    -0.014 C 
ATOM      9  C   UNL     1       0.163   0.604  -0.548  0.00  0.00    -0.075 C 
ATOM     10  C   UNL     1      -1.336   0.367  -0.748  0.00  0.00    -0.014 C 
ENDBRANCH   1   9
BRANCH   4  11
ATOM     11  N   UNL     1       3.540  -2.628  -3.712  0.00  0.00    -0.297 NA
ATOM     12  C   UNL     1       2.968  -2.166  -4.983  0.00  0.00    +0.105 C 
BRANCH  11  13
ATOM     13  C   UNL     1       4.986  -2.371  -3.660  0.00  0.00    +0.120 C 
BRANCH  13  14
ATOM     14  C   UNL     1       5.697  -3.312  -4.598  0.00  0.00    -0.025 A 
ATOM     15  C   UNL     1       6.134  -4.546  -4.156  0.00  0.00    +0.028 A 
ATOM     16  C   UNL     1       6.771  -5.369  -5.026  0.00  0.00    +0.055 A 
ATOM     17  S   UNL     1       6.768  -4.396  -6.523  0.00  0.00    -0.090 S 
ATOM     18  C   UNL     1       5.913  -2.962  -5.890  0.00  0.00    +0.051 A 
ATOM     19 BR   UNL     1       7.480  -7.097  -4.730  0.00  0.00    -0.043 Br
ENDBRANCH  13  14
ENDBRANCH  11  13
ENDBRANCH   4  11
BRANCH   4  20
ATOM     20  C   UNL     1       3.364  -2.629  -1.267  0.00  0.00    -0.064 C 
BRANCH  20  21
ATOM     21  N   UNL     1       3.194  -4.087  -1.319  0.00  0.00    +0.379 N 
ATOM     22  H   UNL     1       2.223  -4.307  -1.484  0.00  0.00    -0.090 HD
ATOM     23  H   UNL     1       3.755  -4.465  -2.067  0.00  0.00    -0.090 HD
ATOM     24  H   UNL     1       3.486  -4.492  -0.442  0.00  0.00    -0.090 HD
ENDBRANCH  20  21
ENDBRANCH   4  20
TORSDOF 6
