REMARK  Name = ZINC37701909
REMARK  10 active torsions:
REMARK  status: ('A' for Active; 'I' for Inactive)
REMARK    1  A    between atoms: C_1  and  C_2
REMARK    2  A    between atoms: C_2  and  C_3
REMARK    3  A    between atoms: C_3  and  N_4
REMARK    4  A    between atoms: N_4  and  C_5
REMARK    5  A    between atoms: C_5  and  C_6
REMARK    6  A    between atoms: C_8  and  C_23
REMARK    7  A    between atoms: C_9  and  O_13
REMARK    8  A    between atoms: C_10  and  C_12
REMARK    9  A    between atoms: O_13  and  C_14
REMARK   10  A    between atoms: C_20  and  O_22
REMARK                            x       y       z     vdW  Elec       q    Type
REMARK                         _______ _______ _______ _____ _____    ______ ____
ROOT
ATOM      1  C   UNL     1       1.505  -3.975   2.378  0.00  0.00    -0.064 A 
ATOM      2  C   UNL     1       0.490  -4.655   3.026  0.00  0.00    +0.008 A 
ATOM      3  C   UNL     1       0.487  -6.037   3.048  0.00  0.00    -0.008 A 
ATOM      4  C   UNL     1       1.503  -6.741   2.419  0.00  0.00    +0.127 A 
ATOM      5  C   UNL     1       2.520  -6.057   1.769  0.00  0.00    -0.008 A 
ATOM      6  C   UNL     1       2.515  -4.675   1.746  0.00  0.00    +0.008 A 
ATOM      7  C   UNL     1       3.625  -6.819   1.085  0.00  0.00    +0.047 C 
ATOM      8  C   UNL     1      -0.618  -6.777   3.756  0.00  0.00    +0.047 C 
ENDROOT
BRANCH   1   9
ATOM      9  C   UNL     1       1.506  -2.469   2.356  0.00  0.00    -0.047 C 
BRANCH   9  10
ATOM     10  N   UNL     1       0.763  -1.996   1.180  0.00  0.00    +0.382 N 
ATOM     11  H   UNL     1      -0.188  -2.331   1.226  0.00  0.00    -0.085 HD
ATOM     12  H   UNL     1       1.203  -2.345   0.342  0.00  0.00    -0.085 HD
BRANCH  10  13
ATOM     13  C   UNL     1       0.764  -0.527   1.159  0.00  0.00    -0.082 C 
BRANCH  13  15
ATOM     14  C   UNL     1      -0.009   1.496  -0.088  0.00  0.00    +0.002 C 
ATOM     15  C   UNL     1      -0.010  -0.034  -0.066  0.00  0.00    -0.022 C 
ENDBRANCH  13  15
ENDBRANCH  10  13
ENDBRANCH   9  10
ENDBRANCH   1   9
BRANCH   4  16
ATOM     16  O   UNL     1       1.503  -8.100   2.440  0.00  0.00    -0.486 OA
BRANCH  16  17
ATOM     17  C   UNL     1       0.954  -8.766   1.301  0.00  0.00    +0.202 C 
ATOM     18  C   UNL     1      -0.564  -8.882   1.460  0.00  0.00    +0.047 C 
ATOM     19  C   UNL     1      -1.152  -9.595   0.241  0.00  0.00    +0.004 C 
ATOM     20  C   UNL     1      -0.543 -10.994   0.126  0.00  0.00    +0.003 C 
ATOM     21  C   UNL     1       0.974 -10.879  -0.033  0.00  0.00    +0.035 C 
ATOM     22  C   UNL     1       1.562 -10.165   1.186  0.00  0.00    +0.155 C 
BRANCH  22  23
ATOM     23  O   UNL     1       2.979 -10.058   1.037  0.00  0.00    -0.388 OA
ATOM     24  H   UNL     1       3.432 -10.908   0.958  0.00  0.00    +0.210 HD
ENDBRANCH  22  23
ENDBRANCH  16  17
ENDBRANCH   4  16
TORSDOF 7
