REMARK  Name = ZINC05034816
REMARK  5 active torsions:
REMARK  status: ('A' for Active; 'I' for Inactive)
REMARK    1  A    between atoms: C_1  and  N_36
REMARK    2  A    between atoms: C_2  and  N_36
REMARK    3  A    between atoms: C_3  and  C_4
REMARK    4  A    between atoms: C_3  and  N_36
REMARK    5  A    between atoms: C_4  and  N_5
REMARK                            x       y       z     vdW  Elec       q    Type
REMARK                         _______ _______ _______ _____ _____    ______ ____
ROOT
ATOM      1  N   UNL     1       3.616   1.926  -0.022  0.00  0.00    -0.329 N 
ATOM      2  C   UNL     1       2.385   1.288  -0.014  0.00  0.00    +0.146 A 
ATOM      3  C   UNL     1       1.196   2.030   0.002  0.00  0.00    +0.106 A 
ATOM      4  C   UNL     1      -0.016   1.329   0.009  0.00  0.00    +0.101 A 
ATOM      5  C   UNL     1      -1.083   2.342   0.019  0.00  0.00    +0.027 A 
ATOM      6  C   UNL     1      -2.475   2.269   0.024  0.00  0.00    +0.027 A 
ATOM      7  C   UNL     1      -3.221   3.428   0.033  0.00  0.00    +0.019 A 
ATOM      8  C   UNL     1      -2.591   4.665   0.037  0.00  0.00    +0.017 A 
ATOM      9  C   UNL     1      -1.217   4.751   0.037  0.00  0.00    +0.027 A 
ATOM     10  C   UNL     1      -0.445   3.593   0.025  0.00  0.00    +0.049 A 
ATOM     11  N   UNL     1       0.921   3.384   0.011  0.00  0.00    -0.350 N 
ATOM     12  H   UNL     1       1.590   4.087   0.009  0.00  0.00    +0.166 HD
ATOM     13 BR   UNL     1      -5.110   3.332   0.041  0.00  0.00    -0.050 Br
ATOM     14  N   UNL     1       0.002  -0.004   0.002  0.00  0.00    -0.233 NA
ATOM     15  C   UNL     1       1.143  -0.658  -0.012  0.00  0.00    +0.224 A 
ATOM     16  N   UNL     1       2.309  -0.038  -0.020  0.00  0.00    -0.219 NA
ATOM     17  H   UNL     1       3.660   2.895  -0.017  0.00  0.00    +0.147 HD
ENDROOT
BRANCH   1  18
ATOM     18  C   UNL     1       4.850   1.136  -0.037  0.00  0.00    +0.084 C 
BRANCH  18  19
ATOM     19  C   UNL     1       6.057   2.077  -0.043  0.00  0.00    -0.061 C 
BRANCH  19  22
ATOM     20  C   UNL     1       8.464   2.140  -0.303  0.00  0.00    -0.097 C 
ATOM     21  C   UNL     1       7.449   0.526   1.189  0.00  0.00    -0.097 C 
ATOM     22  N   UNL     1       7.293   1.266  -0.081  0.00  0.00    +0.377 N 
ATOM     23  H   UNL     1       7.227   0.593  -0.853  0.00  0.00    -0.083 HD
ENDBRANCH  19  22
ENDBRANCH  18  19
ENDBRANCH   1  18
TORSDOF 3
