REMARK  Name = ZINC62246695
REMARK  5 active torsions:
REMARK  status: ('A' for Active; 'I' for Inactive)
REMARK    1  A    between atoms: C_1  and  C_2
REMARK    2  A    between atoms: C_4  and  C_17
REMARK    3  A    between atoms: C_6  and  N_8
REMARK    4  A    between atoms: C_9  and  C_16
REMARK    5  A    between atoms: C_10  and  C_13
REMARK                            x       y       z     vdW  Elec       q    Type
REMARK                         _______ _______ _______ _____ _____    ______ ____
ROOT
ATOM      1  N   UNL     1       0.051  -2.798   2.396  0.00  0.00    -0.216 N 
ATOM      2  C   UNL     1       0.669  -2.429   3.539  0.00  0.00    +0.074 A 
ATOM      3  C   UNL     1       0.422  -3.412   4.456  0.00  0.00    +0.170 A 
ATOM      4  N   UNL     1      -0.333  -4.358   3.872  0.00  0.00    -0.124 NA
ATOM      5  N   UNL     1      -0.577  -4.025   2.653  0.00  0.00    -0.060 NA
ATOM      6  C   UNL     1       1.475  -1.175   3.760  0.00  0.00    +0.068 C 
ENDROOT
BRANCH   1  12
ATOM      7  C   UNL     1      -0.018   1.503   0.010  0.00  0.00    +0.044 C 
ATOM      8  C   UNL     1       0.002  -0.004   0.002  0.00  0.00    -0.048 A 
ATOM      9  C   UNL     1       0.006  -0.688  -1.200  0.00  0.00    +0.006 A 
ATOM     10  C   UNL     1       0.025  -2.071  -1.211  0.00  0.00    -0.048 A 
ATOM     11  C   UNL     1       0.040  -2.773  -0.022  0.00  0.00    +0.031 A 
ATOM     12  C   UNL     1       0.036  -2.088   1.186  0.00  0.00    +0.068 A 
ATOM     13  C   UNL     1       0.023  -0.700   1.195  0.00  0.00    +0.031 A 
ATOM     14  C   UNL     1       0.029  -2.813  -2.523  0.00  0.00    +0.044 C 
ENDBRANCH   1  12
BRANCH   3  15
ATOM     15  C   UNL     1       0.903  -3.430   5.850  0.00  0.00    +0.263 C 
ATOM     16  O   UNL     1       1.584  -2.514   6.271  0.00  0.00    -0.269 OA
ATOM     17  N   UNL     1       0.589  -4.463   6.657  0.00  0.00    -0.324 N 
ATOM     18  H   UNL     1       0.047  -5.193   6.322  0.00  0.00    +0.145 HD
ATOM     19  H   UNL     1       0.906  -4.475   7.574  0.00  0.00    +0.145 HD
ENDBRANCH   3  15
TORSDOF 2
