REMARK  Name = ZINC12384125
REMARK  9 active torsions:
REMARK  status: ('A' for Active; 'I' for Inactive)
REMARK    1  A    between atoms: C_1  and  C_2
REMARK    2  A    between atoms: C_2  and  C_25
REMARK    3  A    between atoms: N_5  and  O_6
REMARK    4  A    between atoms: C_7  and  C_13
REMARK    5  A    between atoms: C_9  and  C_11
REMARK    6  A    between atoms: C_9  and  C_12
REMARK    7  A    between atoms: C_13  and  C_15
REMARK    8  A    between atoms: C_13  and  O_24
REMARK    9  A    between atoms: C_19  and  N_21
REMARK                            x       y       z     vdW  Elec       q    Type
REMARK                         _______ _______ _______ _____ _____    ______ ____
ROOT
ATOM      1  C   UNL     1      -0.591  -0.288   1.702  0.00  0.00    -0.010 C 
ATOM      2  C   UNL     1      -0.000  -1.679   1.447  0.00  0.00    -0.068 C 
ATOM      3  C   UNL     1       0.050  -1.943  -0.059  0.00  0.00    +0.041 C 
ATOM      4  C   UNL     1       1.237  -1.202  -0.634  0.00  0.00    +0.061 C 
ATOM      5  N   UNL     1       1.115  -0.374  -1.597  0.00  0.00    -0.096 NA
ATOM      6  C   UNL     1       2.579  -1.503  -0.003  0.00  0.00    +0.058 C 
ATOM      7  C   UNL     1       2.471  -1.253   1.503  0.00  0.00    -0.062 C 
ATOM      8  N   UNL     1       1.286  -1.843   2.098  0.00  0.00    +0.387 N 
ATOM      9  C   UNL     1       3.707  -1.904   2.167  0.00  0.00    -0.010 C 
ATOM     10  C   UNL     1       2.554   0.252   1.777  0.00  0.00    -0.010 C 
ATOM     11  C   UNL     1      -0.976  -2.708   2.063  0.00  0.00    -0.010 C 
ATOM     12  H   UNL     1       1.204  -1.489   3.058  0.00  0.00    -0.084 HD
ATOM     13  H   UNL     1       1.457  -2.848   2.214  0.00  0.00    -0.084 HD
ENDROOT
BRANCH   5  14
ATOM     14  O   UNL     1      -0.161  -0.125  -2.160  0.00  0.00    -0.409 OA
ATOM     15  H   UNL     1      -0.154   0.516  -2.883  0.00  0.00    +0.328 HD
ENDBRANCH   5  14
BRANCH   6  16
ATOM     16  C   UNL     1       3.650  -0.590  -0.605  0.00  0.00    +0.152 C 
BRANCH  16  17
ATOM     17  C   UNL     1       3.847  -0.938  -2.058  0.00  0.00    -0.016 A 
ATOM     18  C   UNL     1       3.275  -0.152  -3.041  0.00  0.00    +0.006 A 
ATOM     19  C   UNL     1       3.457  -0.471  -4.373  0.00  0.00    +0.003 A 
ATOM     20  C   UNL     1       4.210  -1.576  -4.723  0.00  0.00    +0.033 A 
ATOM     21  C   UNL     1       4.782  -2.361  -3.740  0.00  0.00    +0.127 A 
ATOM     22  C   UNL     1       4.605  -2.040  -2.408  0.00  0.00    +0.039 A 
BRANCH  21  23
ATOM     23  N   UNL     1       5.589  -3.545  -4.115  0.00  0.00    +0.056 N 
ATOM     24  O   UNL     1       5.747  -3.825  -5.280  0.00  0.00    -0.126 OA
ATOM     25  O   UNL     1       6.089  -4.232  -3.255  0.00  0.00    -0.126 OA
ENDBRANCH  21  23
ENDBRANCH  16  17
BRANCH  16  26
ATOM     26  O   UNL     1       3.232   0.772  -0.493  0.00  0.00    -0.387 OA
ATOM     27  H   UNL     1       2.401   0.967  -0.949  0.00  0.00    +0.210 HD
ENDBRANCH  16  26
ENDBRANCH   6  16
TORSDOF 5
