REMARK  Name = ZINC12006276
REMARK  4 active torsions:
REMARK  status: ('A' for Active; 'I' for Inactive)
REMARK    1  A    between atoms: C_1  and  C_2
REMARK    2  A    between atoms: C_11  and  N_20
REMARK    3  A    between atoms: C_13  and  C_15
REMARK    4  A    between atoms: C_21  and  C_23
REMARK                            x       y       z     vdW  Elec       q    Type
REMARK                         _______ _______ _______ _____ _____    ______ ____
ROOT
ATOM      1  C   UNL     1       4.905   4.926  -0.020  0.00  0.00    +0.066 C 
ATOM      2  C   UNL     1       3.426   4.638  -0.007  0.00  0.00    +0.047 A 
ATOM      3  C   UNL     1       2.531   5.667   0.007  0.00  0.00    +0.093 A 
ATOM      4  C   UNL     1       1.155   5.371   0.019  0.00  0.00    +0.253 A 
ATOM      5  O   UNL     1       0.326   6.266   0.031  0.00  0.00    -0.268 OA
ATOM      6  N   UNL     1       0.770   4.076   0.011  0.00  0.00    -0.291 N 
ATOM      7  H   UNL     1      -0.172   3.849   0.015  0.00  0.00    +0.172 HD
ATOM      8  C   UNL     1       1.710   3.093   0.002  0.00  0.00    +0.234 A 
ATOM      9  N   UNL     1       2.994   3.378  -0.009  0.00  0.00    -0.217 NA
ATOM     10  N   UNL     1       1.308   1.772  -0.001  0.00  0.00    -0.184 N 
ATOM     11  C   UNL     1       2.131   0.682  -0.015  0.00  0.00    +0.133 A 
ATOM     12  C   UNL     1       1.348  -0.427  -0.013  0.00  0.00    +0.077 A 
ATOM     13  C   UNL     1       0.002  -0.004   0.002  0.00  0.00    +0.130 A 
ATOM     14  N   UNL     1      -0.016   1.313   0.009  0.00  0.00    -0.159 NA
ENDROOT
BRANCH  13  15
ATOM     15  C   UNL     1      -1.183  -0.887   0.009  0.00  0.00    +0.155 A 
ATOM     16  C   UNL     1      -2.481  -0.480   0.028  0.00  0.00    +0.051 A 
ATOM     17  C   UNL     1      -3.271  -1.647   0.024  0.00  0.00    +0.042 A 
ATOM     18  C   UNL     1      -2.426  -2.696   0.011  0.00  0.00    +0.196 A 
ATOM     19  O   UNL     1      -1.166  -2.233   0.002  0.00  0.00    -0.461 OA
ENDBRANCH  13  15
BRANCH  11  20
ATOM     20  N   UNL     1       3.523   0.704  -0.028  0.00  0.00    -0.266 N 
ATOM     21  C   UNL     1       4.216  -0.452  -0.041  0.00  0.00    +0.249 C 
ATOM     22  O   UNL     1       3.625  -1.515  -0.042  0.00  0.00    -0.270 OA
ATOM     23  H   UNL     1       3.995   1.552  -0.027  0.00  0.00    +0.157 HD
BRANCH  21  24
ATOM     24  C   UNL     1       5.694  -0.428  -0.055  0.00  0.00    +0.038 A 
ATOM     25  C   UNL     1       6.414  -1.624  -0.069  0.00  0.00    +0.013 A 
ATOM     26  C   UNL     1       7.793  -1.596  -0.082  0.00  0.00    +0.002 A 
ATOM     27  C   UNL     1       8.463  -0.385  -0.081  0.00  0.00    +0.015 A 
ATOM     28  C   UNL     1       7.755   0.804  -0.068  0.00  0.00    +0.019 A 
ATOM     29  C   UNL     1       6.375   0.790  -0.060  0.00  0.00    +0.028 A 
ATOM     30 BR   UNL     1       8.681   2.453  -0.069  0.00  0.00    -0.050 Br
ENDBRANCH  21  24
ENDBRANCH  11  20
TORSDOF 3
