REMARK  Name = ZINC53631992
REMARK  5 active torsions:
REMARK  status: ('A' for Active; 'I' for Inactive)
REMARK    1  A    between atoms: C_3  and  N_27
REMARK    2  A    between atoms: C_4  and  N_24
REMARK    3  A    between atoms: C_6  and  C_7
REMARK    4  A    between atoms: N_9  and  C_10
REMARK    5  A    between atoms: C_10  and  C_11
REMARK                            x       y       z     vdW  Elec       q    Type
REMARK                         _______ _______ _______ _____ _____    ______ ____
ROOT
ATOM      1  C   UNL     1      -1.175  -0.285   0.174  0.00  0.00    +0.244 C 
ATOM      2  O   UNL     1      -1.220  -1.500   0.204  0.00  0.00    -0.270 OA
ATOM      3  N   UNL     1      -2.316   0.432   0.180  0.00  0.00    -0.307 N 
ATOM      4  H   UNL     1      -2.280   1.401   0.157  0.00  0.00    +0.149 HD
ENDROOT
BRANCH   1  10
ATOM      5  C   UNL     1       0.183   1.800   0.097  0.00  0.00    +0.015 A 
ATOM      6  C   UNL     1       1.401   2.440   0.058  0.00  0.00    +0.026 A 
ATOM      7  C   UNL     1       2.578   1.698   0.051  0.00  0.00    +0.055 A 
ATOM      8  C   UNL     1       2.528   0.307   0.085  0.00  0.00    +0.147 A 
ATOM      9  C   UNL     1       1.314  -0.338   0.124  0.00  0.00    +0.047 A 
ATOM     10  C   UNL     1       0.129   0.404   0.131  0.00  0.00    +0.039 A 
BRANCH   8  11
ATOM     11  N   UNL     1       3.783  -0.478   0.077  0.00  0.00    +0.058 N 
ATOM     12  O   UNL     1       3.844  -1.514  -0.542  0.00  0.00    -0.126 OA
ATOM     13  O   UNL     1       4.747  -0.083   0.691  0.00  0.00    -0.126 OA
ENDBRANCH   8  11
BRANCH   7  14
ATOM     14  N   UNL     1       3.807   2.348   0.011  0.00  0.00    -0.356 N 
ATOM     15  H   UNL     1       3.843   3.313  -0.077  0.00  0.00    +0.142 HD
ATOM     16  H   UNL     1       4.629   1.835   0.071  0.00  0.00    +0.142 HD
ENDBRANCH   7  14
ENDBRANCH   1  10
BRANCH   3  17
ATOM     17  C   UNL     1      -3.610  -0.252   0.223  0.00  0.00    +0.141 C 
BRANCH  17  18
ATOM     18  C   UNL     1      -4.719   0.769   0.221  0.00  0.00    -0.014 A 
ATOM     19  C   UNL     1      -5.206   1.277   1.418  0.00  0.00    +0.010 A 
ATOM     20  C   UNL     1      -6.224   2.213   1.373  0.00  0.00    +0.042 A 
ATOM     21  C   UNL     1      -6.721   2.611   0.136  0.00  0.00    +0.099 A 
ATOM     22  N   UNL     1      -6.230   2.103  -0.983  0.00  0.00    -0.349 N 
ATOM     23  C   UNL     1      -5.255   1.214  -0.970  0.00  0.00    +0.089 A 
ATOM     24  N   UNL     1      -7.745   3.550   0.075  0.00  0.00    -0.317 N 
ATOM     25  C   UNL     1      -8.164   4.198   1.298  0.00  0.00    +0.106 C 
ATOM     26  C   UNL     1      -9.284   3.366   1.969  0.00  0.00    +0.019 C 
ATOM     27  C   UNL     1     -10.531   3.470   1.195  0.00  0.00    +0.002 C 
ATOM     28  C   UNL     1     -10.441   2.909  -0.221  0.00  0.00    +0.002 C 
ATOM     29  C   UNL     1      -9.889   3.968  -1.144  0.00  0.00    +0.019 C 
ATOM     30  C   UNL     1      -8.354   3.850  -1.235  0.00  0.00    +0.106 C 
ATOM     31  H   UNL     1      -6.592   2.395  -1.835  0.00  0.00    +0.167 HD
ENDBRANCH  17  18
ENDBRANCH   3  17
TORSDOF 5
