REMARK  Name = ZINC53867270
REMARK  12 active torsions:
REMARK  status: ('A' for Active; 'I' for Inactive)
REMARK    1  A    between atoms: C_1  and  C_2
REMARK    2  A    between atoms: C_2  and  C_4
REMARK    3  A    between atoms: C_2  and  N_7
REMARK    4  A    between atoms: N_7  and  C_8
REMARK    5  A    between atoms: N_7  and  C_9
REMARK    6  A    between atoms: C_9  and  C_10
REMARK    7  A    between atoms: C_13  and  C_21
REMARK    8  A    between atoms: C_17  and  N_19
REMARK    9  A    between atoms: N_19  and  C_20
REMARK   10  A    between atoms: C_21  and  C_22
REMARK   11  A    between atoms: C_21  and  C_23
REMARK   12  A    between atoms: C_21  and  C_24
REMARK                            x       y       z     vdW  Elec       q    Type
REMARK                         _______ _______ _______ _____ _____    ______ ____
ROOT
ATOM      1  C   UNL     1       3.186   0.007  -2.579  0.00  0.00    -0.042 C 
ATOM      2  C   UNL     1       3.484  -1.466  -2.871  0.00  0.00    +0.004 C 
ATOM      3  C   UNL     1       4.358  -1.571  -4.122  0.00  0.00    -0.005 C 
ATOM      4  C   UNL     1       5.671  -0.821  -3.891  0.00  0.00    +0.002 C 
ATOM      5  C   UNL     1       5.374   0.651  -3.600  0.00  0.00    -0.015 C 
ATOM      6  C   UNL     1       4.500   0.756  -2.348  0.00  0.00    -0.071 C 
ENDROOT
BRANCH   6   7
ATOM      7  N   UNL     1       5.207   0.164  -1.205  0.00  0.00    +0.379 N 
ATOM      8  C   UNL     1       6.408   0.957  -0.908  0.00  0.00    -0.100 C 
ATOM      9  H   UNL     1       4.600   0.159  -0.400  0.00  0.00    -0.086 HD
ATOM     10  H   UNL     1       5.476  -0.782  -1.430  0.00  0.00    -0.086 HD
ENDBRANCH   6   7
BRANCH   3  11
ATOM     11  C   UNL     1       4.655  -3.043  -4.414  0.00  0.00    -0.035 C 
ATOM     12  C   UNL     1       3.342  -3.793  -4.645  0.00  0.00    +0.011 C 
ATOM     13  C   UNL     1       5.530  -3.148  -5.665  0.00  0.00    +0.011 C 
ATOM     14  C   UNL     1       5.392  -3.660  -3.224  0.00  0.00    +0.011 C 
ENDBRANCH   3  11
BRANCH   1  15
ATOM     15  C   UNL     1       2.312   0.112  -1.328  0.00  0.00    -0.077 C 
BRANCH  15  16
ATOM     16  N   UNL     1       1.943   1.516  -1.105  0.00  0.00    +0.380 N 
ATOM     17  C   UNL     1       1.093   1.981  -2.209  0.00  0.00    -0.096 C 
ATOM     18  H   UNL     1       2.779   2.081  -1.063  0.00  0.00    -0.082 HD
BRANCH  16  20
ATOM     19  C   UNL     1       2.094   1.151   1.312  0.00  0.00    -0.013 C 
ATOM     20  C   UNL     1       1.209   1.635   0.161  0.00  0.00    -0.069 C 
BRANCH  20  21
ATOM     21  C   UNL     1       0.825   3.097   0.394  0.00  0.00    -0.025 C 
ATOM     22  C   UNL     1       1.518   3.836   1.541  0.00  0.00    +0.002 C 
ATOM     23  C   UNL     1       0.048   3.430   1.669  0.00  0.00    +0.002 C 
ENDBRANCH  20  21
ENDBRANCH  16  20
ENDBRANCH  15  16
ENDBRANCH   1  15
TORSDOF 6
