REMARK  Name = ZINC63433769
REMARK  6 active torsions:
REMARK  status: ('A' for Active; 'I' for Inactive)
REMARK    1  A    between atoms: C_1  and  C_2
REMARK    2  A    between atoms: C_2  and  C_3
REMARK    3  A    between atoms: C_3  and  C_5
REMARK    4  A    between atoms: C_3  and  N_6
REMARK    5  A    between atoms: C_7  and  C_9
REMARK    6  A    between atoms: C_16  and  C_23
REMARK                            x       y       z     vdW  Elec       q    Type
REMARK                         _______ _______ _______ _____ _____    ______ ____
ROOT
ATOM      1  C   UNL     1      -0.142   0.370   4.861  0.00  0.00    +0.160 C 
ATOM      2  C   UNL     1       0.715   1.184   5.804  0.00  0.00    +0.011 C 
ATOM      3  C   UNL     1       0.928   0.628   7.013  0.00  0.00    +0.049 C 
ATOM      4  C   UNL     1       0.315  -0.684   7.271  0.00  0.00    +0.030 C 
ATOM      5  C   UNL     1       0.505  -1.310   8.514  0.00  0.00    +0.011 A 
ATOM      6  C   UNL     1      -0.067  -2.562   8.787  0.00  0.00    +0.014 A 
ATOM      7  C   UNL     1       0.133  -3.149  10.001  0.00  0.00    -0.050 A 
ATOM      8  C   UNL     1       0.901  -2.520  10.976  0.00  0.00    +0.005 A 
ATOM      9  C   UNL     1       1.471  -1.304  10.744  0.00  0.00    +0.024 A 
ATOM     10  C   UNL     1       1.288  -0.667   9.506  0.00  0.00    +0.042 A 
ATOM     11  N   UNL     1       1.849   0.527   9.276  0.00  0.00    -0.281 N 
ATOM     12  C   UNL     1       1.729   1.192   8.145  0.00  0.00    +0.249 C 
ATOM     13  O   UNL     1       2.275   2.278   8.020  0.00  0.00    -0.270 OA
ATOM     14  C   UNL     1      -0.485  -4.493  10.290  0.00  0.00    +0.044 C 
ATOM     15  S   UNL     1      -0.517  -1.107   5.883  0.00  0.00    -0.107 S 
ATOM     16  H   UNL     1       2.377   0.927   9.986  0.00  0.00    +0.155 HD
ENDROOT
BRANCH   1  18
ATOM     17  N   UNL     1      -0.008  -0.140   2.444  0.00  0.00    -0.312 N 
ATOM     18  C   UNL     1       0.630  -0.011   3.624  0.00  0.00    +0.230 C 
ATOM     19  O   UNL     1       1.826  -0.202   3.690  0.00  0.00    -0.274 OA
ATOM     20  H   UNL     1      -0.965   0.013   2.391  0.00  0.00    +0.149 HD
BRANCH  17  21
ATOM     21  C   UNL     1       0.742  -0.511   1.242  0.00  0.00    +0.070 C 
ATOM     22  C   UNL     1       0.872  -2.034   1.171  0.00  0.00    +0.028 C 
BRANCH  21  24
ATOM     23  C   UNL     1      -0.019   1.526   0.010  0.00  0.00    +0.005 C 
ATOM     24  C   UNL     1       0.002  -0.004   0.002  0.00  0.00    +0.018 C 
ENDBRANCH  21  24
ENDBRANCH  17  21
ENDBRANCH   1  18
TORSDOF 3
