REMARK  Name = ZINC66609001
REMARK  10 active torsions:
REMARK  status: ('A' for Active; 'I' for Inactive)
REMARK    1  A    between atoms: C_1  and  C_2
REMARK    2  A    between atoms: C_2  and  C_3
REMARK    3  A    between atoms: C_3  and  C_4
REMARK    4  A    between atoms: C_4  and  C_5
REMARK    5  A    between atoms: C_5  and  C_7
REMARK    6  A    between atoms: C_5  and  N_16
REMARK    7  A    between atoms: C_12  and  C_15
REMARK    8  A    between atoms: N_16  and  C_17
REMARK    9  A    between atoms: C_17  and  C_18
REMARK   10  A    between atoms: N_20  and  C_21
REMARK                            x       y       z     vdW  Elec       q    Type
REMARK                         _______ _______ _______ _____ _____    ______ ____
ROOT
ATOM      1  N   UNL     1       2.800  -2.310  -2.587  0.00  0.00    +0.392 N 
ATOM      2  H   UNL     1       2.956  -1.355  -2.303  0.00  0.00    -0.084 HD
ATOM      3  H   UNL     1       3.276  -2.932  -1.951  0.00  0.00    -0.084 HD
ENDROOT
BRANCH   1   4
ATOM      4  C   UNL     1       1.359  -2.597  -2.567  0.00  0.00    +0.017 C 
BRANCH   4   5
ATOM      5  C   UNL     1       1.135  -4.063  -2.835  0.00  0.00    +0.204 C 
ATOM      6  O   UNL     1       2.083  -4.796  -3.025  0.00  0.00    -0.277 OA
ATOM      7  N   UNL     1      -0.117  -4.560  -2.864  0.00  0.00    -0.269 N 
ATOM      8  C   UNL     1      -0.324  -5.917  -3.113  0.00  0.00    +0.168 A 
ATOM      9  C   UNL     1       0.681  -6.882  -3.345  0.00  0.00    +0.091 A 
ATOM     10  C   UNL     1       0.081  -8.070  -3.542  0.00  0.00    +0.136 A 
ATOM     11  O   UNL     1      -1.246  -7.890  -3.445  0.00  0.00    -0.358 OA
ATOM     12  N   UNL     1      -1.483  -6.521  -3.167  0.00  0.00    -0.063 NA
ATOM     13  C   UNL     1       0.777  -9.376  -3.824  0.00  0.00    +0.089 C 
ATOM     14  H   UNL     1      -0.875  -3.973  -2.712  0.00  0.00    +0.156 HD
ENDBRANCH   4   5
BRANCH   4  15
ATOM     15  C   UNL     1       0.787  -2.237  -1.194  0.00  0.00    -0.007 C 
BRANCH  15  16
ATOM     16  C   UNL     1       0.895  -0.727  -0.977  0.00  0.00    -0.001 C 
BRANCH  16  18
ATOM     17  C   UNL     1       0.316   1.161   0.554  0.00  0.00    +0.004 C 
ATOM     18  C   UNL     1       0.208  -0.350   0.337  0.00  0.00    -0.003 C 
ENDBRANCH  16  18
ENDBRANCH  15  16
ENDBRANCH   4  15
ENDBRANCH   1   4
BRANCH   1  19
ATOM     19  C   UNL     1       3.319  -2.508  -3.947  0.00  0.00    +0.016 C 
BRANCH  19  20
ATOM     20  C   UNL     1       4.766  -2.091  -3.998  0.00  0.00    +0.200 C 
ATOM     21  O   UNL     1       5.311  -1.670  -2.999  0.00  0.00    -0.278 OA
ATOM     22  N   UNL     1       5.455  -2.185  -5.152  0.00  0.00    -0.285 N 
ATOM     23  H   UNL     1       5.003  -2.459  -5.966  0.00  0.00    +0.155 HD
BRANCH  22  24
ATOM     24  C   UNL     1       6.824  -1.887  -5.178  0.00  0.00    +0.072 A 
ATOM     25  C   UNL     1       7.614  -2.154  -4.069  0.00  0.00    +0.029 A 
ATOM     26  C   UNL     1       8.964  -1.860  -4.094  0.00  0.00    +0.043 A 
ATOM     27  C   UNL     1       9.531  -1.300  -5.226  0.00  0.00    +0.161 A 
ATOM     28  C   UNL     1       8.746  -1.032  -6.337  0.00  0.00    +0.195 A 
ATOM     29  C   UNL     1       7.394  -1.330  -6.317  0.00  0.00    +0.182 A 
ATOM     30  F   UNL     1       6.628  -1.075  -7.401  0.00  0.00    -0.200 F 
ATOM     31  F   UNL     1       9.300  -0.484  -7.440  0.00  0.00    -0.199 F 
ATOM     32  F   UNL     1      10.851  -1.013  -5.248  0.00  0.00    -0.202 F 
ENDBRANCH  22  24
ENDBRANCH  19  20
ENDBRANCH   1  19
TORSDOF 8
