REMARK  Name = ZINC01091791
REMARK  3 active torsions:
REMARK  status: ('A' for Active; 'I' for Inactive)
REMARK    1  A    between atoms: C_4  and  C_7
REMARK    2  A    between atoms: C_10  and  C_11
REMARK    3  A    between atoms: N_18  and  N_19
REMARK                            x       y       z     vdW  Elec       q    Type
REMARK                         _______ _______ _______ _____ _____    ______ ____
ROOT
ATOM      1  N   UNL     1       2.387   9.001  -1.109  0.00  0.00    -0.224 N 
ATOM      2  C   UNL     1       2.498   7.647  -0.863  0.00  0.00    +0.238 A 
ATOM      3  N   UNL     1       3.634   7.149  -0.385  0.00  0.00    -0.180 NA
ATOM      4  C   UNL     1       3.740   5.845  -0.148  0.00  0.00    +0.226 A 
ATOM      5  N   UNL     1       2.709   5.040  -0.385  0.00  0.00    -0.180 NA
ATOM      6  C   UNL     1       1.575   5.538  -0.868  0.00  0.00    +0.226 A 
ATOM      7  N   UNL     1       1.469   6.841  -1.105  0.00  0.00    -0.180 NA
ATOM      8  N   UNL     1       0.505   4.700  -1.120  0.00  0.00    -0.268 N 
ATOM      9  C   UNL     1      -0.636   5.196  -1.743  0.00  0.00    +0.125 A 
ATOM     10  C   UNL     1      -0.904   6.561  -1.705  0.00  0.00    +0.044 A 
ATOM     11  C   UNL     1      -2.042   7.040  -2.329  0.00  0.00    +0.005 A 
ATOM     12  C   UNL     1      -2.877   6.136  -2.972  0.00  0.00    +0.020 A 
ATOM     13  C   UNL     1      -2.552   4.794  -2.965  0.00  0.00    +0.113 A 
ATOM     14  N   UNL     1      -1.457   4.366  -2.367  0.00  0.00    -0.240 NA
ATOM     15  N   UNL     1       4.922   5.327   0.349  0.00  0.00    -0.268 N 
ATOM     16  C   UNL     1       5.082   3.949   0.469  0.00  0.00    +0.125 A 
ATOM     17  C   UNL     1       3.961   3.130   0.549  0.00  0.00    +0.044 A 
ATOM     18  C   UNL     1       4.133   1.762   0.663  0.00  0.00    +0.005 A 
ATOM     19  C   UNL     1       5.427   1.259   0.705  0.00  0.00    +0.020 A 
ATOM     20  C   UNL     1       6.494   2.132   0.627  0.00  0.00    +0.113 A 
ATOM     21  N   UNL     1       6.299   3.432   0.513  0.00  0.00    -0.240 NA
ATOM     22  H   UNL     1       1.559   9.364  -1.459  0.00  0.00    +0.174 HD
ATOM     23  H   UNL     1       0.549   3.765  -0.862  0.00  0.00    +0.156 HD
ATOM     24  H   UNL     1       5.639   5.924   0.613  0.00  0.00    +0.156 HD
ENDROOT
BRANCH   1  31
ATOM     25  C   UNL     1       3.583  10.722   0.203  0.00  0.00    +0.153 C 
ATOM     26  N   UNL     1       4.717  11.368   0.157  0.00  0.00    -0.225 NA
ATOM     27  C   UNL     1       5.420  10.968  -0.938  0.00  0.00    +0.133 C 
ATOM     28  C   UNL     1       6.667  11.422  -1.341  0.00  0.00    +0.079 C 
ATOM     29  C   UNL     1       4.588   9.958  -1.609  0.00  0.00    +0.287 C 
ATOM     30  O   UNL     1       4.849   9.347  -2.630  0.00  0.00    -0.266 OA
ATOM     31  N   UNL     1       3.472   9.850  -0.855  0.00  0.00    -0.164 N 
BRANCH  25  35
ATOM     32  C   UNL     1       0.638  11.235   3.220  0.00  0.00    +0.000 A 
ATOM     33  C   UNL     1       1.806  11.976   3.264  0.00  0.00    +0.001 A 
ATOM     34  C   UNL     1       2.767  11.814   2.288  0.00  0.00    +0.011 A 
ATOM     35  C   UNL     1       2.558  10.900   1.252  0.00  0.00    +0.017 A 
ATOM     36  C   UNL     1       1.375  10.160   1.211  0.00  0.00    +0.011 A 
ATOM     37  C   UNL     1       0.425  10.328   2.197  0.00  0.00    +0.001 A 
ENDBRANCH  25  35
BRANCH  28  38
ATOM     38  C   UNL     1       7.134  11.138  -2.638  0.00  0.00    +0.130 A 
ATOM     39  C   UNL     1       8.417  11.358  -3.110  0.00  0.00    +0.049 A 
ATOM     40  C   UNL     1       8.430  10.927  -4.442  0.00  0.00    +0.042 A 
ATOM     41  C   UNL     1       7.186  10.479  -4.732  0.00  0.00    +0.195 A 
ATOM     42  O   UNL     1       6.411  10.607  -3.646  0.00  0.00    -0.463 OA
ENDBRANCH  28  38
ENDBRANCH   1  31
TORSDOF 3
