REMARK  Name = ZINC37358589
REMARK  6 active torsions:
REMARK  status: ('A' for Active; 'I' for Inactive)
REMARK    1  A    between atoms: C_1  and  N_2
REMARK    2  A    between atoms: C_3  and  N_27
REMARK    3  A    between atoms: C_5  and  C_20
REMARK    4  A    between atoms: N_11  and  C_12
REMARK    5  A    between atoms: C_12  and  C_13
REMARK    6  A    between atoms: C_13  and  N_14
REMARK                            x       y       z     vdW  Elec       q    Type
REMARK                         _______ _______ _______ _____ _____    ______ ____
ROOT
ATOM      1  C   UNL     1      -1.048   1.181  -0.100  0.00  0.00    +0.174 C 
ATOM      2  N   UNL     1      -0.468  -0.164  -0.059  0.00  0.00    -0.251 N 
ATOM      3  C   UNL     1      -0.031  -0.850  -1.130  0.00  0.00    +0.126 A 
ATOM      4  C   UNL     1       0.444  -2.075  -0.677  0.00  0.00    +0.086 A 
ATOM      5  C   UNL     1       1.019  -3.220  -1.272  0.00  0.00    +0.089 A 
ATOM      6  N   UNL     1       1.358  -4.234  -0.486  0.00  0.00    -0.214 NA
ATOM      7  C   UNL     1       1.174  -4.200   0.830  0.00  0.00    +0.218 A 
ATOM      8  N   UNL     1       0.646  -3.175   1.466  0.00  0.00    -0.193 NA
ATOM      9  C   UNL     1       0.258  -2.079   0.785  0.00  0.00    +0.188 A 
ATOM     10  N   UNL     1      -0.280  -0.923   1.102  0.00  0.00    -0.149 NA
ATOM     11  N   UNL     1       1.558  -5.303   1.572  0.00  0.00    -0.315 N 
ATOM     12  H   UNL     1       1.949  -6.073   1.130  0.00  0.00    +0.149 HD
ENDROOT
BRANCH   5  13
ATOM     13  C   UNL     1       1.236  -3.288  -2.735  0.00  0.00    +0.001 A 
ATOM     14  C   UNL     1       1.798  -2.204  -3.410  0.00  0.00    +0.011 A 
ATOM     15  C   UNL     1       1.998  -2.272  -4.773  0.00  0.00    +0.020 A 
ATOM     16  C   UNL     1       1.642  -3.414  -5.471  0.00  0.00    +0.041 A 
ATOM     17  C   UNL     1       1.084  -4.494  -4.806  0.00  0.00    +0.020 A 
ATOM     18  C   UNL     1       0.885  -4.438  -3.442  0.00  0.00    +0.011 A 
ATOM     19 CL   UNL     1       1.896  -3.494  -7.187  0.00  0.00    -0.084 Cl
ENDBRANCH   5  13
BRANCH   3  20
ATOM     20  N   UNL     1      -0.052  -0.415  -2.442  0.00  0.00    -0.343 N 
ATOM     21  H   UNL     1      -0.146   0.530  -2.638  0.00  0.00    +0.144 HD
ATOM     22  H   UNL     1       0.027  -1.056  -3.166  0.00  0.00    +0.144 HD
ENDBRANCH   3  20
BRANCH  11  23
ATOM     23  C   UNL     1       1.373  -5.308   3.026  0.00  0.00    +0.086 C 
BRANCH  23  24
ATOM     24  C   UNL     1       1.876  -6.635   3.599  0.00  0.00    -0.060 C 
BRANCH  24  25
ATOM     25  N   UNL     1       1.690  -6.640   5.056  0.00  0.00    +0.381 N 
ATOM     26  C   UNL     1       2.535  -5.602   5.659  0.00  0.00    -0.079 C 
ATOM     27  C   UNL     1       2.286  -5.549   7.168  0.00  0.00    -0.019 C 
ATOM     28  C   UNL     1       2.627  -6.908   7.784  0.00  0.00    -0.004 C 
ATOM     29  C   UNL     1       1.793  -7.993   7.096  0.00  0.00    -0.019 C 
ATOM     30  C   UNL     1       2.061  -7.956   5.590  0.00  0.00    -0.079 C 
ATOM     31  H   UNL     1       0.723  -6.451   5.272  0.00  0.00    -0.082 HD
ENDBRANCH  24  25
ENDBRANCH  23  24
ENDBRANCH  11  23
TORSDOF 5
