REMARK  Name = ZINC45371048
REMARK  9 active torsions:
REMARK  status: ('A' for Active; 'I' for Inactive)
REMARK    1  A    between atoms: C_1  and  C_2
REMARK    2  A    between atoms: N_11  and  C_12
REMARK    3  A    between atoms: C_12  and  C_13
REMARK    4  A    between atoms: C_13  and  C_14
REMARK    5  A    between atoms: C_14  and  C_15
REMARK    6  A    between atoms: C_15  and  C_16
REMARK    7  A    between atoms: C_16  and  C_17
REMARK    8  A    between atoms: C_16  and  C_18
REMARK    9  A    between atoms: C_16  and  N_21
REMARK                            x       y       z     vdW  Elec       q    Type
REMARK                         _______ _______ _______ _____ _____    ______ ____
ROOT
ATOM      1  C   UNL     1       1.049  -5.121  -2.056  0.00  0.00    +0.019 C 
ENDROOT
BRANCH   1   2
ATOM      2  C   UNL     1      -0.247  -4.890  -1.277  0.00  0.00    +0.105 C 
BRANCH   2  13
ATOM      3  C   UNL     1      -0.018   1.503   0.010  0.00  0.00    +0.044 C 
ATOM      4  C   UNL     1       0.002  -0.004   0.002  0.00  0.00    -0.050 A 
ATOM      5  C   UNL     1       0.006  -0.687  -1.200  0.00  0.00    +0.005 A 
ATOM      6  C   UNL     1       0.023  -2.067  -1.208  0.00  0.00    +0.023 A 
ATOM      7  C   UNL     1       0.038  -2.770  -0.008  0.00  0.00    +0.033 A 
ATOM      8  C   UNL     1       0.037  -2.084   1.197  0.00  0.00    -0.026 A 
ATOM      9  C   UNL     1       0.023  -0.699   1.195  0.00  0.00    +0.008 A 
ATOM     10  C   UNL     1       0.063  -2.811   2.516  0.00  0.00    +0.038 C 
ATOM     11  C   UNL     1      -0.418  -4.251   2.343  0.00  0.00    +0.024 C 
ATOM     12  C   UNL     1       0.366  -4.902   1.196  0.00  0.00    +0.105 C 
ATOM     13  N   UNL     1       0.050  -4.169  -0.037  0.00  0.00    -0.330 N 
ENDBRANCH   2  13
ENDBRANCH   1   2
BRANCH   1  14
ATOM     14  C   UNL     1       0.738  -5.875  -3.351  0.00  0.00    +0.001 C 
BRANCH  14  15
ATOM     15  C   UNL     1       2.034  -6.106  -4.130  0.00  0.00    -0.004 C 
BRANCH  15  16
ATOM     16  C   UNL     1       1.724  -6.859  -5.425  0.00  0.00    +0.004 C 
ATOM     17  C   UNL     1       0.858  -5.981  -6.331  0.00  0.00    -0.001 C 
BRANCH  16  18
ATOM     18  C   UNL     1       3.011  -7.195  -6.132  0.00  0.00    +0.199 C 
ATOM     19  O   UNL     1       4.002  -6.522  -5.940  0.00  0.00    -0.278 OA
ATOM     20  N   UNL     1       3.062  -8.242  -6.979  0.00  0.00    -0.330 N 
ATOM     21  H   UNL     1       2.269  -8.780  -7.133  0.00  0.00    +0.145 HD
ATOM     22  H   UNL     1       3.891  -8.458  -7.434  0.00  0.00    +0.145 HD
ENDBRANCH  16  18
BRANCH  16  23
ATOM     23  N   UNL     1       1.001  -8.098  -5.109  0.00  0.00    +0.387 N 
ATOM     24  H   UNL     1       0.139  -7.874  -4.636  0.00  0.00    -0.089 HD
ATOM     25  H   UNL     1       0.796  -8.595  -5.963  0.00  0.00    -0.089 HD
ATOM     26  H   UNL     1       1.572  -8.678  -4.512  0.00  0.00    -0.089 HD
ENDBRANCH  16  23
ENDBRANCH  15  16
ENDBRANCH  14  15
ENDBRANCH   1  14
TORSDOF 7
