REMARK  Name = ZINC51251506
REMARK  8 active torsions:
REMARK  status: ('A' for Active; 'I' for Inactive)
REMARK    1  A    between atoms: C_1  and  N_2
REMARK    2  A    between atoms: N_2  and  C_3
REMARK    3  A    between atoms: C_3  and  C_4
REMARK    4  A    between atoms: C_4  and  C_9
REMARK    5  A    between atoms: C_9  and  N_10
REMARK    6  A    between atoms: N_10  and  C_11
REMARK    7  A    between atoms: N_10  and  C_12
REMARK    8  A    between atoms: C_12  and  C_13
REMARK                            x       y       z     vdW  Elec       q    Type
REMARK                         _______ _______ _______ _____ _____    ______ ____
ROOT
ATOM      1  C   UNL     1      -2.893  -2.707   0.145  0.00  0.00    -0.074 C 
ENDROOT
BRANCH   1   2
ATOM      2  C   UNL     1      -1.432  -2.253   0.159  0.00  0.00    -0.059 C 
ATOM      3  C   UNL     1      -0.643  -2.973  -0.954  0.00  0.00    +0.003 C 
ATOM      4  C   UNL     1       0.747  -3.236  -0.324  0.00  0.00    +0.000 C 
ATOM      5  C   UNL     1       0.397  -3.591   1.142  0.00  0.00    +0.000 C 
ATOM      6  C   UNL     1      -0.771  -2.645   1.492  0.00  0.00    +0.003 C 
BRANCH   2   7
ATOM      7  C   UNL     1      -1.353  -0.738  -0.039  0.00  0.00    -0.078 C 
BRANCH   7   9
ATOM      8  C   UNL     1       0.127   1.146  -0.173  0.00  0.00    -0.100 C 
ATOM      9  N   UNL     1       0.051  -0.309   0.017  0.00  0.00    +0.377 N 
ATOM     10  H   UNL     1       0.573  -0.771  -0.712  0.00  0.00    -0.086 HD
ATOM     11  H   UNL     1       0.441  -0.551   0.916  0.00  0.00    -0.086 HD
ENDBRANCH   7   9
ENDBRANCH   2   7
ENDBRANCH   1   2
BRANCH   1  12
ATOM     12  N   UNL     1      -3.550  -2.208  -1.070  0.00  0.00    +0.381 N 
ATOM     13  C   UNL     1      -5.006  -2.344  -0.931  0.00  0.00    -0.096 C 
ATOM     14  H   UNL     1      -3.315  -1.236  -1.204  0.00  0.00    -0.082 HD
BRANCH  12  15
ATOM     15  C   UNL     1      -3.093  -2.986  -2.229  0.00  0.00    -0.036 C 
BRANCH  15  16
ATOM     16  C   UNL     1      -3.727  -2.441  -3.482  0.00  0.00    -0.025 A 
ATOM     17  C   UNL     1      -3.272  -1.476  -4.318  0.00  0.00    +0.011 A 
ATOM     18  C   UNL     1      -4.030  -1.133  -5.422  0.00  0.00    +0.028 A 
ATOM     19  C   UNL     1      -5.208  -1.772  -5.635  0.00  0.00    +0.078 A 
ATOM     20  S   UNL     1      -5.269  -2.903  -4.255  0.00  0.00    -0.084 S 
ATOM     21 CL   UNL     1      -6.355  -1.552  -6.920  0.00  0.00    -0.076 Cl
ENDBRANCH  15  16
ENDBRANCH  12  15
ENDBRANCH   1  12
TORSDOF 6
