REMARK  Name = ZINC62646628
REMARK  11 active torsions:
REMARK  status: ('A' for Active; 'I' for Inactive)
REMARK    1  A    between atoms: C_1  and  C_2
REMARK    2  A    between atoms: C_6  and  C_8
REMARK    3  A    between atoms: C_6  and  N_25
REMARK    4  A    between atoms: C_8  and  N_9
REMARK    5  A    between atoms: N_12  and  C_13
REMARK    6  A    between atoms: C_13  and  C_14
REMARK    7  A    between atoms: C_13  and  C_15
REMARK    8  A    between atoms: C_19  and  N_21
REMARK    9  A    between atoms: C_22  and  C_24
REMARK   10  A    between atoms: N_25  and  C_26
REMARK   11  A    between atoms: N_25  and  C_27
REMARK                            x       y       z     vdW  Elec       q    Type
REMARK                         _______ _______ _______ _____ _____    ______ ____
ROOT
ATOM      1  N   UNL     1       2.102  -3.919   2.258  0.00  0.00    -0.301 N 
ATOM      2  C   UNL     1       2.616  -4.746   3.189  0.00  0.00    +0.300 C 
ATOM      3  O   UNL     1       3.404  -4.320   4.012  0.00  0.00    -0.253 OA
ATOM      4  N   UNL     1       2.259  -6.045   3.208  0.00  0.00    -0.293 N 
ATOM      5  H   UNL     1       1.474  -4.259   1.601  0.00  0.00    +0.150 HD
ATOM      6  H   UNL     1       1.631  -6.385   2.552  0.00  0.00    +0.151 HD
ENDROOT
BRANCH   4   7
ATOM      7  C   UNL     1       2.819  -6.944   4.221  0.00  0.00    +0.102 C 
ATOM      8  C   UNL     1       4.171  -7.475   3.740  0.00  0.00    +0.033 C 
BRANCH   7   9
ATOM      9  C   UNL     1       1.876  -8.099   4.444  0.00  0.00    -0.026 A 
ATOM     10  C   UNL     1       1.232  -8.682   3.368  0.00  0.00    +0.005 A 
ATOM     11  C   UNL     1       0.367  -9.742   3.568  0.00  0.00    +0.002 A 
ATOM     12  C   UNL     1       0.143 -10.221   4.844  0.00  0.00    +0.023 A 
ATOM     13  C   UNL     1       0.789  -9.638   5.926  0.00  0.00    +0.034 A 
ATOM     14  C   UNL     1       1.661  -8.577   5.721  0.00  0.00    +0.028 A 
BRANCH  13  15
ATOM     15  N   UNL     1       0.564 -10.121   7.220  0.00  0.00    -0.286 N 
ATOM     16  C   UNL     1       0.321 -11.432   7.418  0.00  0.00    +0.214 C 
ATOM     17  O   UNL     1       0.389 -12.208   6.488  0.00  0.00    -0.276 OA
ATOM     18  C   UNL     1      -0.035 -11.933   8.793  0.00  0.00    +0.109 C 
ATOM     19  H   UNL     1       0.584  -9.512   7.975  0.00  0.00    +0.155 HD
ENDBRANCH  13  15
ENDBRANCH   7   9
ENDBRANCH   4   7
BRANCH   1  20
ATOM     20  C   UNL     1       2.490  -2.507   2.237  0.00  0.00    +0.094 C 
BRANCH  20  26
ATOM     21  C   UNL     1       1.423  -2.253  -2.639  0.00  0.00    +0.007 C 
ATOM     22  C   UNL     1       1.141  -1.642  -1.264  0.00  0.00    -0.015 C 
ATOM     23  C   UNL     1      -0.350  -1.772  -0.945  0.00  0.00    +0.003 C 
ATOM     24  C   UNL     1      -0.632  -1.162   0.429  0.00  0.00    -0.001 C 
ATOM     25  C   UNL     1       0.184  -1.899   1.492  0.00  0.00    -0.010 C 
ATOM     26  C   UNL     1       1.674  -1.769   1.173  0.00  0.00    -0.050 C 
ATOM     27  C   UNL     1       1.957  -2.380  -0.201  0.00  0.00    -0.007 C 
BRANCH  26  28
ATOM     28  N   UNL     1       2.051  -0.349   1.165  0.00  0.00    +0.381 N 
ATOM     29  C   UNL     1       1.804   0.231   2.492  0.00  0.00    -0.096 C 
ATOM     30  C   UNL     1       3.476  -0.223   0.832  0.00  0.00    -0.096 C 
ATOM     31  H   UNL     1       1.500   0.141   0.476  0.00  0.00    -0.082 HD
ENDBRANCH  26  28
ENDBRANCH  20  26
ENDBRANCH   1  20
TORSDOF 6
