REMARK  Name = ZINC65934868
REMARK  8 active torsions:
REMARK  status: ('A' for Active; 'I' for Inactive)
REMARK    1  A    between atoms: C_1  and  C_2
REMARK    2  A    between atoms: C_4  and  C_24
REMARK    3  A    between atoms: C_5  and  C_9
REMARK    4  A    between atoms: C_6  and  C_8
REMARK    5  A    between atoms: C_9  and  N_10
REMARK    6  A    between atoms: N_10  and  C_11
REMARK    7  A    between atoms: C_11  and  C_12
REMARK    8  A    between atoms: C_17  and  N_18
REMARK                            x       y       z     vdW  Elec       q    Type
REMARK                         _______ _______ _______ _____ _____    ______ ____
ROOT
ATOM      1  N   UNL     1       1.451  -4.747  -0.032  0.00  0.00    +0.384 N 
ATOM      2  H   UNL     1       1.917  -4.400  -0.856  0.00  0.00    -0.085 HD
ATOM      3  H   UNL     1       1.927  -4.409   0.791  0.00  0.00    -0.085 HD
ENDROOT
BRANCH   1   4
ATOM      4  C   UNL     1       0.059  -4.275  -0.021  0.00  0.00    -0.046 C 
BRANCH   4   9
ATOM      5  C   UNL     1      -0.018   1.503   0.010  0.00  0.00    +0.044 C 
ATOM      6  C   UNL     1       0.002  -0.004   0.002  0.00  0.00    -0.050 A 
ATOM      7  C   UNL     1       0.006  -0.689  -1.199  0.00  0.00    +0.007 A 
ATOM      8  C   UNL     1       0.025  -2.071  -1.206  0.00  0.00    -0.049 A 
ATOM      9  C   UNL     1       0.040  -2.768  -0.013  0.00  0.00    -0.059 A 
ATOM     10  C   UNL     1       0.037  -2.084   1.188  0.00  0.00    -0.049 A 
ATOM     11  C   UNL     1       0.023  -0.702   1.195  0.00  0.00    +0.007 A 
ATOM     12  C   UNL     1       0.054  -2.844   2.489  0.00  0.00    +0.044 C 
ATOM     13  C   UNL     1       0.027  -2.817  -2.516  0.00  0.00    +0.044 C 
ENDBRANCH   4   9
ENDBRANCH   1   4
BRANCH   1  14
ATOM     14  C   UNL     1       1.470  -6.216  -0.040  0.00  0.00    -0.044 C 
BRANCH  14  15
ATOM     15  C   UNL     1       2.897  -6.700  -0.050  0.00  0.00    -0.043 A 
ATOM     16  C   UNL     1       3.480  -7.107  -1.234  0.00  0.00    +0.003 A 
ATOM     17  C   UNL     1       4.789  -7.551  -1.245  0.00  0.00    +0.000 A 
ATOM     18  C   UNL     1       5.519  -7.590  -0.071  0.00  0.00    +0.002 A 
ATOM     19  C   UNL     1       4.942  -7.184   1.116  0.00  0.00    +0.023 A 
ATOM     20  C   UNL     1       3.629  -6.732   1.129  0.00  0.00    +0.031 A 
BRANCH  20  21
ATOM     21  N   UNL     1       3.044  -6.316   2.328  0.00  0.00    -0.325 N 
ATOM     22  C   UNL     1       2.334  -7.269   3.195  0.00  0.00    +0.133 C 
ATOM     23  C   UNL     1       2.875  -7.120   4.622  0.00  0.00    +0.178 C 
ATOM     24  O   UNL     1       2.815  -5.745   5.007  0.00  0.00    -0.377 OA
ATOM     25  C   UNL     1       3.623  -4.877   4.207  0.00  0.00    +0.178 C 
ATOM     26  C   UNL     1       3.124  -4.912   2.763  0.00  0.00    +0.133 C 
ENDBRANCH  20  21
ENDBRANCH  14  15
ENDBRANCH   1  14
TORSDOF 5
