REMARK  Name = ZINC42879919
REMARK  4 active torsions:
REMARK  status: ('A' for Active; 'I' for Inactive)
REMARK    1  A    between atoms: C_2  and  C_11
REMARK    2  A    between atoms: C_3  and  O_10
REMARK    3  A    between atoms: C_11  and  N_12
REMARK    4  A    between atoms: N_12  and  C_13
REMARK                            x       y       z     vdW  Elec       q    Type
REMARK                         _______ _______ _______ _____ _____    ______ ____
ROOT
ATOM      1  C   UNL     1       1.146   3.597   0.010  0.00  0.00    -0.043 C 
ENDROOT
BRANCH   1   3
ATOM      2  C   UNL     1      -0.017   1.381   0.010  0.00  0.00    +0.054 A 
ATOM      3  C   UNL     1       1.170   2.090   0.002  0.00  0.00    -0.019 A 
ATOM      4  C   UNL     1       2.382   1.417  -0.013  0.00  0.00    +0.122 A 
ATOM      5  C   UNL     1       2.406   0.030  -0.021  0.00  0.00    +0.095 A 
ATOM      6  C   UNL     1       1.219  -0.682  -0.014  0.00  0.00    +0.170 A 
ATOM      7  C   UNL     1       0.002  -0.004   0.002  0.00  0.00    +0.167 A 
ATOM      8  O   UNL     1      -1.009  -0.923   0.007  0.00  0.00    -0.453 OA
ATOM      9  C   UNL     1      -0.406  -2.159  -0.418  0.00  0.00    +0.466 C 
ATOM     10  O   UNL     1       0.970  -2.025  -0.019  0.00  0.00    -0.452 OA
BRANCH   4  11
ATOM     11  O   UNL     1       3.548   2.117  -0.021  0.00  0.00    -0.506 OA
ATOM     12  H   UNL     1       3.894   2.315   0.861  0.00  0.00    +0.292 HD
ENDBRANCH   4  11
ENDBRANCH   1   3
BRANCH   1  13
ATOM     13  N   UNL     1       1.509   4.086   1.347  0.00  0.00    +0.385 N 
ATOM     14  H   UNL     1       0.848   3.735   2.024  0.00  0.00    -0.085 HD
ATOM     15  H   UNL     1       2.435   3.763   1.583  0.00  0.00    -0.085 HD
BRANCH  13  16
ATOM     16  C   UNL     1       1.485   5.554   1.354  0.00  0.00    -0.053 C 
ATOM     17  C   UNL     1       2.632   6.120   0.478  0.00  0.00    +0.001 C 
ATOM     18  C   UNL     1       3.548   6.889   1.466  0.00  0.00    +0.083 C 
ATOM     19  N   UNL     1       3.266   6.255   2.762  0.00  0.00    -0.301 NA
ATOM     20  C   UNL     1       1.784   6.088   2.759  0.00  0.00    +0.043 C 
ATOM     21  C   UNL     1       1.427   5.119   3.877  0.00  0.00    +0.017 C 
ATOM     22  C   UNL     1       1.847   5.766   5.206  0.00  0.00    +0.003 C 
ATOM     23  C   UNL     1       3.332   6.130   5.181  0.00  0.00    +0.015 C 
ATOM     24  C   UNL     1       3.665   6.997   3.951  0.00  0.00    +0.084 C 
ENDBRANCH  13  16
ENDBRANCH   1  13
TORSDOF 4
