REMARK  Name = ZINC37733866
REMARK  6 active torsions:
REMARK  status: ('A' for Active; 'I' for Inactive)
REMARK    1  A    between atoms: C_1  and  C_2
REMARK    2  A    between atoms: C_4  and  C_19
REMARK    3  A    between atoms: C_7  and  O_8
REMARK    4  A    between atoms: O_8  and  C_9
REMARK    5  A    between atoms: C_9  and  C_10
REMARK    6  A    between atoms: C_19  and  N_21
REMARK                            x       y       z     vdW  Elec       q    Type
REMARK                         _______ _______ _______ _____ _____    ______ ____
ROOT
ATOM      1  C   UNL     1      -0.018   1.503   0.010  0.00  0.00    +0.047 C 
ATOM      2  C   UNL     1       0.002  -0.004   0.002  0.00  0.00    -0.008 A 
ATOM      3  C   UNL     1       0.006  -0.685  -1.195  0.00  0.00    +0.017 A 
ATOM      4  C   UNL     1       0.025  -2.083  -1.202  0.00  0.00    +0.003 A 
ATOM      5  C   UNL     1       0.041  -2.783   0.008  0.00  0.00    +0.014 A 
ATOM      6  C   UNL     1       0.037  -2.094   1.200  0.00  0.00    +0.046 A 
ATOM      7  C   UNL     1       0.023  -0.704   1.202  0.00  0.00    +0.124 A 
ENDROOT
BRANCH   4   8
ATOM      8  C   UNL     1       0.029  -2.816  -2.480  0.00  0.00    +0.077 C 
ATOM      9  S   UNL     1       0.863  -2.176  -3.832  0.00  0.00    -0.035 S 
BRANCH   8  10
ATOM     10  N   UNL     1      -0.625  -3.990  -2.586  0.00  0.00    -0.352 N 
ATOM     11  H   UNL     1      -1.098  -4.352  -1.820  0.00  0.00    +0.143 HD
ATOM     12  H   UNL     1      -0.623  -4.472  -3.427  0.00  0.00    +0.143 HD
ENDBRANCH   8  10
ENDBRANCH   4   8
BRANCH   7  13
ATOM     13  O   UNL     1       0.025  -0.029   2.380  0.00  0.00    -0.487 OA
BRANCH  13  14
ATOM     14  C   UNL     1       0.047  -0.811   3.576  0.00  0.00    +0.264 C 
BRANCH  14  15
ATOM     15  C   UNL     1       0.046   0.104   4.774  0.00  0.00    -0.007 A 
ATOM     16  C   UNL     1       1.243   0.543   5.307  0.00  0.00    +0.011 A 
ATOM     17  C   UNL     1       1.247   1.383   6.405  0.00  0.00    +0.050 A 
ATOM     18  C   UNL     1       0.050   1.785   6.975  0.00  0.00    +0.166 A 
ATOM     19  C   UNL     1      -1.156   1.343   6.438  0.00  0.00    +0.167 A 
ATOM     20  C   UNL     1      -1.153   0.506   5.333  0.00  0.00    +0.056 A 
ATOM     21  O   UNL     1      -2.180   1.873   7.168  0.00  0.00    -0.453 OA
ATOM     22  C   UNL     1      -1.583   2.313   8.403  0.00  0.00    +0.466 C 
ATOM     23  O   UNL     1      -0.218   2.593   8.042  0.00  0.00    -0.453 OA
ENDBRANCH  14  15
ENDBRANCH  13  14
ENDBRANCH   7  13
TORSDOF 5
