REMARK  Name = ZINC08789983
REMARK  6 active torsions:
REMARK  status: ('A' for Active; 'I' for Inactive)
REMARK    1  A    between atoms: C_4  and  C_7
REMARK    2  A    between atoms: C_7  and  C_8
REMARK    3  A    between atoms: C_8  and  N_9
REMARK    4  A    between atoms: C_14  and  C_31
REMARK    5  A    between atoms: C_31  and  C_32
REMARK    6  A    between atoms: C_35  and  O_38
REMARK                            x       y       z     vdW  Elec       q    Type
REMARK                         _______ _______ _______ _____ _____    ______ ____
ROOT
ATOM      1  N   UNL     1      -3.049   3.070   1.476  0.00  0.00    -0.241 N 
ATOM      2  C   UNL     1      -3.131   4.406   1.489  0.00  0.00    +0.224 C 
ATOM      3  O   UNL     1      -2.186   5.165   1.500  0.00  0.00    -0.275 OA
ATOM      4  C   UNL     1      -4.584   4.819   1.485  0.00  0.00    +0.073 C 
ATOM      5  C   UNL     1      -4.928   5.475   2.839  0.00  0.00    -0.053 C 
ATOM      6  C   UNL     1      -6.055   3.429   2.852  0.00  0.00    +0.050 C 
ATOM      7  C   UNL     1      -5.344   3.463   1.493  0.00  0.00    +0.088 C 
ATOM      8  C   UNL     1      -4.229   2.441   1.478  0.00  0.00    +0.225 C 
ATOM      9  O   UNL     1      -4.382   1.238   1.469  0.00  0.00    -0.275 OA
ATOM     10  C   UNL     1      -6.100   2.036   3.415  0.00  0.00    -0.026 A 
ATOM     11  C   UNL     1      -5.130   1.120   3.755  0.00  0.00    +0.024 A 
ATOM     12  C   UNL     1      -5.492  -0.116   4.264  0.00  0.00    +0.041 A 
ATOM     13  C   UNL     1      -6.830  -0.426   4.429  0.00  0.00    +0.022 A 
ATOM     14  C   UNL     1      -7.805   0.490   4.090  0.00  0.00    +0.025 A 
ATOM     15  C   UNL     1      -7.449   1.735   3.578  0.00  0.00    +0.036 A 
ATOM     16  N   UNL     1      -8.237   2.813   3.169  0.00  0.00    -0.286 N 
ATOM     17  C   UNL     1      -7.495   3.848   2.729  0.00  0.00    +0.211 C 
ATOM     18  O   UNL     1      -7.907   4.910   2.314  0.00  0.00    -0.277 OA
ATOM     19 CL   UNL     1      -4.271  -1.272   4.692  0.00  0.00    -0.084 Cl
ATOM     20  H   UNL     1      -9.207   2.817   3.199  0.00  0.00    +0.155 HD
ATOM     21  N   UNL     1      -5.308   4.347   3.692  0.00  0.00    +0.394 N 
ATOM     22  H   UNL     1      -5.894   4.673   4.471  0.00  0.00    -0.083 HD
ATOM     23  H   UNL     1      -4.470   3.886   4.065  0.00  0.00    -0.083 HD
ENDROOT
BRANCH   1  24
ATOM     24  C   UNL     1      -1.770   2.355   1.466  0.00  0.00    +0.121 C 
BRANCH  24  25
ATOM     25  C   UNL     1      -1.332   2.114   0.020  0.00  0.00    +0.054 C 
BRANCH  25  29
ATOM     26  C   UNL     1       2.396   0.029  -0.022  0.00  0.00    +0.000 A 
ATOM     27  C   UNL     1       1.208  -0.679  -0.013  0.00  0.00    +0.000 A 
ATOM     28  C   UNL     1       0.002  -0.004   0.002  0.00  0.00    +0.004 A 
ATOM     29  C   UNL     1      -0.017   1.378   0.010  0.00  0.00    -0.046 A 
ATOM     30  C   UNL     1       1.171   2.086   0.002  0.00  0.00    +0.004 A 
ATOM     31  C   UNL     1       2.377   1.411  -0.015  0.00  0.00    +0.000 A 
ENDBRANCH  25  29
ENDBRANCH  24  25
ENDBRANCH   1  24
BRANCH   5  32
ATOM     32  C   UNL     1      -3.709   6.214   3.396  0.00  0.00    +0.020 C 
BRANCH  32  33
ATOM     33  C   UNL     1      -4.099   6.948   4.654  0.00  0.00    -0.049 A 
ATOM     34  C   UNL     1      -4.559   8.249   4.579  0.00  0.00    +0.007 A 
ATOM     35  C   UNL     1      -4.922   8.922   5.730  0.00  0.00    +0.045 A 
ATOM     36  C   UNL     1      -4.814   8.294   6.963  0.00  0.00    +0.117 A 
ATOM     37  C   UNL     1      -4.347   6.990   7.035  0.00  0.00    +0.045 A 
ATOM     38  C   UNL     1      -3.991   6.319   5.881  0.00  0.00    +0.007 A 
BRANCH  36  39
ATOM     39  O   UNL     1      -5.164   8.956   8.097  0.00  0.00    -0.507 OA
ATOM     40  H   UNL     1      -4.439   9.448   8.505  0.00  0.00    +0.292 HD
ENDBRANCH  36  39
ENDBRANCH  32  33
ENDBRANCH   5  32
TORSDOF 6
