REMARK  Name = ZINC51157056
REMARK  5 active torsions:
REMARK  status: ('A' for Active; 'I' for Inactive)
REMARK    1  A    between atoms: C_1  and  C_2
REMARK    2  A    between atoms: C_2  and  C_3
REMARK    3  A    between atoms: C_6  and  S_9
REMARK    4  A    between atoms: S_9  and  N_12
REMARK    5  A    between atoms: N_12  and  C_13
REMARK                            x       y       z     vdW  Elec       q    Type
REMARK                         _______ _______ _______ _____ _____    ______ ____
ROOT
ATOM      1  S   UNL     1      -5.658  -2.093   0.045  0.00  0.00    +0.059 S 
ATOM      2  O   UNL     1      -5.858  -2.749  -1.200  0.00  0.00    -0.153 OA
ATOM      3  O   UNL     1      -5.838  -2.753   1.291  0.00  0.00    -0.153 OA
ENDROOT
BRANCH   1   7
ATOM      4  C   UNL     1      -1.412  -0.526   0.013  0.00  0.00    -0.048 A 
ATOM      5  C   UNL     1      -2.051  -0.766   1.215  0.00  0.00    +0.005 A 
ATOM      6  C   UNL     1      -3.348  -1.244   1.225  0.00  0.00    +0.029 A 
ATOM      7  C   UNL     1      -4.006  -1.482   0.032  0.00  0.00    +0.105 A 
ATOM      8  C   UNL     1      -3.367  -1.241  -1.170  0.00  0.00    +0.029 A 
ATOM      9  C   UNL     1      -2.072  -0.758  -1.179  0.00  0.00    +0.005 A 
BRANCH   4  11
ATOM     10  C   UNL     1      -0.019   1.526   0.010  0.00  0.00    +0.009 C 
ATOM     11  C   UNL     1       0.002  -0.004   0.002  0.00  0.00    +0.032 C 
ENDBRANCH   4  11
ENDBRANCH   1   7
BRANCH   1  12
ATOM     12  N   UNL     1      -6.666  -0.779   0.055  0.00  0.00    -0.178 NA
ATOM     13  H   UNL     1      -7.237  -0.612   0.822  0.00  0.00    +0.149 HD
BRANCH  12  14
ATOM     14  C   UNL     1      -6.696   0.130  -1.093  0.00  0.00    +0.162 C 
ATOM     15  C   UNL     1      -6.920   1.562  -0.602  0.00  0.00    +0.031 C 
ATOM     16  C   UNL     1      -7.222   2.450  -1.815  0.00  0.00    +0.021 C 
ATOM     17  C   UNL     1      -8.576   2.040  -2.397  0.00  0.00    +0.104 C 
ATOM     18  N   UNL     1      -8.625   0.599  -2.610  0.00  0.00    -0.314 N 
ATOM     19  C   UNL     1      -7.808  -0.271  -2.019  0.00  0.00    +0.232 C 
ATOM     20  O   UNL     1      -7.971  -1.452  -2.242  0.00  0.00    -0.274 OA
ATOM     21  H   UNL     1      -9.296   0.253  -3.220  0.00  0.00    +0.149 HD
ENDBRANCH  12  14
ENDBRANCH   1  12
TORSDOF 4
