REMARK  Name = ZINC42493535
REMARK  5 active torsions:
REMARK  status: ('A' for Active; 'I' for Inactive)
REMARK    1  A    between atoms: C_1  and  C_2
REMARK    2  A    between atoms: C_7  and  N_10
REMARK    3  A    between atoms: N_10  and  C_11
REMARK    4  A    between atoms: N_10  and  S_12
REMARK    5  A    between atoms: S_12  and  N_15
REMARK                            x       y       z     vdW  Elec       q    Type
REMARK                         _______ _______ _______ _____ _____    ______ ____
ROOT
ATOM      1  S   UNL     1       2.884  -3.329   0.158  0.00  0.00    +0.100 S 
ATOM      2  O   UNL     1       3.566  -3.150  -1.076  0.00  0.00    -0.141 OA
ATOM      3  O   UNL     1       3.453  -2.954   1.405  0.00  0.00    -0.141 OA
ENDROOT
BRANCH   1   4
ATOM      4  N   UNL     1       2.522  -4.941   0.269  0.00  0.00    -0.164 NA
ATOM      5  C   UNL     1       2.294  -5.575   1.577  0.00  0.00    +0.125 C 
ATOM      6  C   UNL     1       3.174  -6.826   1.671  0.00  0.00    +0.098 C 
ATOM      7  N   UNL     1       2.920  -7.689   0.510  0.00  0.00    -0.313 NA
ATOM      8  C   UNL     1       3.296  -7.020  -0.743  0.00  0.00    +0.098 C 
ATOM      9  C   UNL     1       2.414  -5.776  -0.937  0.00  0.00    +0.125 C 
ATOM     10  H   UNL     1       3.398  -8.573   0.605  0.00  0.00    +0.122 HD
ENDBRANCH   1   4
BRANCH   1  11
ATOM     11  N   UNL     1       1.448  -2.513   0.028  0.00  0.00    -0.166 NA
ATOM     12  C   UNL     1       0.871  -2.252  -1.293  0.00  0.00    +0.133 C 
BRANCH  11  18
ATOM     13  C   UNL     1       2.859   1.114   1.850  0.00  0.00    +0.007 C 
ATOM     14  C   UNL     1       1.965   0.130   1.093  0.00  0.00    -0.013 C 
ATOM     15  C   UNL     1       0.661   0.827   0.698  0.00  0.00    +0.003 C 
ATOM     16  C   UNL     1      -0.234  -0.157  -0.059  0.00  0.00    +0.002 C 
ATOM     17  C   UNL     1      -0.547  -1.355   0.839  0.00  0.00    +0.021 C 
ATOM     18  C   UNL     1       0.756  -2.052   1.234  0.00  0.00    +0.081 C 
ATOM     19  C   UNL     1       1.651  -1.069   1.991  0.00  0.00    +0.024 C 
ENDBRANCH  11  18
ENDBRANCH   1  11
TORSDOF 3
