REMARK  Name = ZINC24770375
REMARK  4 active torsions:
REMARK  status: ('A' for Active; 'I' for Inactive)
REMARK    1  A    between atoms: C_4  and  C_7
REMARK    2  A    between atoms: C_8  and  C_9
REMARK    3  A    between atoms: C_24  and  O_32
REMARK    4  A    between atoms: C_27  and  C_29
REMARK                            x       y       z     vdW  Elec       q    Type
REMARK                         _______ _______ _______ _____ _____    ______ ____
ROOT
ATOM      1  C   UNL     1       4.926   1.040  -0.273  0.00  0.00    +0.156 A 
ATOM      2  N   UNL     1       6.061   1.739  -0.277  0.00  0.00    -0.213 NA
ATOM      3  C   UNL     1       7.233   1.172  -0.059  0.00  0.00    +0.134 A 
ATOM      4  C   UNL     1       7.295  -0.231   0.179  0.00  0.00    +0.051 A 
ATOM      5  C   UNL     1       8.471  -1.063   0.436  0.00  0.00    -0.025 A 
ATOM      6  C   UNL     1       8.259  -2.380   0.634  0.00  0.00    -0.004 A 
ATOM      7  S   UNL     1       6.505  -2.593   0.490  0.00  0.00    -0.073 S 
ATOM      8  C   UNL     1       6.057  -0.908   0.165  0.00  0.00    +0.114 A 
ATOM      9  N   UNL     1       4.926  -0.272  -0.056  0.00  0.00    -0.221 NA
ATOM     10  C   UNL     1       9.288  -3.433   0.913  0.00  0.00    +0.043 C 
ATOM     11  C   UNL     1      10.672  -2.860   0.577  0.00  0.00    +0.005 C 
ATOM     12  C   UNL     1      10.796  -1.472   1.212  0.00  0.00    +0.005 C 
ATOM     13  C   UNL     1       9.883  -0.484   0.484  0.00  0.00    +0.037 C 
ATOM     14  N   UNL     1       8.389   1.932  -0.066  0.00  0.00    -0.300 N 
ATOM     15  C   UNL     1       8.853   2.182  -1.455  0.00  0.00    +0.138 C 
ATOM     16  C   UNL     1       9.774   3.419  -1.304  0.00  0.00    +0.134 C 
ATOM     17  C   UNL     1       9.045   4.264  -0.233  0.00  0.00    +0.064 C 
ATOM     18  C   UNL     1       8.150   3.266   0.526  0.00  0.00    +0.163 C 
ENDROOT
BRANCH  18  19
ATOM     19  C   UNL     1       8.520   3.253   1.986  0.00  0.00    +0.231 C 
ATOM     20  O   UNL     1       8.943   2.237   2.496  0.00  0.00    -0.274 OA
ATOM     21  N   UNL     1       8.381   4.370   2.727  0.00  0.00    -0.328 N 
ATOM     22  H   UNL     1       8.651   4.361   3.793  0.00  0.00    +0.145 HD
ATOM     23  H   UNL     1       7.998   5.292   2.265  0.00  0.00    +0.145 HD
ENDBRANCH  18  19
BRANCH   1  25
ATOM     24  C   UNL     1       2.499   1.039  -0.521  0.00  0.00    +0.011 C 
ATOM     25  C   UNL     1       3.650   1.733  -0.518  0.00  0.00    +0.049 C 
BRANCH  24  29
ATOM     26  C   UNL     1      -1.178   3.035  -1.228  0.00  0.00    +0.000 A 
ATOM     27  C   UNL     1      -1.167   1.669  -1.007  0.00  0.00    +0.001 A 
ATOM     28  C   UNL     1       0.023   1.014  -0.771  0.00  0.00    +0.008 A 
ATOM     29  C   UNL     1       1.222   1.732  -0.767  0.00  0.00    -0.025 A 
ATOM     30  C   UNL     1       1.204   3.111  -0.996  0.00  0.00    +0.008 A 
ATOM     31  C   UNL     1       0.005   3.752  -1.225  0.00  0.00    +0.001 A 
ENDBRANCH  24  29
ENDBRANCH   1  25
BRANCH  16  32
ATOM     32  O   UNL     1       9.865   4.135  -2.537  0.00  0.00    -0.390 OA
ATOM     33  H   UNL     1      10.482   5.044  -2.601  0.00  0.00    +0.210 HD
ENDBRANCH  16  32
TORSDOF 4
