REMARK  Name = ZINC28048700
REMARK  7 active torsions:
REMARK  status: ('A' for Active; 'I' for Inactive)
REMARK    1  A    between atoms: C_1  and  C_2
REMARK    2  A    between atoms: C_2  and  N_3
REMARK    3  A    between atoms: C_12  and  O_13
REMARK    4  A    between atoms: C_14  and  N_15
REMARK    5  A    between atoms: N_18  and  C_19
REMARK    6  A    between atoms: C_22  and  C_28
REMARK    7  A    between atoms: C_24  and  N_25
REMARK                            x       y       z     vdW  Elec       q    Type
REMARK                         _______ _______ _______ _____ _____    ______ ____
ROOT
ATOM      1  N   UNL     1       3.471   3.577  -1.155  0.00  0.00    -0.383 N 
ATOM      2  C   UNL     1       2.346   4.071  -0.524  0.00  0.00    +0.075 A 
ATOM      3  C   UNL     1       1.107   3.280  -0.451  0.00  0.00    +0.042 A 
ATOM      4  C   UNL     1       1.033   2.006  -1.018  0.00  0.00    +0.013 A 
ATOM      5  C   UNL     1      -0.140   1.290  -0.933  0.00  0.00    +0.001 A 
ATOM      6  C   UNL     1      -1.245   1.831  -0.293  0.00  0.00    +0.004 A 
ATOM      7  C   UNL     1      -1.184   3.085   0.276  0.00  0.00    +0.047 A 
ATOM      8  C   UNL     1      -0.010   3.825   0.202  0.00  0.00    +0.141 A 
ATOM      9  O   UNL     1       0.062   5.056   0.751  0.00  0.00    -0.424 OA
ATOM     10  C   UNL     1       1.183   5.794   0.695  0.00  0.00    +0.309 A 
ATOM     11  C   UNL     1       2.347   5.325   0.061  0.00  0.00    +0.140 A 
ATOM     12  H   UNL     1       3.939   2.647  -0.799  0.00  0.00    +0.160 HD
ENDROOT
BRANCH  11  13
ATOM     13  N   UNL     1       3.504   6.125   0.021  0.00  0.00    -0.262 N 
ATOM     14  C   UNL     1       3.420   7.412  -0.370  0.00  0.00    +0.308 C 
ATOM     15  O   UNL     1       2.332   7.913  -0.583  0.00  0.00    -0.252 OA
ATOM     16  N   UNL     1       4.541   8.144  -0.524  0.00  0.00    -0.267 N 
ATOM     17  H   UNL     1       4.477   5.700   0.308  0.00  0.00    +0.157 HD
ATOM     18  H   UNL     1       5.527   7.667  -0.423  0.00  0.00    +0.156 HD
BRANCH  16  19
ATOM     19  C   UNL     1       4.450   9.510  -0.813  0.00  0.00    +0.065 A 
ATOM     20  C   UNL     1       3.465   9.976  -1.674  0.00  0.00    +0.026 A 
ATOM     21  C   UNL     1       3.378  11.324  -1.957  0.00  0.00    +0.005 A 
ATOM     22  C   UNL     1       4.271  12.211  -1.385  0.00  0.00    -0.048 A 
ATOM     23  C   UNL     1       5.254  11.751  -0.527  0.00  0.00    +0.038 A 
ATOM     24  C   UNL     1       5.342  10.404  -0.236  0.00  0.00    +0.148 A 
ATOM     25  C   UNL     1       4.173  13.683  -1.695  0.00  0.00    +0.044 C 
BRANCH  24  26
ATOM     26  N   UNL     1       6.390   9.913   0.687  0.00  0.00    +0.058 N 
ATOM     27  O   UNL     1       7.125  10.704   1.250  0.00  0.00    -0.126 OA
ATOM     28  O   UNL     1       6.518   8.717   0.883  0.00  0.00    -0.126 OA
ENDBRANCH  24  26
ENDBRANCH  16  19
ENDBRANCH  11  13
BRANCH   1  30
ATOM     29  C   UNL     1       5.119   3.866  -2.944  0.00  0.00    +0.026 C 
ATOM     30  C   UNL     1       3.872   4.444  -2.271  0.00  0.00    +0.109 C 
ENDBRANCH   1  30
BRANCH  10  31
ATOM     31  O   UNL     1       1.191   6.899   1.208  0.00  0.00    -0.479 OA
ATOM     32  H   UNL     1       2.101   7.516   1.171  0.00  0.00    +0.295 HD
ENDBRANCH  10  31
TORSDOF 5
