REMARK  Name = ZINC44249607
REMARK  6 active torsions:
REMARK  status: ('A' for Active; 'I' for Inactive)
REMARK    1  A    between atoms: C_3  and  N_22
REMARK    2  A    between atoms: C_6  and  C_7
REMARK    3  A    between atoms: C_7  and  C_9
REMARK    4  A    between atoms: C_7  and  C_11
REMARK    5  A    between atoms: C_9  and  N_10
REMARK    6  A    between atoms: C_14  and  C_17
REMARK                            x       y       z     vdW  Elec       q    Type
REMARK                         _______ _______ _______ _____ _____    ______ ____
ROOT
ATOM      1  C   UNL     1      -1.293  -0.775   0.010  0.00  0.00    +0.052 C 
ENDROOT
BRANCH   1   2
ATOM      2  C   UNL     1      -1.372  -1.636  -1.224  0.00  0.00    +0.065 A 
ATOM      3  C   UNL     1      -2.409  -1.450  -2.122  0.00  0.00    +0.063 A 
ATOM      4  C   UNL     1      -2.472  -2.248  -3.255  0.00  0.00    +0.035 A 
ATOM      5  C   UNL     1      -1.487  -3.206  -3.443  0.00  0.00    +0.074 A 
ATOM      6  C   UNL     1      -0.483  -3.333  -2.503  0.00  0.00    +0.123 A 
ATOM      7  N   UNL     1      -0.451  -2.554  -1.439  0.00  0.00    -0.257 NA
ATOM      8 CL   UNL     1      -3.614  -0.235  -1.834  0.00  0.00    -0.082 Cl
BRANCH   5   9
ATOM      9  C   UNL     1      -1.512  -4.097  -4.658  0.00  0.00    +0.419 C 
ATOM     10  F   UNL     1      -0.791  -3.494  -5.694  0.00  0.00    -0.166 F 
ATOM     11  F   UNL     1      -0.933  -5.331  -4.343  0.00  0.00    -0.166 F 
ATOM     12  F   UNL     1      -2.836  -4.294  -5.065  0.00  0.00    -0.166 F 
ENDBRANCH   5   9
ENDBRANCH   1   2
BRANCH   1  18
ATOM     13  C   UNL     1      -0.017   1.378   0.010  0.00  0.00    +0.006 A 
ATOM     14  C   UNL     1       1.171   2.086   0.002  0.00  0.00    +0.033 A 
ATOM     15  C   UNL     1       2.377   1.411  -0.013  0.00  0.00    +0.126 A 
ATOM     16  C   UNL     1       2.396   0.029  -0.020  0.00  0.00    +0.033 A 
ATOM     17  C   UNL     1       1.208  -0.679  -0.012  0.00  0.00    +0.006 A 
ATOM     18  C   UNL     1       0.002  -0.004   0.002  0.00  0.00    -0.040 A 
BRANCH  15  19
ATOM     19  N   UNL     1       3.649   2.168  -0.022  0.00  0.00    +0.056 N 
ATOM     20  O   UNL     1       3.633   3.377  -0.016  0.00  0.00    -0.126 OA
ATOM     21  O   UNL     1       4.704   1.578  -0.035  0.00  0.00    -0.126 OA
ENDBRANCH  15  19
ENDBRANCH   1  18
BRANCH   1  22
ATOM     22  C   UNL     1      -1.350  -1.663   1.255  0.00  0.00    -0.072 C 
BRANCH  22  23
ATOM     23  N   UNL     1      -1.393  -0.818   2.457  0.00  0.00    +0.379 N 
ATOM     24  H   UNL     1      -0.566  -0.242   2.492  0.00  0.00    -0.090 HD
ATOM     25  H   UNL     1      -2.212  -0.230   2.425  0.00  0.00    -0.090 HD
ATOM     26  H   UNL     1      -1.431  -1.403   3.278  0.00  0.00    -0.090 HD
ENDBRANCH  22  23
ENDBRANCH   1  22
TORSDOF 6
