REMARK  Name = ZINC20185231
REMARK  4 active torsions:
REMARK  status: ('A' for Active; 'I' for Inactive)
REMARK    1  A    between atoms: C_9  and  C_10
REMARK    2  A    between atoms: C_10  and  N_11
REMARK    3  A    between atoms: N_11  and  C_12
REMARK    4  A    between atoms: C_12  and  C_13
REMARK                            x       y       z     vdW  Elec       q    Type
REMARK                         _______ _______ _______ _____ _____    ______ ____
ROOT
ATOM      1  N   UNL     1       1.156   4.075   1.398  0.00  0.00    +0.386 N 
ATOM      2  H   UNL     1       2.064   3.704   1.896  0.00  0.00    -0.085 HD
ATOM      3  H   UNL     1       0.269   3.679   1.913  0.00  0.00    -0.085 HD
ENDROOT
BRANCH   1   4
ATOM      4  C   UNL     1       1.136   5.543   1.445  0.00  0.00    -0.004 C 
BRANCH   4  13
ATOM      5  C   UNL     1      -1.702   6.845   5.690  0.00  0.00    +0.005 A 
ATOM      6  C   UNL     1      -2.167   6.435   4.428  0.00  0.00    +0.018 A 
ATOM      7  C   UNL     1      -1.294   6.137   3.443  0.00  0.00    +0.094 A 
ATOM      8  N   UNL     1       0.050   6.233   3.657  0.00  0.00    -0.288 N 
ATOM      9  C   UNL     1       0.534   6.625   4.881  0.00  0.00    +0.161 A 
ATOM     10  C   UNL     1      -0.365   6.940   5.918  0.00  0.00    +0.048 A 
ATOM     11  N   UNL     1       1.854   6.619   4.791  0.00  0.00    -0.129 NA
ATOM     12  N   UNL     1       2.202   6.249   3.608  0.00  0.00    -0.136 NA
ATOM     13  C   UNL     1       1.143   5.999   2.881  0.00  0.00    +0.121 A 
ENDBRANCH   4  13
ENDBRANCH   1   4
BRANCH   1  14
ATOM     14  C   UNL     1       1.150   3.592   0.010  0.00  0.00    -0.046 C 
BRANCH  14  15
ATOM     15  C   UNL     1       1.171   2.086   0.002  0.00  0.00    -0.064 A 
ATOM     16  C   UNL     1      -0.017   1.378   0.010  0.00  0.00    +0.003 A 
ATOM     17  C   UNL     1       0.002  -0.004   0.002  0.00  0.00    +0.015 A 
ATOM     18  C   UNL     1       1.209  -0.679  -0.013  0.00  0.00    +0.018 A 
ATOM     19  C   UNL     1       2.397   0.029  -0.021  0.00  0.00    +0.015 A 
ATOM     20  C   UNL     1       2.378   1.411  -0.013  0.00  0.00    +0.003 A 
ATOM     21 BR   UNL     1       1.236  -2.570  -0.023  0.00  0.00    -0.050 Br
ENDBRANCH  14  15
ENDBRANCH   1  14
TORSDOF 4
