REMARK  Name = ZINC64885289
REMARK  11 active torsions:
REMARK  status: ('A' for Active; 'I' for Inactive)
REMARK    1  A    between atoms: C_1  and  C_2
REMARK    2  A    between atoms: C_5  and  C_26
REMARK    3  A    between atoms: C_6  and  O_8
REMARK    4  A    between atoms: O_8  and  C_9
REMARK    5  A    between atoms: C_9  and  C_10
REMARK    6  A    between atoms: C_10  and  C_11
REMARK    7  A    between atoms: N_13  and  N_14
REMARK    8  A    between atoms: N_17  and  C_18
REMARK    9  A    between atoms: C_18  and  C_19
REMARK   10  A    between atoms: C_19  and  C_20
REMARK   11  A    between atoms: C_20  and  N_21
REMARK                            x       y       z     vdW  Elec       q    Type
REMARK                         _______ _______ _______ _____ _____    ______ ____
ROOT
ATOM      1  C   UNL     1       0.058  -2.134   6.039  0.00  0.00    +0.232 C 
ATOM      2  O   UNL     1       0.042  -0.922   5.984  0.00  0.00    -0.274 OA
ATOM      3  N   UNL     1       0.072  -2.754   7.235  0.00  0.00    -0.233 N 
ATOM      4  H   UNL     1       0.085  -3.723   7.279  0.00  0.00    +0.173 HD
ENDROOT
BRANCH   3   5
ATOM      5  N   UNL     1       0.067  -1.999   8.416  0.00  0.00    -0.218 N 
ATOM      6  C   UNL     1       0.081  -2.619   9.612  0.00  0.00    +0.316 C 
ATOM      7  O   UNL     1       0.077  -1.964  10.636  0.00  0.00    -0.251 OA
ATOM      8  N   UNL     1       0.099  -3.966   9.673  0.00  0.00    -0.298 N 
ATOM      9  H   UNL     1       0.054  -1.030   8.371  0.00  0.00    +0.174 HD
ATOM     10  H   UNL     1       0.102  -4.488   8.856  0.00  0.00    +0.150 HD
BRANCH   8  11
ATOM     11  C   UNL     1       0.114  -4.639  10.974  0.00  0.00    +0.107 C 
BRANCH  11  12
ATOM     12  C   UNL     1       0.133  -6.155  10.763  0.00  0.00    +0.040 C 
BRANCH  12  13
ATOM     13  C   UNL     1       0.149  -6.859  12.121  0.00  0.00    +0.124 C 
BRANCH  13  14
ATOM     14  N   UNL     1       0.167  -8.310  11.919  0.00  0.00    -0.338 N 
ATOM     15  C   UNL     1      -0.924  -9.128  11.806  0.00  0.00    +0.104 A 
ATOM     16  C   UNL     1      -0.457 -10.379  11.631  0.00  0.00    +0.101 A 
ATOM     17  N   UNL     1       0.883 -10.326  11.636  0.00  0.00    -0.352 N 
ATOM     18  C   UNL     1       1.264  -9.089  11.804  0.00  0.00    +0.173 A 
ATOM     19  H   UNL     1       1.475 -11.086  11.529  0.00  0.00    +0.166 HD
ENDBRANCH  13  14
ENDBRANCH  12  13
ENDBRANCH  11  12
ENDBRANCH   8  11
ENDBRANCH   3   5
BRANCH   1  20
ATOM     20  C   UNL     1       0.063  -2.946   4.769  0.00  0.00    +0.138 C 
BRANCH  20  21
ATOM     21  C   UNL     1       0.045  -2.006   3.562  0.00  0.00    +0.238 C 
BRANCH  21  22
ATOM     22  O   UNL     1       0.050  -2.776   2.358  0.00  0.00    -0.491 OA
BRANCH  22  28
ATOM     23  C   UNL     1      -0.018   1.503   0.010  0.00  0.00    +0.044 C 
ATOM     24  C   UNL     1       0.002  -0.004   0.002  0.00  0.00    -0.047 A 
ATOM     25  C   UNL     1       0.006  -0.688  -1.200  0.00  0.00    +0.004 A 
ATOM     26  C   UNL     1       0.024  -2.071  -1.211  0.00  0.00    +0.007 A 
ATOM     27  C   UNL     1       0.039  -2.772  -0.020  0.00  0.00    -0.009 A 
ATOM     28  C   UNL     1       0.035  -2.088   1.186  0.00  0.00    +0.124 A 
ATOM     29  C   UNL     1       0.023  -0.700   1.195  0.00  0.00    +0.049 A 
ATOM     30  C   UNL     1       0.059  -4.279  -0.033  0.00  0.00    +0.047 C 
ENDBRANCH  22  28
ENDBRANCH  21  22
ENDBRANCH  20  21
ENDBRANCH   1  20
TORSDOF 9
