REMARK  Name = ZINC38050186
REMARK  4 active torsions:
REMARK  status: ('A' for Active; 'I' for Inactive)
REMARK    1  A    between atoms: C_3  and  S_8
REMARK    2  A    between atoms: S_8  and  N_11
REMARK    3  A    between atoms: N_11  and  C_12
REMARK    4  A    between atoms: C_18  and  N_20
REMARK                            x       y       z     vdW  Elec       q    Type
REMARK                         _______ _______ _______ _____ _____    ______ ____
ROOT
ATOM      1  N   UNL     1       4.327   2.556   1.555  0.00  0.00    -0.188 NA
ATOM      2  H   UNL     1       4.355   3.455   1.918  0.00  0.00    +0.148 HD
ENDROOT
BRANCH   1   3
ATOM      3  C   UNL     1       4.671   1.413   2.404  0.00  0.00    +0.062 C 
ATOM      4  C   UNL     1       3.436   0.975   3.194  0.00  0.00    +0.019 C 
ATOM      5  C   UNL     1       3.795  -0.220   4.080  0.00  0.00    +0.001 C 
ATOM      6  C   UNL     1       4.906   0.182   5.053  0.00  0.00    -0.001 C 
ATOM      7  C   UNL     1       6.141   0.620   4.263  0.00  0.00    -0.015 C 
ATOM      8  C   UNL     1       5.782   1.815   3.376  0.00  0.00    -0.056 C 
BRANCH   8   9
ATOM      9  N   UNL     1       6.967   2.235   2.618  0.00  0.00    +0.381 N 
ATOM     10  H   UNL     1       6.731   3.023   2.033  0.00  0.00    -0.090 HD
ATOM     11  H   UNL     1       7.700   2.500   3.259  0.00  0.00    -0.090 HD
ATOM     12  H   UNL     1       7.286   1.472   2.040  0.00  0.00    -0.090 HD
ENDBRANCH   8   9
ENDBRANCH   1   3
BRANCH   1  13
ATOM     13  S   UNL     1       3.891   2.314  -0.024  0.00  0.00    +0.059 S 
ATOM     14  O   UNL     1       4.872   1.456  -0.589  0.00  0.00    -0.153 OA
ATOM     15  O   UNL     1       3.596   3.595  -0.565  0.00  0.00    -0.153 OA
BRANCH  13  18
ATOM     16  C   UNL     1      -0.017   1.378   0.010  0.00  0.00    +0.003 A 
ATOM     17  C   UNL     1       1.171   2.086   0.002  0.00  0.00    +0.028 A 
ATOM     18  C   UNL     1       2.378   1.411  -0.013  0.00  0.00    +0.106 A 
ATOM     19  C   UNL     1       2.397   0.029  -0.022  0.00  0.00    +0.043 A 
ATOM     20  C   UNL     1       1.210  -0.679  -0.014  0.00  0.00    +0.020 A 
ATOM     21  C   UNL     1       0.002  -0.004   0.002  0.00  0.00    +0.015 A 
ATOM     22 BR   UNL     1       1.236  -2.570  -0.025  0.00  0.00    -0.050 Br
ENDBRANCH  13  18
ENDBRANCH   1  13
TORSDOF 4
