REMARK  Name = ZINC67561335
REMARK  6 active torsions:
REMARK  status: ('A' for Active; 'I' for Inactive)
REMARK    1  A    between atoms: C_1  and  N_2
REMARK    2  A    between atoms: N_2  and  C_3
REMARK    3  A    between atoms: C_3  and  C_4
REMARK    4  A    between atoms: C_8  and  C_10
REMARK    5  A    between atoms: N_15  and  C_16
REMARK    6  A    between atoms: C_19  and  C_21
REMARK                            x       y       z     vdW  Elec       q    Type
REMARK                         _______ _______ _______ _____ _____    ______ ____
ROOT
ATOM      1  C   UNL     1      -0.018   1.461   0.010  0.00  0.00    +0.134 C 
ATOM      2  N   UNL     1       0.002  -0.004   0.002  0.00  0.00    -0.284 N 
ATOM      3  C   UNL     1       0.000  -0.672  -1.169  0.00  0.00    +0.302 C 
ATOM      4  O   UNL     1       0.017  -1.887  -1.175  0.00  0.00    -0.253 OA
ATOM      5  N   UNL     1      -0.020   0.009  -2.332  0.00  0.00    -0.296 N 
ATOM      6  H   UNL     1      -0.033   0.978  -2.327  0.00  0.00    +0.151 HD
ENDROOT
BRANCH   5   7
ATOM      7  C   UNL     1      -0.022  -0.717  -3.605  0.00  0.00    +0.082 C 
ATOM      8  C   UNL     1       0.899  -0.203  -4.713  0.00  0.00    +0.033 C 
ATOM      9  C   UNL     1      -0.615  -0.006  -4.823  0.00  0.00    +0.041 C 
BRANCH   9  10
ATOM     10  C   UNL     1      -1.153   1.388  -4.621  0.00  0.00    -0.040 A 
ATOM     11  C   UNL     1      -0.314   2.395  -4.181  0.00  0.00    +0.004 A 
ATOM     12  C   UNL     1      -0.805   3.673  -3.995  0.00  0.00    +0.003 A 
ATOM     13  C   UNL     1      -2.136   3.947  -4.250  0.00  0.00    +0.038 A 
ATOM     14  C   UNL     1      -2.977   2.939  -4.691  0.00  0.00    +0.124 A 
ATOM     15  C   UNL     1      -2.482   1.660  -4.882  0.00  0.00    +0.042 A 
ATOM     16  F   UNL     1      -4.277   3.205  -4.940  0.00  0.00    -0.205 F 
ENDBRANCH   9  10
ENDBRANCH   5   7
BRANCH   2  17
ATOM     17  C   UNL     1       0.024  -0.743   1.267  0.00  0.00    +0.144 C 
BRANCH  17  18
ATOM     18  C   UNL     1      -1.389  -1.016   1.714  0.00  0.00    -0.029 A 
ATOM     19  C   UNL     1      -2.047  -0.103   2.519  0.00  0.00    +0.005 A 
ATOM     20  C   UNL     1      -3.344  -0.346   2.934  0.00  0.00    +0.001 A 
ATOM     21  C   UNL     1      -3.991  -1.501   2.546  0.00  0.00    +0.013 A 
ATOM     22  C   UNL     1      -3.333  -2.426   1.734  0.00  0.00    +0.037 A 
ATOM     23  C   UNL     1      -2.026  -2.173   1.315  0.00  0.00    +0.018 A 
BRANCH  22  24
ATOM     24  C   UNL     1      -4.019  -3.667   1.315  0.00  0.00    +0.242 C 
ATOM     25  O   UNL     1      -3.444  -4.471   0.608  0.00  0.00    -0.270 OA
ATOM     26  N   UNL     1      -5.283  -3.907   1.718  0.00  0.00    -0.325 N 
ATOM     27  H   UNL     1      -5.742  -3.265   2.283  0.00  0.00    +0.145 HD
ATOM     28  H   UNL     1      -5.734  -4.721   1.443  0.00  0.00    +0.145 HD
ENDBRANCH  22  24
ENDBRANCH  17  18
ENDBRANCH   2  17
TORSDOF 5
