REMARK  Name = ZINC48654110
REMARK  5 active torsions:
REMARK  status: ('A' for Active; 'I' for Inactive)
REMARK    1  A    between atoms: C_1  and  N_2
REMARK    2  A    between atoms: C_5  and  S_8
REMARK    3  A    between atoms: S_8  and  N_11
REMARK    4  A    between atoms: N_11  and  N_12
REMARK    5  A    between atoms: C_13  and  C_15
REMARK                            x       y       z     vdW  Elec       q    Type
REMARK                         _______ _______ _______ _____ _____    ______ ____
ROOT
ATOM      1  S   UNL     1       0.058  -3.549   1.628  0.00  0.00    -0.017 S 
ATOM      2  O   UNL     1      -0.966  -3.397   2.601  0.00  0.00    -0.187 OA
ATOM      3  O   UNL     1       0.096  -4.647   0.728  0.00  0.00    -0.187 OA
ENDROOT
BRANCH   1   8
ATOM      4  C   UNL     1      -0.018   1.461   0.010  0.00  0.00    +0.151 C 
ATOM      5  N   UNL     1       0.002  -0.004   0.002  0.00  0.00    -0.325 N 
ATOM      6  C   UNL     1       0.009  -0.800  -1.090  0.00  0.00    +0.176 A 
ATOM      7  N   UNL     1       0.027  -2.045  -0.701  0.00  0.00    -0.332 N 
ATOM      8  C   UNL     1       0.034  -2.090   0.640  0.00  0.00    +0.171 A 
ATOM      9  C   UNL     1       0.024  -0.822   1.099  0.00  0.00    +0.150 A 
ATOM     10 CL   UNL     1       0.032  -0.324   2.762  0.00  0.00    -0.060 Cl
ATOM     11  H   UNL     1       0.036  -2.817  -1.288  0.00  0.00    +0.168 HD
ENDBRANCH   1   8
BRANCH   1  12
ATOM     12  N   UNL     1       1.495  -3.559   2.450  0.00  0.00    +0.523 NA
BRANCH  12  13
ATOM     13  N   UNL     1       1.794  -4.613   3.324  0.00  0.00    -0.372 N 
ATOM     14  C   UNL     1       2.964  -4.622   3.993  0.00  0.00    +0.224 C 
ATOM     15  O   UNL     1       3.757  -3.718   3.840  0.00  0.00    -0.275 OA
ATOM     16  H   UNL     1       1.160  -5.336   3.447  0.00  0.00    +0.124 HD
BRANCH  14  17
ATOM     17  C   UNL     1       3.286  -5.755   4.933  0.00  0.00    +0.202 C 
ATOM     18  C   UNL     1       3.457  -7.077   4.142  0.00  0.00    +0.043 C 
ATOM     19  C   UNL     1       4.370  -7.882   5.108  0.00  0.00    +0.031 C 
ATOM     20  C   UNL     1       5.248  -6.774   5.728  0.00  0.00    +0.161 C 
ATOM     21  O   UNL     1       4.553  -5.530   5.570  0.00  0.00    -0.367 OA
ENDBRANCH  14  17
ENDBRANCH  12  13
ENDBRANCH   1  12
TORSDOF 4
