REMARK  Name = ZINC63831663
REMARK  5 active torsions:
REMARK  status: ('A' for Active; 'I' for Inactive)
REMARK    1  A    between atoms: C_6  and  N_10
REMARK    2  A    between atoms: C_11  and  C_13
REMARK    3  A    between atoms: C_13  and  C_14
REMARK    4  A    between atoms: C_14  and  C_15
REMARK    5  A    between atoms: C_15  and  C_16
REMARK                            x       y       z     vdW  Elec       q    Type
REMARK                         _______ _______ _______ _____ _____    ______ ____
ROOT
ATOM      1  N   UNL     1       3.522  -2.756  -1.248  0.00  0.00    -0.278 N 
ATOM      2  C   UNL     1       3.445  -4.099  -1.322  0.00  0.00    +0.216 C 
ATOM      3  O   UNL     1       3.004  -4.734  -0.387  0.00  0.00    -0.276 OA
ATOM      4  H   UNL     1       3.874  -2.248  -1.996  0.00  0.00    +0.152 HD
ENDROOT
BRANCH   1  10
ATOM      5  C   UNL     1      -0.016   1.344   0.009  0.00  0.00    +0.002 A 
ATOM      6  C   UNL     1       1.158   2.118   0.002  0.00  0.00    +0.002 A 
ATOM      7  C   UNL     1       2.389   1.570  -0.013  0.00  0.00    +0.027 A 
ATOM      8  C   UNL     1       2.533   0.108  -0.022  0.00  0.00    +0.061 A 
ATOM      9  N   UNL     1       3.569  -0.680  -0.036  0.00  0.00    -0.348 N 
ATOM     10  C   UNL     1       3.071  -2.062  -0.039  0.00  0.00    +0.269 C 
ATOM     11  N   UNL     1       1.606  -1.974  -0.024  0.00  0.00    -0.348 N 
ATOM     12  C   UNL     1       1.290  -0.712  -0.014  0.00  0.00    +0.061 A 
ATOM     13  C   UNL     1       0.002  -0.004   0.002  0.00  0.00    +0.027 A 
ATOM     14  H   UNL     1       4.499  -0.405  -0.045  0.00  0.00    +0.163 HD
ATOM     15  H   UNL     1       0.987  -2.721  -0.022  0.00  0.00    +0.163 HD
ENDBRANCH   1  10
BRANCH   2  16
ATOM     16  C   UNL     1       3.908  -4.813  -2.565  0.00  0.00    +0.096 C 
BRANCH  16  17
ATOM     17  C   UNL     1       3.714  -6.321  -2.390  0.00  0.00    +0.018 C 
BRANCH  17  18
ATOM     18  C   UNL     1       4.184  -7.046  -3.653  0.00  0.00    +0.096 C 
BRANCH  18  19
ATOM     19  C   UNL     1       3.994  -8.531  -3.480  0.00  0.00    +0.216 C 
ATOM     20  O   UNL     1       3.528  -8.966  -2.448  0.00  0.00    -0.276 OA
ATOM     21  N   UNL     1       4.341  -9.375  -4.471  0.00  0.00    -0.291 N 
ATOM     22  C   UNL     1       4.162 -10.830  -4.337  0.00  0.00    +0.127 C 
ATOM     23  C   UNL     1       3.191 -11.294  -5.424  0.00  0.00    +0.123 C 
ATOM     24  N   UNL     1       3.550 -10.724  -6.715  0.00  0.00    -0.313 N 
ATOM     25  C   UNL     1       4.284  -9.622  -6.878  0.00  0.00    +0.230 C 
ATOM     26  O   UNL     1       4.450  -9.199  -8.003  0.00  0.00    -0.274 OA
ATOM     27  C   UNL     1       4.908  -8.879  -5.734  0.00  0.00    +0.203 C 
ATOM     28  H   UNL     1       3.234 -11.177  -7.512  0.00  0.00    +0.149 HD
ENDBRANCH  18  19
ENDBRANCH  17  18
ENDBRANCH  16  17
ENDBRANCH   2  16
TORSDOF 5
