REMARK  Name = ZINC01054504
REMARK  6 active torsions:
REMARK  status: ('A' for Active; 'I' for Inactive)
REMARK    1  A    between atoms: C_3  and  S_18
REMARK    2  A    between atoms: C_6  and  C_7
REMARK    3  A    between atoms: C_7  and  C_8
REMARK    4  A    between atoms: C_8  and  N_9
REMARK    5  A    between atoms: C_10  and  C_12
REMARK    6  A    between atoms: S_18  and  N_21
REMARK                            x       y       z     vdW  Elec       q    Type
REMARK                         _______ _______ _______ _____ _____    ______ ____
ROOT
ATOM      1  C   UNL     1      -0.017   1.378   0.010  0.00  0.00    +0.005 A 
ATOM      2  C   UNL     1       1.171   2.086   0.002  0.00  0.00    +0.029 A 
ATOM      3  C   UNL     1       2.377   1.411  -0.013  0.00  0.00    +0.105 A 
ATOM      4  C   UNL     1       2.396   0.029  -0.020  0.00  0.00    +0.029 A 
ATOM      5  C   UNL     1       1.208  -0.679  -0.012  0.00  0.00    +0.005 A 
ATOM      6  C   UNL     1       0.002  -0.004   0.002  0.00  0.00    -0.046 A 
ENDROOT
BRANCH   3   7
ATOM      7  S   UNL     1       3.891   2.312  -0.024  0.00  0.00    +0.056 S 
ATOM      8  O   UNL     1       4.872   1.453  -0.588  0.00  0.00    -0.153 OA
ATOM      9  O   UNL     1       3.597   3.593  -0.566  0.00  0.00    -0.153 OA
BRANCH   7  10
ATOM     10  N   UNL     1       4.327   2.556   1.555  0.00  0.00    -0.204 NA
ATOM     11  H   UNL     1       3.768   2.215   2.271  0.00  0.00    +0.144 HD
ATOM     12  H   UNL     1       5.142   3.039   1.764  0.00  0.00    +0.144 HD
ENDBRANCH   7  10
ENDBRANCH   3   7
BRANCH   6  13
ATOM     13  C   UNL     1      -1.293  -0.775   0.011  0.00  0.00    +0.054 C 
BRANCH  13  14
ATOM     14  C   UNL     1      -1.745  -1.028  -1.429  0.00  0.00    +0.109 C 
BRANCH  14  15
ATOM     15  N   UNL     1      -3.004  -1.778  -1.420  0.00  0.00    -0.311 N 
ATOM     16  C   UNL     1      -3.594  -2.117  -2.584  0.00  0.00    +0.251 C 
ATOM     17  O   UNL     1      -3.082  -1.800  -3.641  0.00  0.00    -0.270 OA
ATOM     18  H   UNL     1      -3.412  -2.031  -0.578  0.00  0.00    +0.149 HD
BRANCH  16  19
ATOM     19  C   UNL     1      -4.853  -2.866  -2.575  0.00  0.00    +0.075 A 
ATOM     20  C   UNL     1      -5.611  -3.313  -3.647  0.00  0.00    +0.022 A 
ATOM     21  C   UNL     1      -6.757  -3.997  -3.323  0.00  0.00    +0.028 A 
ATOM     22  C   UNL     1      -7.064  -4.187  -2.014  0.00  0.00    +0.079 A 
ATOM     23  S   UNL     1      -5.804  -3.449  -1.185  0.00  0.00    -0.072 S 
ATOM     24 CL   UNL     1      -8.441  -5.010  -1.350  0.00  0.00    -0.076 Cl
ENDBRANCH  16  19
ENDBRANCH  14  15
ENDBRANCH  13  14
ENDBRANCH   6  13
TORSDOF 6
