REMARK  Name = ZINC45876938
REMARK  6 active torsions:
REMARK  status: ('A' for Active; 'I' for Inactive)
REMARK    1  A    between atoms: C_1  and  C_2
REMARK    2  A    between atoms: C_12  and  C_15
REMARK    3  A    between atoms: C_15  and  N_16
REMARK    4  A    between atoms: N_19  and  N_20
REMARK    5  A    between atoms: C_21  and  O_23
REMARK    6  A    between atoms: O_23  and  C_24
REMARK                            x       y       z     vdW  Elec       q    Type
REMARK                         _______ _______ _______ _____ _____    ______ ____
ROOT
ATOM      1  C   UNL     1       0.024   1.508  -0.007  0.00  0.00    +0.039 C 
ATOM      2  C   UNL     1       0.027  -0.022  -0.001  0.00  0.00    +0.132 C 
ATOM      3  C   UNL     1      -1.417  -0.537   0.001  0.00  0.00    +0.137 C 
ATOM      4  N   UNL     1      -1.389  -1.995   0.196  0.00  0.00    -0.312 N 
ATOM      5  C   UNL     1      -0.598  -2.529   1.316  0.00  0.00    +0.134 C 
ATOM      6  C   UNL     1       0.806  -1.917   1.250  0.00  0.00    +0.179 C 
ATOM      7  O   UNL     1       0.698  -0.493   1.171  0.00  0.00    -0.374 OA
ATOM      8  C   UNL     1      -2.091  -2.844  -0.652  0.00  0.00    +0.099 A 
ATOM      9  C   UNL     1      -2.927  -2.308  -1.627  0.00  0.00    +0.042 A 
ATOM     10  C   UNL     1      -3.619  -3.164  -2.464  0.00  0.00    +0.010 A 
ATOM     11  C   UNL     1      -3.451  -4.533  -2.299  0.00  0.00    -0.014 A 
ATOM     12  C   UNL     1      -2.604  -4.995  -1.311  0.00  0.00    +0.089 A 
ATOM     13  N   UNL     1      -1.953  -4.155  -0.530  0.00  0.00    -0.349 N 
ATOM     14  H   UNL     1      -1.361  -4.507   0.154  0.00  0.00    +0.167 HD
ENDROOT
BRANCH  11  15
ATOM     15  C   UNL     1      -4.185  -5.503  -3.188  0.00  0.00    +0.142 C 
BRANCH  15  16
ATOM     16  N   UNL     1      -3.369  -5.796  -4.369  0.00  0.00    -0.294 N 
ATOM     17  C   UNL     1      -3.827  -6.645  -5.310  0.00  0.00    +0.316 C 
ATOM     18  O   UNL     1      -4.917  -7.168  -5.179  0.00  0.00    -0.251 OA
ATOM     19  N   UNL     1      -3.077  -6.914  -6.397  0.00  0.00    -0.216 N 
ATOM     20  H   UNL     1      -2.500  -5.378  -4.474  0.00  0.00    +0.151 HD
ATOM     21  H   UNL     1      -3.407  -7.525  -7.075  0.00  0.00    +0.174 HD
BRANCH  19  22
ATOM     22  N   UNL     1      -1.821  -6.312  -6.549  0.00  0.00    -0.198 N 
ATOM     23  C   UNL     1      -1.071  -6.581  -7.635  0.00  0.00    +0.417 C 
ATOM     24  O   UNL     1       0.018  -6.058  -7.767  0.00  0.00    -0.225 OA
ATOM     25  H   UNL     1      -1.492  -5.700  -5.871  0.00  0.00    +0.176 HD
BRANCH  23  26
ATOM     26  O   UNL     1      -1.529  -7.429  -8.576  0.00  0.00    -0.453 OA
ATOM     27  C   UNL     1      -0.681  -7.669  -9.701  0.00  0.00    +0.282 C 
ENDBRANCH  23  26
ENDBRANCH  19  22
ENDBRANCH  15  16
ENDBRANCH  11  15
TORSDOF 4
