REMARK  Name = ZINC59460974
REMARK  9 active torsions:
REMARK  status: ('A' for Active; 'I' for Inactive)
REMARK    1  A    between atoms: C_1  and  C_2
REMARK    2  A    between atoms: C_2  and  C_3
REMARK    3  A    between atoms: C_6  and  N_8
REMARK    4  A    between atoms: N_8  and  S_9
REMARK    5  A    between atoms: S_9  and  C_12
REMARK    6  A    between atoms: C_15  and  N_18
REMARK    7  A    between atoms: C_19  and  C_20
REMARK    8  A    between atoms: C_23  and  O_27
REMARK    9  A    between atoms: C_24  and  O_26
REMARK                            x       y       z     vdW  Elec       q    Type
REMARK                         _______ _______ _______ _____ _____    ______ ____
ROOT
ATOM      1  C   UNL     1      -7.698  -2.847   0.515  0.00  0.00    +0.111 A 
ATOM      2  C   UNL     1      -7.843  -4.181   0.854  0.00  0.00    +0.031 A 
ATOM      3  C   UNL     1      -8.970  -4.607   1.527  0.00  0.00    +0.029 A 
ATOM      4  C   UNL     1      -9.964  -3.687   1.867  0.00  0.00    +0.064 A 
ATOM      5  C   UNL     1      -9.811  -2.342   1.523  0.00  0.00    +0.029 A 
ATOM      6  C   UNL     1      -8.677  -1.930   0.855  0.00  0.00    +0.031 A 
ENDROOT
BRANCH   1   7
ATOM      7  S   UNL     1      -6.256  -2.313  -0.345  0.00  0.00    +0.094 S 
ATOM      8  O   UNL     1      -6.608  -1.114  -1.021  0.00  0.00    -0.148 OA
ATOM      9  O   UNL     1      -5.746  -3.450  -1.027  0.00  0.00    -0.148 OA
BRANCH   7  10
ATOM     10  N   UNL     1      -5.130  -1.901   0.796  0.00  0.00    -0.068 NA
BRANCH  10  14
ATOM     11  C   UNL     1      -1.412  -0.526   0.013  0.00  0.00    +0.104 A 
ATOM     12  N   UNL     1      -2.214  -0.819  -0.991  0.00  0.00    -0.145 NA
ATOM     13  N   UNL     1      -3.385  -1.252  -0.811  0.00  0.00    -0.123 NA
ATOM     14  C   UNL     1      -3.882  -1.439   0.404  0.00  0.00    +0.224 A 
ATOM     15  S   UNL     1      -2.478  -0.931   1.393  0.00  0.00    -0.032 S 
BRANCH  11  17
ATOM     16  C   UNL     1      -0.019   1.526   0.010  0.00  0.00    +0.011 C 
ATOM     17  C   UNL     1       0.002  -0.004   0.002  0.00  0.00    +0.061 C 
ENDBRANCH  11  17
ENDBRANCH  10  14
ENDBRANCH   7  10
ENDBRANCH   1   7
BRANCH   4  18
ATOM     18  N   UNL     1     -11.085  -4.103   2.535  0.00  0.00    -0.255 NA
ATOM     19  C   UNL     1     -11.532  -3.416   3.549  0.00  0.00    +0.119 C 
BRANCH  19  20
ATOM     20  C   UNL     1     -12.736  -3.862   4.266  0.00  0.00    -0.003 A 
ATOM     21  C   UNL     1     -13.399  -5.026   3.866  0.00  0.00    +0.013 A 
ATOM     22  C   UNL     1     -14.527  -5.442   4.540  0.00  0.00    +0.050 A 
ATOM     23  C   UNL     1     -15.008  -4.708   5.616  0.00  0.00    +0.158 A 
ATOM     24  C   UNL     1     -14.352  -3.546   6.021  0.00  0.00    +0.159 A 
ATOM     25  C   UNL     1     -13.217  -3.126   5.355  0.00  0.00    +0.058 A 
BRANCH  24  26
ATOM     26  O   UNL     1     -14.826  -2.830   7.075  0.00  0.00    -0.503 OA
ATOM     27  H   UNL     1     -14.460  -3.098   7.929  0.00  0.00    +0.292 HD
ENDBRANCH  24  26
BRANCH  23  28
ATOM     28  O   UNL     1     -16.120  -5.122   6.275  0.00  0.00    -0.503 OA
ATOM     29  H   UNL     1     -15.940  -5.718   7.016  0.00  0.00    +0.292 HD
ENDBRANCH  23  28
ENDBRANCH  19  20
ENDBRANCH   4  18
TORSDOF 8
