REMARK  Name = ZINC00070070
REMARK  7 active torsions:
REMARK  status: ('A' for Active; 'I' for Inactive)
REMARK    1  A    between atoms: C_1  and  O_2
REMARK    2  A    between atoms: O_2  and  C_3
REMARK    3  A    between atoms: C_5  and  C_14
REMARK    4  A    between atoms: C_7  and  N_11
REMARK    5  A    between atoms: C_8  and  O_9
REMARK    6  A    between atoms: O_9  and  C_10
REMARK    7  A    between atoms: C_16  and  C_20
REMARK                            x       y       z     vdW  Elec       q    Type
REMARK                         _______ _______ _______ _____ _____    ______ ____
ROOT
ATOM      1  C   UNK     1      -1.222   1.752   0.017  0.00  0.00    +0.164 A 
ATOM      2  C   UNK     1      -0.013   1.076   0.008  0.00  0.00    +0.052 A 
ATOM      3  C   UNK     1       1.175   1.783   0.000  0.00  0.00    -0.046 A 
ATOM      4  C   UNK     1       1.160   3.166   0.007  0.00  0.00    +0.039 A 
ATOM      5  C   UNK     1      -0.043   3.847   0.022  0.00  0.00    +0.171 A 
ATOM      6  C   UNK     1      -1.237   3.144   0.029  0.00  0.00    +0.192 A 
ENDROOT
BRANCH   3   7
ATOM      7  C   UNK     1       2.489   1.046  -0.016  0.00  0.00    +0.020 C 
ATOM      8  C   UNK     1       4.609   2.336  -0.277  0.00  0.00    +0.055 C 
ATOM      9  C   UNK     1       4.852   1.325  -1.436  0.00  0.00    +0.063 C 
ATOM     10  S   UNK     1       3.096   0.835  -1.743  0.00  0.00    -0.173 S 
ATOM     11  N   UNK     1       3.551   1.865   0.664  0.00  0.00    +0.399 N 
ATOM     12  H   UNK     1       3.992   1.292   1.392  0.00  0.00    -0.083 HD
ATOM     13  H   UNK     1       3.107   2.684   1.095  0.00  0.00    -0.083 HD
BRANCH   8  14
ATOM     14  C   UNK     1       5.883   2.505   0.509  0.00  0.00    +0.343 C 
ATOM     15  O   UNK     1       6.031   1.915   1.553  0.00  0.00    -0.248 OA
ATOM     16  O   UNK     1       6.853   3.311   0.051  0.00  0.00    -0.248 OA
ENDBRANCH   8  14
ENDBRANCH   3   7
BRANCH   5  17
ATOM     17  N   UNK     1      -0.056   5.327   0.029  0.00  0.00    +0.060 N 
ATOM     18  O   UNK     1       0.994   5.945   0.023  0.00  0.00    -0.126 OA
ATOM     19  O   UNK     1      -1.115   5.927   0.042  0.00  0.00    -0.126 OA
ENDBRANCH   5  17
BRANCH   1  21
ATOM     20  C   UNK     1      -2.299  -0.368   0.012  0.00  0.00    +0.277 C 
ATOM     21  O   UNK     1      -2.391   1.058   0.019  0.00  0.00    -0.491 OA
ENDBRANCH   1  21
BRANCH   6  22
ATOM     22  O   UNK     1      -2.421   3.812   0.043  0.00  0.00    -0.489 OA
ATOM     23  C   UNK     1      -2.998   4.136  -1.224  0.00  0.00    +0.277 C 
ENDBRANCH   6  22
TORSDOF 5
