REMARK  Name = ZINC19718021
REMARK  10 active torsions:
REMARK  status: ('A' for Active; 'I' for Inactive)
REMARK    1  A    between atoms: C_1  and  C_2
REMARK    2  A    between atoms: C_2  and  N_3
REMARK    3  A    between atoms: C_5  and  C_8
REMARK    4  A    between atoms: C_10  and  N_15
REMARK    5  A    between atoms: N_15  and  C_16
REMARK    6  A    between atoms: C_16  and  C_17
REMARK    7  A    between atoms: C_17  and  C_19
REMARK    8  A    between atoms: C_17  and  N_26
REMARK    9  A    between atoms: N_26  and  C_27
REMARK   10  A    between atoms: N_26  and  C_28
REMARK                            x       y       z     vdW  Elec       q    Type
REMARK                         _______ _______ _______ _____ _____    ______ ____
ROOT
ATOM      1  C   UNL     1      -4.147  -2.628  -0.602  0.00  0.00    +0.081 A 
ATOM      2  C   UNL     1      -5.497  -2.697  -0.265  0.00  0.00    +0.072 A 
ATOM      3  C   UNL     1      -6.303  -3.610  -0.941  0.00  0.00    +0.124 A 
ATOM      4  N   UNL     1      -5.760  -4.381  -1.880  0.00  0.00    -0.200 NA
ATOM      5  C   UNL     1      -4.472  -4.289  -2.175  0.00  0.00    +0.215 A 
ATOM      6  N   UNL     1      -3.676  -3.429  -1.558  0.00  0.00    -0.214 NA
ATOM      7  N   UNL     1      -3.946  -5.109  -3.158  0.00  0.00    -0.327 N 
ATOM      8  H   UNL     1      -4.518  -5.740  -3.620  0.00  0.00    +0.145 HD
ATOM      9  H   UNL     1      -3.004  -5.051  -3.384  0.00  0.00    +0.145 HD
ENDROOT
BRANCH   1  12
ATOM     10  N   UNL     1      -1.469  -0.543   0.683  0.00  0.00    -0.271 N 
ATOM     11  C   UNL     1      -1.913  -1.502  -0.151  0.00  0.00    +0.118 A 
ATOM     12  C   UNL     1      -3.247  -1.672   0.088  0.00  0.00    +0.038 A 
ATOM     13  C   UNL     1      -3.613  -0.773   1.110  0.00  0.00    +0.144 A 
ATOM     14  N   UNL     1      -2.547  -0.107   1.463  0.00  0.00    -0.179 NA
BRANCH  10  16
ATOM     15  C   UNL     1      -0.090   1.474   0.586  0.00  0.00    +0.029 C 
ATOM     16  C   UNL     1      -0.094  -0.045   0.764  0.00  0.00    +0.140 C 
ENDBRANCH  10  16
ENDBRANCH   1  12
BRANCH   3  17
ATOM     17  N   UNL     1      -7.652  -3.715  -0.640  0.00  0.00    -0.330 N 
ATOM     18  H   UNL     1      -8.207  -4.353  -1.114  0.00  0.00    +0.147 HD
BRANCH  17  19
ATOM     19  C   UNL     1      -8.239  -2.861   0.396  0.00  0.00    +0.092 C 
BRANCH  19  20
ATOM     20  C   UNL     1      -9.751  -3.089   0.448  0.00  0.00    -0.020 C 
BRANCH  20  21
ATOM     21  C   UNL     1     -10.031  -4.497   0.906  0.00  0.00    -0.041 A 
ATOM     22  C   UNL     1     -10.239  -5.498  -0.025  0.00  0.00    +0.003 A 
ATOM     23  C   UNL     1     -10.496  -6.790   0.395  0.00  0.00    +0.000 A 
ATOM     24  C   UNL     1     -10.545  -7.082   1.745  0.00  0.00    +0.001 A 
ATOM     25  C   UNL     1     -10.337  -6.082   2.677  0.00  0.00    +0.020 A 
ATOM     26  C   UNL     1     -10.074  -4.790   2.257  0.00  0.00    +0.043 A 
ATOM     27 CL   UNL     1      -9.806  -3.535   3.426  0.00  0.00    -0.083 Cl
ENDBRANCH  20  21
BRANCH  20  28
ATOM     28  N   UNL     1     -10.323  -2.886  -0.890  0.00  0.00    +0.382 N 
ATOM     29  C   UNL     1     -11.780  -3.062  -0.831  0.00  0.00    -0.096 C 
ATOM     30  C   UNL     1     -10.012  -1.527  -1.354  0.00  0.00    -0.096 C 
ATOM     31  H   UNL     1      -9.928  -3.559  -1.530  0.00  0.00    -0.082 HD
ENDBRANCH  20  28
ENDBRANCH  19  20
ENDBRANCH  17  19
ENDBRANCH   3  17
TORSDOF 7
