REMARK  Name = ZINC44340449
REMARK  8 active torsions:
REMARK  status: ('A' for Active; 'I' for Inactive)
REMARK    1  A    between atoms: C_1  and  C_2
REMARK    2  A    between atoms: C_2  and  O_3
REMARK    3  A    between atoms: O_3  and  C_4
REMARK    4  A    between atoms: C_4  and  C_6
REMARK    5  A    between atoms: C_6  and  C_8
REMARK    6  A    between atoms: C_6  and  N_18
REMARK    7  A    between atoms: C_8  and  C_9
REMARK    8  A    between atoms: C_14  and  O_15
REMARK                            x       y       z     vdW  Elec       q    Type
REMARK                         _______ _______ _______ _____ _____    ______ ____
ROOT
ATOM      1  C   UNL     1       2.983  -2.297  -2.345  0.00  0.00    +0.033 C 
ENDROOT
BRANCH   1   2
ATOM      2  C   UNL     1       3.678  -2.742  -3.606  0.00  0.00    -0.005 A 
ATOM      3  C   UNL     1       4.072  -4.059  -3.751  0.00  0.00    +0.027 A 
ATOM      4  C   UNL     1       4.709  -4.468  -4.908  0.00  0.00    +0.043 A 
ATOM      5  C   UNL     1       4.953  -3.560  -5.924  0.00  0.00    +0.039 A 
ATOM      6  C   UNL     1       4.561  -2.243  -5.783  0.00  0.00    +0.061 A 
ATOM      7  C   UNL     1       3.916  -1.832  -4.625  0.00  0.00    +0.134 A 
ATOM      8 BR   UNL     1       4.895  -1.003  -7.171  0.00  0.00    -0.046 Br
ATOM      9 CL   UNL     1       5.204  -6.122  -5.087  0.00  0.00    -0.083 Cl
BRANCH   7  10
ATOM     10  O   UNL     1       3.523  -0.538  -4.487  0.00  0.00    -0.505 OA
ATOM     11  H   UNL     1       4.192   0.035  -4.086  0.00  0.00    +0.292 HD
ENDBRANCH   7  10
ENDBRANCH   1   2
BRANCH   1  12
ATOM     12  C   UNL     1       1.468  -2.353  -2.550  0.00  0.00    +0.040 C 
BRANCH  12  13
ATOM     13  N   UNL     1       1.052  -3.748  -2.751  0.00  0.00    +0.387 N 
ATOM     14  H   UNL     1       1.302  -4.294  -1.940  0.00  0.00    -0.089 HD
ATOM     15  H   UNL     1       0.053  -3.785  -2.886  0.00  0.00    -0.089 HD
ATOM     16  H   UNL     1       1.516  -4.123  -3.565  0.00  0.00    -0.089 HD
ENDBRANCH  12  13
BRANCH  12  17
ATOM     17  C   UNL     1       0.775  -1.794  -1.334  0.00  0.00    +0.293 C 
ATOM     18  O   UNL     1       0.314  -2.540  -0.504  0.00  0.00    -0.253 OA
BRANCH  17  19
ATOM     19  O   UNL     1       0.671  -0.465  -1.174  0.00  0.00    -0.466 OA
BRANCH  19  21
ATOM     20  C   UNL     1      -0.019   1.526   0.010  0.00  0.00    +0.048 C 
ATOM     21  C   UNL     1       0.002  -0.004   0.002  0.00  0.00    +0.228 C 
ENDBRANCH  19  21
ENDBRANCH  17  19
ENDBRANCH  12  17
ENDBRANCH   1  12
TORSDOF 7
