REMARK  Name = ZINC48909028
REMARK  3 active torsions:
REMARK  status: ('A' for Active; 'I' for Inactive)
REMARK    1  A    between atoms: C_1  and  N_2
REMARK    2  A    between atoms: C_4  and  N_9
REMARK    3  A    between atoms: C_16  and  C_18
REMARK                            x       y       z     vdW  Elec       q    Type
REMARK                         _______ _______ _______ _____ _____    ______ ____
ROOT
ATOM      1  N   UNL     1      -2.393  -2.750  -0.002  0.00  0.00    -0.268 N 
ATOM      2  C   UNL     1      -2.399  -4.093  -0.111  0.00  0.00    +0.310 C 
ATOM      3  O   UNL     1      -1.349  -4.707  -0.120  0.00  0.00    -0.252 OA
ATOM      4  N   UNL     1      -3.568  -4.756  -0.210  0.00  0.00    -0.247 N 
ATOM      5  C   UNL     1      -3.574  -6.143  -0.323  0.00  0.00    +0.189 A 
ATOM      6  N   UNL     1      -2.555  -6.979  -0.346  0.00  0.00    -0.126 NA
ATOM      7  N   UNL     1      -2.719  -8.228  -0.454  0.00  0.00    -0.144 NA
ATOM      8  C   UNL     1      -3.942  -8.708  -0.547  0.00  0.00    +0.107 A 
ATOM      9  S   UNL     1      -4.886  -7.193  -0.459  0.00  0.00    -0.035 S 
ATOM     10  H   UNL     1      -3.231  -2.266   0.076  0.00  0.00    +0.156 HD
ATOM     11  H   UNL     1      -4.406  -4.267  -0.203  0.00  0.00    +0.158 HD
ENDROOT
BRANCH   1  15
ATOM     12  C   UNL     1       0.459   0.636  -1.944  0.00  0.00    +0.152 C 
ATOM     13  N   UNL     1       0.232  -0.401  -0.935  0.00  0.00    -0.316 N 
ATOM     14  C   UNL     1      -0.944  -1.085  -0.927  0.00  0.00    +0.112 A 
ATOM     15  C   UNL     1      -1.176  -2.051   0.000  0.00  0.00    +0.051 A 
ATOM     16  C   UNL     1      -0.193  -2.348   0.961  0.00  0.00    +0.030 A 
ATOM     17  C   UNL     1       0.983  -1.658   0.947  0.00  0.00    +0.072 A 
ATOM     18  C   UNL     1       1.191  -0.670  -0.029  0.00  0.00    +0.251 A 
ATOM     19  O   UNL     1       2.242  -0.049  -0.053  0.00  0.00    -0.268 OA
ENDBRANCH   1  15
BRANCH   8  20
ATOM     20  C   UNL     1      -4.413 -10.133  -0.683  0.00  0.00    +0.047 C 
ATOM     21  C   UNL     1      -3.370 -11.241  -0.522  0.00  0.00    +0.011 C 
ATOM     22  C   UNL     1      -3.938 -10.921  -1.906  0.00  0.00    +0.011 C 
ENDBRANCH   8  20
TORSDOF 2
