REMARK  Name = ZINC22018140
REMARK  8 active torsions:
REMARK  status: ('A' for Active; 'I' for Inactive)
REMARK    1  A    between atoms: C_1  and  O_2
REMARK    2  A    between atoms: O_2  and  C_3
REMARK    3  A    between atoms: C_5  and  C_13
REMARK    4  A    between atoms: C_6  and  O_11
REMARK    5  A    between atoms: C_8  and  O_9
REMARK    6  A    between atoms: O_9  and  C_10
REMARK    7  A    between atoms: O_11  and  C_12
REMARK    8  A    between atoms: C_21  and  O_25
REMARK                            x       y       z     vdW  Elec       q    Type
REMARK                         _______ _______ _______ _____ _____    ______ ____
ROOT
ATOM      1  C   UNL     1      -1.332   2.113   0.020  0.00  0.00    -0.031 C 
ATOM      2  C   UNL     1      -1.724   2.478  -1.413  0.00  0.00    +0.011 C 
ATOM      3  C   UNL     1      -0.662   3.386  -2.031  0.00  0.00    +0.005 C 
ATOM      4  C   UNL     1      -1.067   3.733  -3.466  0.00  0.00    +0.000 C 
ATOM      5  C   UNL     1      -2.417   4.452  -3.460  0.00  0.00    +0.003 C 
ATOM      6  C   UNL     1      -3.479   3.547  -2.829  0.00  0.00    +0.035 C 
ATOM      7  C   UNL     1      -3.069   3.211  -1.395  0.00  0.00    +0.066 C 
ATOM      8  C   UNL     1      -4.122   2.309  -0.748  0.00  0.00    +0.016 C 
ATOM      9  C   UNL     1      -3.665   1.941   0.666  0.00  0.00    -0.079 C 
ATOM     10  N   UNL     1      -2.370   1.252   0.604  0.00  0.00    +0.384 N 
ATOM     11  H   UNL     1      -2.485   0.347  -0.011  0.00  0.00    -0.085 HD
ATOM     12  H   UNL     1      -2.077   0.966   1.625  0.00  0.00    -0.085 HD
ENDROOT
BRANCH   1  15
ATOM     13  C   UNL     1       1.210  -0.681  -0.014  0.00  0.00    +0.162 A 
ATOM     14  C   UNL     1       0.002  -0.004   0.002  0.00  0.00    +0.055 A 
ATOM     15  C   UNL     1      -0.017   1.378   0.010  0.00  0.00    -0.016 A 
ATOM     16  C   UNL     1       1.174   2.090   0.002  0.00  0.00    +0.125 A 
ATOM     17  C   UNL     1       2.385   1.415  -0.013  0.00  0.00    +0.095 A 
ATOM     18  C   UNL     1       2.406   0.030  -0.021  0.00  0.00    +0.165 A 
BRANCH  13  20
ATOM     19  C   UNL     1      -0.037  -2.707  -0.014  0.00  0.00    +0.277 C 
ATOM     20  O   UNL     1       1.228  -2.042  -0.022  0.00  0.00    -0.491 OA
ENDBRANCH  13  20
BRANCH  18  21
ATOM     21  O   UNL     1       3.593  -0.633  -0.036  0.00  0.00    -0.491 OA
ATOM     22  C   UNL     1       4.780   0.162  -0.043  0.00  0.00    +0.277 C 
ENDBRANCH  18  21
BRANCH  16  23
ATOM     23  O   UNL     1       1.153   3.449   0.010  0.00  0.00    -0.495 OA
ATOM     24  C   UNL     1       2.416   4.118   0.001  0.00  0.00    +0.277 C 
ENDBRANCH  16  23
ENDBRANCH   1  15
BRANCH   7  25
ATOM     25  O   UNL     1      -2.945   4.418  -0.640  0.00  0.00    -0.388 OA
ATOM     26  H   UNL     1      -3.813   5.081  -0.516  0.00  0.00    +0.210 HD
ENDBRANCH   7  25
TORSDOF 5
