REMARK  Name = ZINC32971936
REMARK  18 active torsions:
REMARK  status: ('A' for Active; 'I' for Inactive)
REMARK    1  A    between atoms: C_1  and  C_2
REMARK    2  A    between atoms: C_2  and  O_3
REMARK    3  A    between atoms: O_3  and  C_4
REMARK    4  A    between atoms: C_10  and  C_39
REMARK    5  A    between atoms: C_11  and  C_13
REMARK    6  A    between atoms: N_15  and  C_16
REMARK    7  A    between atoms: N_15  and  C_17
REMARK    8  A    between atoms: C_17  and  C_18
REMARK    9  A    between atoms: N_20  and  C_21
REMARK   10  A    between atoms: N_20  and  C_25
REMARK   11  A    between atoms: C_21  and  C_22
REMARK   12  A    between atoms: C_22  and  C_23
REMARK   13  A    between atoms: C_22  and  C_24
REMARK   14  A    between atoms: C_26  and  N_38
REMARK   15  A    between atoms: N_27  and  C_34
REMARK   16  A    between atoms: C_34  and  C_35
REMARK   17  A    between atoms: C_35  and  C_36
REMARK   18  A    between atoms: C_35  and  C_37
REMARK                            x       y       z     vdW  Elec       q    Type
REMARK                         _______ _______ _______ _____ _____    ______ ____
ROOT
ATOM      1  C   UNL     1       8.943   2.248  -2.044  0.00  0.00    +0.237 C 
ATOM      2  O   UNL     1       7.895   2.187  -2.651  0.00  0.00    -0.274 OA
ATOM      3  N   UNL     1      10.114   2.225  -2.715  0.00  0.00    -0.263 N 
ENDROOT
BRANCH   3   4
ATOM      4  C   UNL     1      10.118   2.238  -4.126  0.00  0.00    +0.140 A 
ATOM      5  C   UNL     1      10.676   1.195  -4.836  0.00  0.00    +0.127 A 
ATOM      6  N   UNL     1      10.665   1.236  -6.211  0.00  0.00    -0.280 N 
ATOM      7  C   UNL     1      10.117   2.282  -6.856  0.00  0.00    +0.331 A 
ATOM      8  O   UNL     1      10.118   2.300  -8.072  0.00  0.00    -0.246 OA
ATOM      9  N   UNL     1       9.569   3.308  -6.181  0.00  0.00    -0.273 N 
ATOM     10  H   UNL     1       9.130   4.155  -6.728  0.00  0.00    +0.173 HD
ATOM     11  C   UNL     1       9.548   3.313  -4.833  0.00  0.00    +0.277 A 
ATOM     12  O   UNL     1       9.044   4.246  -4.231  0.00  0.00    -0.266 OA
BRANCH   5  13
ATOM     13  N   UNL     1      11.237   0.127  -4.177  0.00  0.00    -0.343 N 
ATOM     14  H   UNL     1      11.680  -0.702  -4.749  0.00  0.00    +0.144 HD
ATOM     15  H   UNL     1      11.242   0.100  -3.077  0.00  0.00    +0.144 HD
ENDBRANCH   5  13
BRANCH   6  16
ATOM     16  C   UNL     1      11.254   0.135  -6.977  0.00  0.00    +0.131 C 
BRANCH  16  17
ATOM     17  C   UNL     1      10.184  -0.923  -7.254  0.00  0.00    +0.003 C 
ATOM     18  C   UNL     1      10.764  -2.011  -8.159  0.00  0.00    +0.009 C 
ATOM     19  C   UNL     1       9.729  -1.546  -5.933  0.00  0.00    +0.009 C 
ENDBRANCH  16  17
ENDBRANCH   6  16
ENDBRANCH   3   4
BRANCH   1  20
ATOM     20  C   UNL     1       8.939   2.348  -0.540  0.00  0.00    +0.204 C 
BRANCH  20  23
ATOM     21  C   UNL     1       6.850   1.362   0.234  0.00  0.00    +0.282 C 
ATOM     22  O   UNL     1       7.376   0.267   0.171  0.00  0.00    -0.267 OA
ATOM     23  N   UNL     1       7.559   2.468  -0.063  0.00  0.00    -0.289 N 
ATOM     24  C   UNL     1       6.951   3.792   0.092  0.00  0.00    +0.133 C 
BRANCH  21  32
ATOM     25  C   UNL     1       1.023   1.339   1.867  0.00  0.00    +0.121 A 
ATOM     26  C   UNL     1       1.224   2.717   1.871  0.00  0.00    +0.049 A 
ATOM     27  C   UNL     1       2.453   3.249   1.549  0.00  0.00    +0.050 A 
ATOM     28  C   UNL     1       3.510   2.410   1.216  0.00  0.00    +0.136 A 
ATOM     29  C   UNL     1       3.310   1.017   1.211  0.00  0.00    +0.027 A 
ATOM     30  C   UNL     1       2.059   0.487   1.539  0.00  0.00    +0.057 A 
ATOM     31  C   UNL     1       4.594   0.433   0.826  0.00  0.00    +0.008 A 
ATOM     32  C   UNL     1       5.440   1.478   0.634  0.00  0.00    +0.194 A 
ATOM     33  O   UNL     1       4.792   2.638   0.866  0.00  0.00    -0.450 OA
ATOM     34  C   UNL     1       4.913  -1.032   0.672  0.00  0.00    +0.048 C 
BRANCH  25  35
ATOM     35  O   UNL     1      -0.197   0.830   2.187  0.00  0.00    -0.492 OA
BRANCH  35  37
ATOM     36  C   UNL     1      -2.515   1.015   2.845  0.00  0.00    +0.048 C 
ATOM     37  C   UNL     1      -1.224   1.768   2.516  0.00  0.00    +0.225 C 
ENDBRANCH  35  37
ENDBRANCH  25  35
ENDBRANCH  21  32
ENDBRANCH  20  23
ENDBRANCH   1  20
BRANCH   3  38
ATOM     38  C   UNL     1      11.380   2.187  -1.979  0.00  0.00    +0.117 C 
BRANCH  38  39
ATOM     39  C   UNL     1      11.790   3.610  -1.596  0.00  0.00    +0.001 C 
ATOM     40  C   UNL     1      13.027   3.560  -0.697  0.00  0.00    +0.009 C 
ATOM     41  C   UNL     1      12.111   4.407  -2.862  0.00  0.00    +0.009 C 
ENDBRANCH  38  39
ENDBRANCH   3  38
TORSDOF 11
