REMARK  Name = ZINC62503676
REMARK  11 active torsions:
REMARK  status: ('A' for Active; 'I' for Inactive)
REMARK    1  A    between atoms: C_1  and  C_2
REMARK    2  A    between atoms: C_7  and  N_8
REMARK    3  A    between atoms: C_9  and  C_11
REMARK    4  A    between atoms: C_11  and  N_12
REMARK    5  A    between atoms: N_15  and  C_16
REMARK    6  A    between atoms: C_16  and  C_17
REMARK    7  A    between atoms: C_16  and  C_18
REMARK    8  A    between atoms: C_18  and  C_19
REMARK    9  A    between atoms: C_19  and  N_20
REMARK   10  A    between atoms: N_20  and  C_21
REMARK   11  A    between atoms: N_20  and  C_22
REMARK                            x       y       z     vdW  Elec       q    Type
REMARK                         _______ _______ _______ _____ _____    ______ ____
ROOT
ATOM      1  N   UNL     1      -0.240  -0.903   5.989  0.00  0.00    -0.291 N 
ATOM      2  C   UNL     1      -0.345  -0.460   7.257  0.00  0.00    +0.300 C 
ATOM      3  O   UNL     1      -0.377   0.734   7.484  0.00  0.00    -0.253 OA
ATOM      4  N   UNL     1      -0.412  -1.341   8.275  0.00  0.00    -0.297 N 
ATOM      5  H   UNL     1      -0.214  -1.856   5.809  0.00  0.00    +0.151 HD
ATOM      6  H   UNL     1      -0.386  -2.294   8.095  0.00  0.00    +0.151 HD
ENDROOT
BRANCH   4   7
ATOM      7  C   UNL     1      -0.526  -0.859   9.654  0.00  0.00    +0.070 C 
ATOM      8  C   UNL     1      -1.996  -0.591   9.982  0.00  0.00    +0.028 C 
BRANCH   7   9
ATOM      9  C   UNL     1       0.025  -1.919  10.611  0.00  0.00    +0.003 C 
BRANCH   9  10
ATOM     10  C   UNL     1       1.525  -2.096  10.367  0.00  0.00    -0.078 C 
BRANCH  10  11
ATOM     11  N   UNL     1       2.054  -3.113  11.286  0.00  0.00    +0.376 N 
ATOM     12  C   UNL     1       1.452  -4.416  10.973  0.00  0.00    -0.097 C 
ATOM     13  C   UNL     1       3.512  -3.199  11.134  0.00  0.00    -0.097 C 
ATOM     14  H   UNL     1       1.829  -2.858  12.235  0.00  0.00    -0.083 HD
ENDBRANCH  10  11
ENDBRANCH   9  10
ENDBRANCH   7   9
ENDBRANCH   4   7
BRANCH   1  15
ATOM     15  C   UNL     1      -0.167   0.054   4.882  0.00  0.00    +0.202 C 
BRANCH  15  17
ATOM     16  N   UNL     1       0.026  -0.014   2.417  0.00  0.00    -0.284 N 
ATOM     17  C   UNL     1      -0.056  -0.694   3.578  0.00  0.00    +0.234 C 
ATOM     18  O   UNL     1      -0.040  -1.906   3.574  0.00  0.00    -0.274 OA
ATOM     19  H   UNL     1       0.079   0.955   2.425  0.00  0.00    +0.155 HD
BRANCH  16  26
ATOM     20  C   UNL     1      -1.265   1.183   0.182  0.00  0.00    +0.046 C 
ATOM     21  C   UNL     1      -0.584  -0.158   0.085  0.00  0.00    -0.028 A 
ATOM     22  C   UNL     1      -0.570  -0.840  -1.116  0.00  0.00    +0.020 A 
ATOM     23  C   UNL     1       0.055  -2.071  -1.206  0.00  0.00    +0.018 A 
ATOM     24  C   UNL     1       0.666  -2.623  -0.094  0.00  0.00    +0.017 A 
ATOM     25  C   UNL     1       0.655  -1.945   1.109  0.00  0.00    +0.024 A 
ATOM     26  C   UNL     1       0.034  -0.706   1.201  0.00  0.00    +0.036 A 
ATOM     27 BR   UNL     1       0.072  -3.002  -2.852  0.00  0.00    -0.050 Br
ENDBRANCH  16  26
ENDBRANCH  15  17
ENDBRANCH   1  15
TORSDOF 7
