REMARK  Name = ZINC43965685
REMARK  9 active torsions:
REMARK  status: ('A' for Active; 'I' for Inactive)
REMARK    1  A    between atoms: C_1  and  C_2
REMARK    2  A    between atoms: C_2  and  C_3
REMARK    3  A    between atoms: C_3  and  N_4
REMARK    4  A    between atoms: N_4  and  C_5
REMARK    5  A    between atoms: C_12  and  N_14
REMARK    6  A    between atoms: N_17  and  C_20
REMARK    7  A    between atoms: C_20  and  C_21
REMARK    8  A    between atoms: C_20  and  C_22
REMARK    9  A    between atoms: C_20  and  C_23
REMARK                            x       y       z     vdW  Elec       q    Type
REMARK                         _______ _______ _______ _____ _____    ______ ____
ROOT
ATOM      1  C   UNL     1       1.107  -2.535  -2.483  0.00  0.00    -0.054 C 
ATOM      2  C   UNL     1       0.257  -2.388  -3.760  0.00  0.00    -0.014 C 
ATOM      3  C   UNL     1       0.897  -3.066  -4.986  0.00  0.00    -0.002 C 
ATOM      4  C   UNL     1       2.382  -2.833  -5.062  0.00  0.00    -0.000 C 
ATOM      5  C   UNL     1       3.100  -4.021  -4.388  0.00  0.00    +0.001 C 
ATOM      6  C   UNL     1       3.111  -3.911  -2.937  0.00  0.00    +0.017 C 
ATOM      7  C   UNL     1       1.689  -3.915  -2.337  0.00  0.00    +0.042 C 
ENDROOT
BRANCH   7   8
ATOM      8  N   UNL     1       1.755  -4.276  -0.915  0.00  0.00    -0.304 NA
ATOM      9  C   UNL     1       2.773  -3.479  -0.216  0.00  0.00    +0.066 C 
ATOM     10  C   UNL     1       2.769  -3.841   1.270  0.00  0.00    -0.062 C 
ATOM     11  N   UNL     1       3.052  -5.274   1.426  0.00  0.00    +0.385 N 
ATOM     12  C   UNL     1       2.013  -6.057   0.744  0.00  0.00    -0.062 C 
ATOM     13  C   UNL     1       2.011  -5.713  -0.747  0.00  0.00    +0.066 C 
ATOM     14  H   UNL     1       3.951  -5.485   1.021  0.00  0.00    -0.081 HD
BRANCH  11  15
ATOM     15  C   UNL     1       3.065  -5.618   2.854  0.00  0.00    -0.074 C 
ATOM     16  C   UNL     1       1.701  -5.298   3.469  0.00  0.00    -0.010 C 
ATOM     17  C   UNL     1       3.360  -7.110   3.017  0.00  0.00    -0.010 C 
ATOM     18  C   UNL     1       4.149  -4.804   3.564  0.00  0.00    -0.010 C 
ENDBRANCH  11  15
ENDBRANCH   7   8
BRANCH   1  19
ATOM     19  N   UNL     1       0.263  -2.250  -1.315  0.00  0.00    +0.382 N 
ATOM     20  H   UNL     1       0.799  -2.388  -0.471  0.00  0.00    -0.085 HD
ATOM     21  H   UNL     1      -0.532  -2.872  -1.314  0.00  0.00    -0.085 HD
BRANCH  19  22
ATOM     22  C   UNL     1      -0.204  -0.858  -1.376  0.00  0.00    -0.082 C 
BRANCH  22  24
ATOM     23  C   UNL     1      -1.569   0.888  -0.223  0.00  0.00    +0.002 C 
ATOM     24  C   UNL     1      -1.083  -0.561  -0.159  0.00  0.00    -0.022 C 
ENDBRANCH  22  24
ENDBRANCH  19  22
ENDBRANCH   1  19
TORSDOF 5
