REMARK  Name = ZINC55392438
REMARK  7 active torsions:
REMARK  status: ('A' for Active; 'I' for Inactive)
REMARK    1  A    between atoms: C_1  and  C_2
REMARK    2  A    between atoms: C_8  and  C_22
REMARK    3  A    between atoms: C_8  and  C_23
REMARK    4  A    between atoms: C_10  and  N_12
REMARK    5  A    between atoms: C_13  and  C_15
REMARK    6  A    between atoms: C_15  and  N_16
REMARK    7  A    between atoms: C_18  and  C_21
REMARK                            x       y       z     vdW  Elec       q    Type
REMARK                         _______ _______ _______ _____ _____    ______ ____
ROOT
ATOM      1  C   UNL     1      -0.018   1.503   0.010  0.00  0.00    +0.086 C 
ATOM      2  C   UNL     1       0.002  -0.004   0.002  0.00  0.00    +0.103 A 
ATOM      3  C   UNL     1      -1.081  -0.806   0.003  0.00  0.00    +0.050 A 
ATOM      4  C   UNL     1      -0.602  -2.129  -0.007  0.00  0.00    +0.014 A 
ATOM      5  C   UNL     1       0.745  -2.064  -0.011  0.00  0.00    +0.111 A 
ATOM      6  O   UNL     1       1.104  -0.775  -0.013  0.00  0.00    -0.464 OA
ATOM      7  C   UNL     1       1.646  -3.276  -0.019  0.00  0.00    +0.081 C 
ATOM      8  C   UNL     1       0.818  -4.497   0.398  0.00  0.00    -0.026 C 
ATOM      9  C   UNL     1      -0.466  -4.554  -0.433  0.00  0.00    +0.034 C 
ATOM     10  C   UNL     1      -1.397  -3.409  -0.012  0.00  0.00    +0.107 C 
ATOM     11  C   UNL     1       0.461  -4.389   1.882  0.00  0.00    +0.011 C 
ATOM     12  C   UNL     1       1.634  -5.770   0.162  0.00  0.00    +0.011 C 
ENDROOT
BRANCH  10  13
ATOM     13  N   UNL     1      -2.505  -3.298  -0.964  0.00  0.00    -0.307 N 
ATOM     14  C   UNL     1      -3.667  -2.732  -0.582  0.00  0.00    +0.235 C 
ATOM     15  O   UNL     1      -3.796  -2.316   0.549  0.00  0.00    -0.274 OA
ATOM     16  H   UNL     1      -2.401  -3.631  -1.869  0.00  0.00    +0.149 HD
BRANCH  14  17
ATOM     17  C   UNL     1      -4.807  -2.618  -1.562  0.00  0.00    +0.239 C 
BRANCH  17  18
ATOM     18  N   UNL     1      -5.948  -1.973  -0.909  0.00  0.00    -0.262 N 
ATOM     19  C   UNL     1      -6.596  -0.874  -1.348  0.00  0.00    +0.112 A 
ATOM     20  C   UNL     1      -7.586  -0.599  -0.468  0.00  0.00    -0.013 A 
ATOM     21  C   UNL     1      -7.542  -1.563   0.545  0.00  0.00    +0.137 A 
ATOM     22  N   UNL     1      -6.564  -2.391   0.278  0.00  0.00    -0.179 NA
ATOM     23  C   UNL     1      -8.564   0.544  -0.560  0.00  0.00    +0.047 C 
ENDBRANCH  17  18
ENDBRANCH  14  17
ENDBRANCH  10  13
TORSDOF 3
