REMARK  Name = ZINC39016642
REMARK  2 active torsions:
REMARK  status: ('A' for Active; 'I' for Inactive)
REMARK    1  A    between atoms: N_7  and  S_8
REMARK    2  A    between atoms: S_8  and  C_11
REMARK                            x       y       z     vdW  Elec       q    Type
REMARK                         _______ _______ _______ _____ _____    ______ ____
ROOT
ATOM      1  C   UNL     1      -0.016   1.347   0.009  0.00  0.00    +0.002 A 
ATOM      2  C   UNL     1       1.169   2.102   0.002  0.00  0.00    +0.002 A 
ATOM      3  C   UNL     1       2.395   1.536  -0.013  0.00  0.00    +0.028 A 
ATOM      4  C   UNL     1       2.534   0.125  -0.021  0.00  0.00    +0.064 A 
ATOM      5  N   UNL     1       3.732  -0.421  -0.035  0.00  0.00    -0.338 N 
ATOM      6  C   UNL     1       3.898  -1.753  -0.045  0.00  0.00    +0.167 C 
ATOM      7  N   UNL     1       5.092  -2.269  -0.058  0.00  0.00    -0.112 NA
ATOM      8  C   UNL     1       2.677  -2.645  -0.038  0.00  0.00    +0.240 C 
ATOM      9  N   UNL     1       1.355  -2.000  -0.022  0.00  0.00    -0.361 N 
ATOM     10  C   UNL     1       1.299  -0.697  -0.014  0.00  0.00    +0.060 A 
ATOM     11  C   UNL     1       0.002  -0.004   0.002  0.00  0.00    +0.027 A 
ATOM     12 CL   UNL     1       2.757  -3.698  -1.500  0.00  0.00    -0.090 Cl
ATOM     13  H   UNL     1       0.544  -2.532  -0.018  0.00  0.00    +0.161 HD
ATOM     14  H   UNL     1       4.513   0.153  -0.039  0.00  0.00    +0.167 HD
ENDROOT
BRANCH   7  15
ATOM     15  S   UNL     1       6.421  -1.280  -0.064  0.00  0.00    +0.107 S 
ATOM     16  O   UNL     1       6.407  -0.589  -1.306  0.00  0.00    -0.146 OA
ATOM     17  O   UNL     1       6.429  -0.603   1.185  0.00  0.00    -0.146 OA
BRANCH  15  18
ATOM     18  C   UNL     1       7.843  -2.320  -0.083  0.00  0.00    +0.151 A 
ATOM     19  C   UNL     1       8.526  -2.813  -1.145  0.00  0.00    +0.038 A 
ATOM     20  C   UNL     1       9.627  -3.619  -0.919  0.00  0.00    +0.030 A 
ATOM     21  C   UNL     1       9.990  -3.892   0.359  0.00  0.00    +0.080 A 
ATOM     22  S   UNL     1       8.763  -2.991   1.292  0.00  0.00    -0.056 S 
ATOM     23 CL   UNL     1      11.310  -4.860   0.937  0.00  0.00    -0.076 Cl
ENDBRANCH  15  18
ENDBRANCH   7  15
TORSDOF 2
