REMARK  Name = ZINC62654781
REMARK  13 active torsions:
REMARK  status: ('A' for Active; 'I' for Inactive)
REMARK    1  A    between atoms: C_1  and  C_2
REMARK    2  A    between atoms: N_6  and  C_7
REMARK    3  A    between atoms: C_7  and  C_8
REMARK    4  A    between atoms: C_8  and  C_9
REMARK    5  A    between atoms: C_9  and  N_10
REMARK    6  A    between atoms: N_13  and  C_14
REMARK    7  A    between atoms: C_14  and  C_15
REMARK    8  A    between atoms: C_15  and  N_16
REMARK    9  A    between atoms: C_17  and  O_19
REMARK   10  A    between atoms: O_19  and  C_20
REMARK   11  A    between atoms: C_20  and  C_21
REMARK   12  A    between atoms: C_20  and  C_22
REMARK   13  A    between atoms: C_20  and  C_23
REMARK                            x       y       z     vdW  Elec       q    Type
REMARK                         _______ _______ _______ _____ _____    ______ ____
ROOT
ATOM      1  N   UNL     1      -2.774   0.610   4.853  0.00  0.00    -0.299 N 
ATOM      2  C   UNL     1      -3.013   1.028   6.111  0.00  0.00    +0.300 C 
ATOM      3  O   UNL     1      -2.087   1.204   6.880  0.00  0.00    -0.253 OA
ATOM      4  N   UNL     1      -4.278   1.253   6.518  0.00  0.00    -0.298 N 
ATOM      5  H   UNL     1      -3.512   0.470   4.239  0.00  0.00    +0.150 HD
ATOM      6  H   UNL     1      -5.017   1.113   5.904  0.00  0.00    +0.150 HD
ENDROOT
BRANCH   1   7
ATOM      7  C   UNL     1      -1.399   0.366   4.411  0.00  0.00    +0.107 C 
BRANCH   7   8
ATOM      8  C   UNL     1      -1.406  -0.098   2.953  0.00  0.00    +0.040 C 
BRANCH   8   9
ATOM      9  C   UNL     1       0.030  -0.353   2.491  0.00  0.00    +0.124 C 
BRANCH   9  15
ATOM     10  C   UNL     1      -0.018   1.503   0.010  0.00  0.00    +0.084 C 
ATOM     11  C   UNL     1       0.002  -0.004   0.002  0.00  0.00    +0.084 A 
ATOM     12  N   UNL     1       0.008  -0.759  -1.063  0.00  0.00    -0.350 N 
ATOM     13  C   UNL     1       0.028  -2.047  -0.691  0.00  0.00    +0.101 A 
ATOM     14  C   UNL     1       0.034  -2.093   0.655  0.00  0.00    +0.104 A 
ATOM     15  N   UNL     1       0.023  -0.797   1.095  0.00  0.00    -0.336 N 
ATOM     16  H   UNL     1      -0.000  -0.438  -1.978  0.00  0.00    +0.166 HD
ENDBRANCH   9  15
ENDBRANCH   8   9
ENDBRANCH   7   8
ENDBRANCH   1   7
BRANCH   4  17
ATOM     17  C   UNL     1      -4.538   1.708   7.886  0.00  0.00    +0.124 C 
BRANCH  17  18
ATOM     18  C   UNL     1      -6.045   1.885   8.086  0.00  0.00    +0.126 C 
BRANCH  18  19
ATOM     19  N   UNL     1      -6.304   2.340   9.454  0.00  0.00    -0.280 N 
ATOM     20  C   UNL     1      -7.570   2.564   9.861  0.00  0.00    +0.401 C 
ATOM     21  O   UNL     1      -8.495   2.389   9.093  0.00  0.00    -0.226 OA
ATOM     22  H   UNL     1      -5.566   2.480  10.068  0.00  0.00    +0.152 HD
BRANCH  20  23
ATOM     23  O   UNL     1      -7.809   2.983  11.118  0.00  0.00    -0.445 OA
BRANCH  23  24
ATOM     24  C   UNL     1      -9.174   3.201  11.481  0.00  0.00    +0.107 C 
ATOM     25  C   UNL     1      -9.957   1.896  11.326  0.00  0.00    +0.055 C 
ATOM     26  C   UNL     1      -9.246   3.669  12.936  0.00  0.00    +0.055 C 
ATOM     27  C   UNL     1      -9.779   4.270  10.570  0.00  0.00    +0.055 C 
ENDBRANCH  23  24
ENDBRANCH  20  23
ENDBRANCH  18  19
ENDBRANCH  17  18
ENDBRANCH   4  17
TORSDOF 9
