REMARK  Name = ZINC41023835
REMARK  8 active torsions:
REMARK  status: ('A' for Active; 'I' for Inactive)
REMARK    1  A    between atoms: C_1  and  C_2
REMARK    2  A    between atoms: C_2  and  N_3
REMARK    3  A    between atoms: N_3  and  C_4
REMARK    4  A    between atoms: C_4  and  C_6
REMARK    5  A    between atoms: C_4  and  C_7
REMARK    6  A    between atoms: C_12  and  S_13
REMARK    7  A    between atoms: S_13  and  C_14
REMARK    8  A    between atoms: C_18  and  N_20
REMARK                            x       y       z     vdW  Elec       q    Type
REMARK                         _______ _______ _______ _____ _____    ______ ____
ROOT
ATOM      1  C   UNL     1       1.470  -2.552   2.364  0.00  0.00    -0.013 A 
ATOM      2  C   UNL     1       1.311  -1.996   3.621  0.00  0.00    +0.126 A 
ATOM      3  C   UNL     1       2.164  -2.356   4.651  0.00  0.00    +0.038 A 
ATOM      4  C   UNL     1       3.176  -3.270   4.427  0.00  0.00    +0.004 A 
ATOM      5  C   UNL     1       3.340  -3.829   3.175  0.00  0.00    +0.015 A 
ATOM      6  C   UNL     1       2.483  -3.475   2.139  0.00  0.00    +0.020 A 
ATOM      7  F   UNL     1       0.323  -1.101   3.844  0.00  0.00    -0.205 F 
ENDROOT
BRANCH   1   8
ATOM      8  C   UNL     1       0.543  -2.160   1.243  0.00  0.00    -0.040 C 
ATOM      9  C   UNL     1      -0.817  -2.831   1.448  0.00  0.00    -0.009 C 
BRANCH   8  10
ATOM     10  N   UNL     1       0.373  -0.701   1.235  0.00  0.00    +0.383 N 
ATOM     11  H   UNL     1       1.278  -0.257   1.182  0.00  0.00    -0.085 HD
ATOM     12  H   UNL     1      -0.095  -0.412   2.081  0.00  0.00    -0.085 HD
BRANCH  10  14
ATOM     13  C   UNL     1      -0.611   1.211   0.063  0.00  0.00    -0.017 C 
ATOM     14  C   UNL     1      -0.433  -0.308   0.071  0.00  0.00    -0.085 C 
ENDBRANCH  10  14
ENDBRANCH   8  10
ENDBRANCH   1   8
BRANCH   6  15
ATOM     15  S   UNL     1       2.685  -4.191   0.542  0.00  0.00    -0.050 S 
BRANCH  15  16
ATOM     16  C   UNL     1       3.445  -2.914  -0.405  0.00  0.00    +0.196 A 
ATOM     17  N   UNL     1       3.809  -1.793   0.199  0.00  0.00    -0.207 NA
ATOM     18  C   UNL     1       4.385  -0.807  -0.484  0.00  0.00    +0.122 A 
ATOM     19  C   UNL     1       4.603  -0.966  -1.850  0.00  0.00    +0.086 A 
ATOM     20  C   UNL     1       4.207  -2.158  -2.449  0.00  0.00    +0.122 A 
ATOM     21  N   UNL     1       3.641  -3.103  -1.702  0.00  0.00    -0.207 NA
ATOM     22  N   UNL     1       4.763   0.363   0.155  0.00  0.00    -0.343 N 
ATOM     23  H   UNL     1       4.608   0.468   1.107  0.00  0.00    +0.144 HD
ATOM     24  H   UNL     1       5.183   1.078  -0.349  0.00  0.00    +0.144 HD
BRANCH  20  25
ATOM     25  N   UNL     1       4.404  -2.361  -3.807  0.00  0.00    -0.343 N 
ATOM     26  H   UNL     1       4.820  -1.670  -4.345  0.00  0.00    +0.144 HD
ATOM     27  H   UNL     1       4.125  -3.194  -4.218  0.00  0.00    +0.144 HD
ENDBRANCH  20  25
ENDBRANCH  15  16
ENDBRANCH   6  15
TORSDOF 6
