REMARK  Name = ZINC39685868
REMARK  11 active torsions:
REMARK  status: ('A' for Active; 'I' for Inactive)
REMARK    1  A    between atoms: C_1  and  C_2
REMARK    2  A    between atoms: C_2  and  C_3
REMARK    3  A    between atoms: C_2  and  C_4
REMARK    4  A    between atoms: C_4  and  C_6
REMARK    5  A    between atoms: C_4  and  N_13
REMARK    6  A    between atoms: N_8  and  C_9
REMARK    7  A    between atoms: C_9  and  C_10
REMARK    8  A    between atoms: C_9  and  C_11
REMARK    9  A    between atoms: C_9  and  C_12
REMARK   10  A    between atoms: C_14  and  C_16
REMARK   11  A    between atoms: C_27  and  C_29
REMARK                            x       y       z     vdW  Elec       q    Type
REMARK                         _______ _______ _______ _____ _____    ______ ____
ROOT
ATOM      1  C   UNL     1      -2.536   0.641  -3.921  0.00  0.00    +0.100 C 
ATOM      2  C   UNL     1      -4.050   0.931  -3.817  0.00  0.00    +0.121 C 
ATOM      3  N   UNL     1      -4.593   0.564  -5.146  0.00  0.00    -0.300 N 
ATOM      4  C   UNL     1      -3.851  -0.664  -5.521  0.00  0.00    +0.115 C 
ATOM      5  C   UNL     1      -2.410  -0.407  -5.039  0.00  0.00    -0.004 C 
ATOM      6  C   UNL     1      -1.800  -1.694  -4.491  0.00  0.00    -0.010 C 
ATOM      7  C   UNL     1      -1.630  -2.699  -5.633  0.00  0.00    -0.082 C 
ATOM      8  N   UNL     1      -0.762  -2.125  -6.669  0.00  0.00    +0.379 N 
ATOM      9  C   UNL     1      -1.400  -0.940  -7.255  0.00  0.00    -0.082 C 
ATOM     10  C   UNL     1      -1.560   0.140  -6.182  0.00  0.00    -0.010 C 
ATOM     11  C   UNL     1      -5.545   1.202  -5.855  0.00  0.00    +0.219 C 
ATOM     12  O   UNL     1      -5.987   2.260  -5.462  0.00  0.00    -0.275 OA
ATOM     13  H   UNL     1       0.120  -1.861  -6.258  0.00  0.00    -0.086 HD
ATOM     14  H   UNL     1      -0.603  -2.812  -7.390  0.00  0.00    -0.086 HD
ENDROOT
BRANCH  11  15
ATOM     15  C   UNL     1      -6.062   0.599  -7.136  0.00  0.00    +0.079 C 
ATOM     16  C   UNL     1      -6.987   1.600  -7.841  0.00  0.00    +0.017 C 
ATOM     17  C   UNL     1      -7.351   1.037  -9.216  0.00  0.00    +0.027 C 
ATOM     18  C   UNL     1      -7.818  -0.383  -9.086  0.00  0.00    -0.031 C 
ATOM     19  C   UNL     1      -7.603  -1.125  -8.047  0.00  0.00    -0.030 C 
ATOM     20  C   UNL     1      -6.861  -0.668  -6.824  0.00  0.00    +0.039 C 
ENDBRANCH  11  15
BRANCH   1  22
ATOM     21  N   UNL     1      -0.742   0.311  -2.249  0.00  0.00    -0.303 N 
ATOM     22  C   UNL     1      -2.018   0.085  -2.619  0.00  0.00    +0.219 C 
ATOM     23  O   UNL     1      -2.751  -0.567  -1.904  0.00  0.00    -0.275 OA
ATOM     24  H   UNL     1      -0.167   0.861  -2.804  0.00  0.00    +0.149 HD
BRANCH  21  25
ATOM     25  C   UNL     1      -0.224  -0.274  -1.010  0.00  0.00    +0.161 C 
BRANCH  25  26
ATOM     26  C   UNL     1       0.804   0.650  -0.410  0.00  0.00    +0.234 C 
ATOM     27  O   UNL     1       1.203   1.605  -1.042  0.00  0.00    -0.274 OA
ATOM     28  N   UNL     1       1.281   0.414   0.828  0.00  0.00    -0.309 N 
ATOM     29  H   UNL     1       1.014  -0.386   1.306  0.00  0.00    +0.149 HD
BRANCH  28  30
ATOM     30  C   UNL     1       2.201   1.368   1.453  0.00  0.00    +0.026 C 
ATOM     31  C   UNL     1       1.518   2.732   1.572  0.00  0.00    +0.031 C 
ATOM     32  C   UNL     1       2.587   0.867   2.846  0.00  0.00    +0.031 C 
ATOM     33  C   UNL     1       3.459   1.502   0.592  0.00  0.00    +0.031 C 
ENDBRANCH  28  30
ENDBRANCH  25  26
BRANCH  25  35
ATOM     34  C   UNL     1      -0.658  -2.624  -1.739  0.00  0.00    +0.009 C 
ATOM     35  C   UNL     1       0.423  -1.627  -1.316  0.00  0.00    +0.012 C 
ATOM     36  C   UNL     1       1.437  -1.462  -2.450  0.00  0.00    +0.009 C 
ENDBRANCH  25  35
ENDBRANCH  21  25
ENDBRANCH   1  22
TORSDOF 6
