REMARK  Name = ZINC63529841
REMARK  10 active torsions:
REMARK  status: ('A' for Active; 'I' for Inactive)
REMARK    1  A    between atoms: C_1  and  C_2
REMARK    2  A    between atoms: C_2  and  O_3
REMARK    3  A    between atoms: O_3  and  C_4
REMARK    4  A    between atoms: C_9  and  C_10
REMARK    5  A    between atoms: N_12  and  C_13
REMARK    6  A    between atoms: C_13  and  C_14
REMARK    7  A    between atoms: N_16  and  C_17
REMARK    8  A    between atoms: C_17  and  C_18
REMARK    9  A    between atoms: C_17  and  C_19
REMARK   10  A    between atoms: C_23  and  C_25
REMARK                            x       y       z     vdW  Elec       q    Type
REMARK                         _______ _______ _______ _____ _____    ______ ____
ROOT
ATOM      1  C   UNL     1       3.922  -1.921   6.590  0.00  0.00    +0.231 C 
ATOM      2  O   UNL     1       3.903  -3.132   6.523  0.00  0.00    -0.274 OA
ATOM      3  N   UNL     1       4.526  -1.314   7.631  0.00  0.00    -0.305 N 
ATOM      4  H   UNL     1       4.542  -0.346   7.685  0.00  0.00    +0.149 HD
ENDROOT
BRANCH   3   5
ATOM      5  C   UNL     1       5.159  -2.116   8.681  0.00  0.00    +0.134 C 
ATOM      6  C   UNL     1       6.583  -2.480   8.256  0.00  0.00    +0.036 C 
BRANCH   5   7
ATOM      7  C   UNL     1       5.204  -1.323   9.961  0.00  0.00    +0.105 A 
ATOM      8  N   UNL     1       5.287   0.023  10.048  0.00  0.00    -0.348 N 
ATOM      9  H   UNL     1       5.327   0.644   9.305  0.00  0.00    +0.167 HD
ATOM     10  C   UNL     1       5.303   0.347  11.376  0.00  0.00    +0.110 A 
ATOM     11  C   UNL     1       5.229  -0.822  12.064  0.00  0.00    +0.064 A 
ATOM     12  N   UNL     1       5.164  -1.824  11.164  0.00  0.00    -0.342 N 
ATOM     13  H   UNL     1       5.100  -2.768  11.378  0.00  0.00    +0.167 HD
BRANCH  11  14
ATOM     14  C   UNL     1       5.215  -0.969  13.540  0.00  0.00    -0.000 A 
ATOM     15  C   UNL     1       5.142  -2.236  14.116  0.00  0.00    +0.010 A 
ATOM     16  C   UNL     1       5.130  -2.367  15.490  0.00  0.00    +0.001 A 
ATOM     17  C   UNL     1       5.190  -1.243  16.295  0.00  0.00    +0.000 A 
ATOM     18  C   UNL     1       5.262   0.017  15.729  0.00  0.00    +0.001 A 
ATOM     19  C   UNL     1       5.282   0.159  14.356  0.00  0.00    +0.010 A 
ENDBRANCH  11  14
ENDBRANCH   5   7
ENDBRANCH   3   5
BRANCH   1  20
ATOM     20  C   UNL     1       3.271  -1.096   5.511  0.00  0.00    +0.200 C 
BRANCH  20  23
ATOM     21  C   UNL     1       2.052  -1.464   3.434  0.00  0.00    +0.248 C 
ATOM     22  O   UNL     1       1.958  -0.258   3.309  0.00  0.00    -0.270 OA
ATOM     23  N   UNL     1       2.690  -1.984   4.501  0.00  0.00    -0.303 N 
ATOM     24  H   UNL     1       2.765  -2.946   4.600  0.00  0.00    +0.150 HD
BRANCH  21  30
ATOM     25  C   UNL     1       0.802  -1.822   1.305  0.00  0.00    +0.133 A 
ATOM     26  C   UNL     1       0.260  -2.672   0.352  0.00  0.00    +0.046 A 
ATOM     27  C   UNL     1       0.371  -4.040   0.502  0.00  0.00    +0.004 A 
ATOM     28  C   UNL     1       1.022  -4.574   1.602  0.00  0.00    +0.001 A 
ATOM     29  C   UNL     1       1.566  -3.744   2.559  0.00  0.00    +0.017 A 
ATOM     30  C   UNL     1       1.466  -2.358   2.417  0.00  0.00    +0.078 A 
BRANCH  25  31
ATOM     31  O   UNL     1       0.693  -0.477   1.160  0.00  0.00    -0.491 OA
BRANCH  31  33
ATOM     32  C   UNL     1      -0.019   1.526   0.010  0.00  0.00    +0.048 C 
ATOM     33  C   UNL     1       0.002  -0.004   0.002  0.00  0.00    +0.226 C 
ENDBRANCH  31  33
ENDBRANCH  25  31
ENDBRANCH  21  30
ENDBRANCH  20  23
ENDBRANCH   1  20
TORSDOF 8
