REMARK  Name = ZINC39685354
REMARK  6 active torsions:
REMARK  status: ('A' for Active; 'I' for Inactive)
REMARK    1  A    between atoms: C_3  and  O_8
REMARK    2  A    between atoms: O_8  and  C_9
REMARK    3  A    between atoms: C_9  and  C_10
REMARK    4  A    between atoms: C_10  and  N_11
REMARK    5  A    between atoms: C_12  and  C_14
REMARK    6  A    between atoms: C_25  and  C_27
REMARK                            x       y       z     vdW  Elec       q    Type
REMARK                         _______ _______ _______ _____ _____    ______ ____
ROOT
ATOM      1  C   UNL     1       6.791   4.947   3.345  0.00  0.00    +0.100 C 
ATOM      2  C   UNL     1       6.982   3.747   4.300  0.00  0.00    +0.121 C 
ATOM      3  N   UNL     1       8.445   3.674   4.521  0.00  0.00    -0.296 N 
ATOM      4  C   UNL     1       8.874   5.089   4.624  0.00  0.00    +0.115 C 
ATOM      5  C   UNL     1       8.034   5.826   3.562  0.00  0.00    -0.004 C 
ATOM      6  C   UNL     1       8.823   5.957   2.263  0.00  0.00    -0.010 C 
ATOM      7  C   UNL     1      10.022   6.882   2.491  0.00  0.00    -0.082 C 
ATOM      8  N   UNL     1       9.549   8.199   2.934  0.00  0.00    +0.379 N 
ATOM      9  C   UNL     1       8.871   8.078   4.231  0.00  0.00    -0.082 C 
ATOM     10  C   UNL     1       7.623   7.203   4.077  0.00  0.00    -0.010 C 
ATOM     11  C   UNL     1       9.213   2.569   4.609  0.00  0.00    +0.247 C 
ATOM     12  O   UNL     1       8.734   1.476   4.378  0.00  0.00    -0.270 OA
ATOM     13  H   UNL     1      10.335   8.825   3.025  0.00  0.00    -0.086 HD
ATOM     14  H   UNL     1       8.904   8.570   2.253  0.00  0.00    -0.086 HD
ENDROOT
BRANCH  11  15
ATOM     15  C   UNL     1      10.637   2.688   4.987  0.00  0.00    +0.037 A 
ATOM     16  C   UNL     1      11.092   3.822   5.662  0.00  0.00    +0.014 A 
ATOM     17  C   UNL     1      12.422   3.927   6.011  0.00  0.00    +0.016 A 
ATOM     18  C   UNL     1      13.306   2.909   5.695  0.00  0.00    +0.018 A 
ATOM     19  C   UNL     1      12.861   1.781   5.026  0.00  0.00    +0.016 A 
ATOM     20  C   UNL     1      11.532   1.662   4.676  0.00  0.00    +0.014 A 
ATOM     21 BR   UNL     1      15.128   3.060   6.177  0.00  0.00    -0.050 Br
ENDBRANCH  11  15
BRANCH   1  23
ATOM     22  N   UNL     1       6.110   5.226   0.983  0.00  0.00    -0.312 N 
ATOM     23  C   UNL     1       6.727   4.473   1.915  0.00  0.00    +0.218 C 
ATOM     24  O   UNL     1       7.231   3.415   1.604  0.00  0.00    -0.275 OA
ATOM     25  H   UNL     1       5.707   6.073   1.233  0.00  0.00    +0.149 HD
BRANCH  22  26
ATOM     26  C   UNL     1       6.048   4.766  -0.406  0.00  0.00    +0.145 C 
BRANCH  26  27
ATOM     27  C   UNL     1       5.299   5.798  -1.252  0.00  0.00    +0.247 C 
BRANCH  27  28
ATOM     28  O   UNL     1       6.047   7.016  -1.290  0.00  0.00    -0.490 OA
BRANCH  28  31
ATOM     29  C   UNL     1       5.650  10.297  -2.811  0.00  0.00    +0.006 A 
ATOM     30  C   UNL     1       6.190   9.254  -2.084  0.00  0.00    +0.046 A 
ATOM     31  C   UNL     1       5.517   8.043  -2.005  0.00  0.00    +0.123 A 
ATOM     32  C   UNL     1       4.303   7.882  -2.656  0.00  0.00    +0.084 A 
ATOM     33  C   UNL     1       3.766   8.929  -3.384  0.00  0.00    +0.127 A 
ATOM     34  C   UNL     1       4.441  10.137  -3.461  0.00  0.00    +0.038 A 
ATOM     35  F   UNL     1       2.584   8.774  -4.019  0.00  0.00    -0.205 F 
ENDBRANCH  28  31
ENDBRANCH  27  28
ENDBRANCH  26  27
ENDBRANCH  22  26
ENDBRANCH   1  23
TORSDOF 6
