REMARK  Name = ZINC00987159
REMARK  8 active torsions:
REMARK  status: ('A' for Active; 'I' for Inactive)
REMARK    1  A    between atoms: C_1  and  C_2
REMARK    2  A    between atoms: C_4  and  C_8
REMARK    3  A    between atoms: C_5  and  C_7
REMARK    4  A    between atoms: C_15  and  N_30
REMARK    5  A    between atoms: C_16  and  C_28
REMARK    6  A    between atoms: C_17  and  C_19
REMARK    7  A    between atoms: C_19  and  C_21
REMARK    8  A    between atoms: C_19  and  C_22
REMARK                            x       y       z     vdW  Elec       q    Type
REMARK                         _______ _______ _______ _____ _____    ______ ____
ROOT
ATOM      1  C   UNL     1       3.736  -0.255  -1.233  0.00  0.00    +0.101 A 
ATOM      2  C   UNL     1       4.251  -1.505  -0.875  0.00  0.00    +0.050 A 
ATOM      3  C   UNL     1       5.601  -1.477  -1.071  0.00  0.00    +0.223 A 
ATOM      4  N   UNL     1       5.925  -0.249  -1.527  0.00  0.00    -0.246 N 
ATOM      5  H   UNL     1       6.845   0.069  -1.756  0.00  0.00    +0.192 HD
ATOM      6  N   UNL     1       4.744   0.502  -1.622  0.00  0.00    -0.171 NA
ATOM      7  O   UNL     1       6.399  -2.545  -0.821  0.00  0.00    -0.423 OA
ATOM      8  C   UNL     1       5.804  -3.738  -0.622  0.00  0.00    +0.200 C 
ATOM      9  C   UNL     1       4.479  -3.891  -0.408  0.00  0.00    +0.094 C 
ATOM     10  C   UNL     1       3.527  -2.722  -0.359  0.00  0.00    +0.079 C 
ENDROOT
BRANCH   1  14
ATOM     11  C   UNL     1      -1.207  -0.950  -2.166  0.00  0.00    +0.051 C 
ATOM     12  C   UNL     1       0.029  -0.257  -1.655  0.00  0.00    -0.012 A 
ATOM     13  C   UNL     1       1.318  -0.660  -1.724  0.00  0.00    +0.021 A 
ATOM     14  C   UNL     1       2.309   0.150  -1.178  0.00  0.00    +0.013 A 
ATOM     15  C   UNL     1       1.939   1.327  -0.591  0.00  0.00    -0.004 A 
ATOM     16  S   UNL     1       0.167   1.306  -0.804  0.00  0.00    -0.098 S 
ATOM     17  C   UNL     1       2.804   2.373   0.066  0.00  0.00    +0.052 C 
ENDBRANCH   1  14
BRANCH   8  18
ATOM     18  N   UNL     1       6.590  -4.863  -0.645  0.00  0.00    -0.328 N 
ATOM     19  H   UNL     1       6.190  -5.737  -0.510  0.00  0.00    +0.145 HD
ATOM     20  H   UNL     1       7.545  -4.785  -0.796  0.00  0.00    +0.145 HD
ENDBRANCH   8  18
BRANCH  10  21
ATOM     21  C   UNL     1       3.077  -2.482   1.083  0.00  0.00    +0.029 C 
ATOM     22  C   UNL     1       2.127  -1.285   1.129  0.00  0.00    +0.013 C 
BRANCH  21  23
ATOM     23  C   UNL     1       4.282  -2.201   1.945  0.00  0.00    -0.044 A 
ATOM     24  C   UNL     1       4.928  -0.983   1.852  0.00  0.00    +0.004 A 
ATOM     25  C   UNL     1       6.030  -0.723   2.646  0.00  0.00    +0.000 A 
ATOM     26  C   UNL     1       6.491  -1.685   3.525  0.00  0.00    +0.000 A 
ATOM     27  C   UNL     1       5.848  -2.905   3.614  0.00  0.00    +0.000 A 
ATOM     28  C   UNL     1       4.743  -3.163   2.823  0.00  0.00    +0.004 A 
ENDBRANCH  21  23
ENDBRANCH  10  21
BRANCH   9  29
ATOM     29  C   UNL     1       3.958  -5.212  -0.222  0.00  0.00    +0.100 C 
ATOM     30  N   UNL     1       3.546  -6.260  -0.075  0.00  0.00    -0.191 NA
ENDBRANCH   9  29
TORSDOF 5
