REMARK  Name = ZINC65376104
REMARK  8 active torsions:
REMARK  status: ('A' for Active; 'I' for Inactive)
REMARK    1  A    between atoms: C_1  and  N_2
REMARK    2  A    between atoms: C_3  and  C_11
REMARK    3  A    between atoms: C_7  and  C_9
REMARK    4  A    between atoms: C_9  and  O_10
REMARK    5  A    between atoms: C_11  and  C_12
REMARK    6  A    between atoms: C_18  and  C_20
REMARK    7  A    between atoms: C_20  and  C_21
REMARK    8  A    between atoms: C_21  and  C_22
REMARK                            x       y       z     vdW  Elec       q    Type
REMARK                         _______ _______ _______ _____ _____    ______ ____
ROOT
ATOM      1  C   UNL     1       0.712  -1.122  -3.584  0.00  0.00    -0.008 C 
ATOM      2  C   UNL     1       1.798  -0.103  -3.937  0.00  0.00    +0.022 C 
ATOM      3  C   UNL     1       2.643  -0.643  -5.095  0.00  0.00    +0.108 C 
ATOM      4  N   UNL     1       1.751  -0.985  -6.211  0.00  0.00    -0.301 N 
ATOM      5  C   UNL     1       0.619  -1.887  -5.960  0.00  0.00    +0.108 C 
ATOM      6  C   UNL     1      -0.203  -1.333  -4.792  0.00  0.00    +0.022 C 
ATOM      7  C   UNL     1       1.967  -0.481  -7.442  0.00  0.00    +0.216 C 
ATOM      8  O   UNL     1       2.905   0.263  -7.637  0.00  0.00    -0.276 OA
ENDROOT
BRANCH   1   9
ATOM      9  C   UNL     1      -0.112  -0.601  -2.405  0.00  0.00    +0.004 C 
BRANCH   9  12
ATOM     10  C   UNL     1      -0.018   1.465   0.010  0.00  0.00    -0.091 C 
ATOM     11  N   UNL     1       0.002  -0.004   0.002  0.00  0.00    +0.401 N 
ATOM     12  C   UNL     1       0.776  -0.508  -1.163  0.00  0.00    +0.017 C 
ATOM     13  N   UNL     1       1.204  -1.859  -0.715  0.00  0.00    -0.272 NA
ATOM     14  N   UNL     1       1.507  -1.695   0.709  0.00  0.00    -0.269 NA
ATOM     15  C   UNL     1       0.744  -0.519   1.176  0.00  0.00    +0.043 C 
ATOM     16  H   UNL     1       2.019  -2.168  -1.224  0.00  0.00    +0.139 HD
ATOM     17  H   UNL     1       1.253  -2.521   1.230  0.00  0.00    +0.139 HD
ATOM     18  H   UNL     1      -0.938  -0.370  -0.011  0.00  0.00    -0.077 HD
BRANCH  15  19
ATOM     19  C   UNL     1      -0.237  -0.934   2.275  0.00  0.00    +0.157 C 
BRANCH  19  20
ATOM     20  O   UNL     1      -1.103  -1.957   1.780  0.00  0.00    -0.395 OA
ATOM     21  H   UNL     1      -1.752  -2.269   2.425  0.00  0.00    +0.209 HD
ENDBRANCH  19  20
ENDBRANCH  15  19
ENDBRANCH   9  12
ENDBRANCH   1   9
BRANCH   7  22
ATOM     22  C   UNL     1       1.044  -0.841  -8.577  0.00  0.00    +0.100 C 
BRANCH  22  23
ATOM     23  C   UNL     1       1.509  -0.141  -9.855  0.00  0.00    +0.042 C 
BRANCH  23  24
ATOM     24  C   UNL     1       0.585  -0.501 -10.990  0.00  0.00    -0.041 C 
ATOM     25  C   UNL     1      -0.481   0.207 -11.427  0.00  0.00    -0.001 A 
ATOM     26  C   UNL     1      -1.078   1.475 -10.993  0.00  0.00    +0.010 A 
ATOM     27  C   UNL     1      -2.170   1.942 -11.640  0.00  0.00    +0.001 A 
ATOM     28  C   UNL     1      -2.745   1.246 -12.712  0.00  0.00    +0.002 A 
ATOM     29  C   UNL     1      -2.253   0.075 -13.169  0.00  0.00    +0.026 A 
ATOM     30  C   UNL     1      -1.107  -0.508 -12.563  0.00  0.00    +0.043 A 
ATOM     31  N   UNL     1      -0.452  -1.615 -12.818  0.00  0.00    -0.380 N 
ATOM     32  C   UNL     1       0.667  -1.725 -11.876  0.00  0.00    +0.144 C 
ATOM     33  H   UNL     1      -0.670  -2.254 -13.515  0.00  0.00    +0.160 HD
ENDBRANCH  23  24
ENDBRANCH  22  23
ENDBRANCH   7  22
TORSDOF 7
