REMARK  Name = ZINC43337683
REMARK  10 active torsions:
REMARK  status: ('A' for Active; 'I' for Inactive)
REMARK    1  A    between atoms: C_1  and  C_2
REMARK    2  A    between atoms: C_2  and  C_4
REMARK    3  A    between atoms: C_2  and  N_22
REMARK    4  A    between atoms: C_4  and  C_6
REMARK    5  A    between atoms: C_4  and  O_11
REMARK    6  A    between atoms: O_11  and  C_12
REMARK    7  A    between atoms: C_16  and  C_18
REMARK    8  A    between atoms: C_18  and  C_19
REMARK    9  A    between atoms: C_18  and  C_20
REMARK   10  A    between atoms: C_18  and  C_21
REMARK                            x       y       z     vdW  Elec       q    Type
REMARK                         _______ _______ _______ _____ _____    ______ ____
ROOT
ATOM      1  C   UNL     1       0.749  -0.511   1.252  0.00  0.00    +0.224 C 
ENDROOT
BRANCH   1   2
ATOM      2  C   UNL     1       2.165   0.003   1.302  0.00  0.00    +0.143 A 
ATOM      3  C   UNL     1       2.598   1.045   2.034  0.00  0.00    +0.048 A 
ATOM      4  C   UNL     1       3.983   1.175   1.782  0.00  0.00    +0.041 A 
ATOM      5  C   UNL     1       4.314   0.205   0.910  0.00  0.00    +0.195 A 
ATOM      6  O   UNL     1       3.209  -0.505   0.627  0.00  0.00    -0.464 OA
ENDBRANCH   1   2
BRANCH   1   8
ATOM      7  C   UNL     1       0.050   1.539   0.006  0.00  0.00    -0.010 C 
ATOM      8  C   UNL     1       0.063   0.009  -0.013  0.00  0.00    -0.029 C 
BRANCH   8   9
ATOM      9  N   UNL     1      -1.317  -0.492  -0.062  0.00  0.00    +0.382 N 
ATOM     10  H   UNL     1      -1.770  -0.149  -0.896  0.00  0.00    -0.089 HD
ATOM     11  H   UNL     1      -1.309  -1.501  -0.075  0.00  0.00    -0.089 HD
ATOM     12  H   UNL     1      -1.821  -0.170   0.751  0.00  0.00    -0.089 HD
ENDBRANCH   8   9
ENDBRANCH   1   8
BRANCH   1  13
ATOM     13  O   UNL     1       0.761  -1.940   1.234  0.00  0.00    -0.483 OA
BRANCH  13  14
ATOM     14  C   UNL     1      -0.215  -2.574   1.934  0.00  0.00    +0.122 A 
ATOM     15  C   UNL     1      -1.235  -1.841   2.524  0.00  0.00    +0.046 A 
ATOM     16  C   UNL     1      -2.227  -2.488   3.235  0.00  0.00    +0.004 A 
ATOM     17  C   UNL     1      -2.204  -3.865   3.359  0.00  0.00    +0.004 A 
ATOM     18  C   UNL     1      -1.189  -4.597   2.773  0.00  0.00    -0.039 A 
ATOM     19  C   UNL     1      -0.198  -3.955   2.056  0.00  0.00    +0.049 A 
BRANCH  18  20
ATOM     20  C   UNL     1      -1.167  -6.098   2.911  0.00  0.00    -0.013 C 
ATOM     21  C   UNL     1      -2.370  -6.552   3.740  0.00  0.00    +0.015 C 
ATOM     22  C   UNL     1      -1.233  -6.739   1.523  0.00  0.00    +0.015 C 
ATOM     23  C   UNL     1       0.125  -6.527   3.610  0.00  0.00    +0.015 C 
ENDBRANCH  18  20
ENDBRANCH  13  14
ENDBRANCH   1  13
TORSDOF 6
