REMARK  Name = ZINC42666534
REMARK  11 active torsions:
REMARK  status: ('A' for Active; 'I' for Inactive)
REMARK    1  A    between atoms: C_1  and  C_2
REMARK    2  A    between atoms: C_2  and  C_3
REMARK    3  A    between atoms: C_6  and  C_15
REMARK    4  A    between atoms: C_13  and  O_14
REMARK    5  A    between atoms: C_15  and  N_16
REMARK    6  A    between atoms: N_16  and  C_17
REMARK    7  A    between atoms: C_21  and  N_23
REMARK    8  A    between atoms: C_24  and  C_26
REMARK    9  A    between atoms: C_26  and  C_27
REMARK   10  A    between atoms: C_26  and  C_28
REMARK   11  A    between atoms: C_26  and  C_29
REMARK                            x       y       z     vdW  Elec       q    Type
REMARK                         _______ _______ _______ _____ _____    ______ ____
ROOT
ATOM      1  C   UNL     1       5.115  -1.883  -1.101  0.00  0.00    +0.137 C 
ENDROOT
BRANCH   1   5
ATOM      2  C   UNL     1       1.104  -0.533  -1.992  0.00  0.00    -0.005 A 
ATOM      3  C   UNL     1       2.371  -0.962  -1.720  0.00  0.00    +0.019 A 
ATOM      4  C   UNL     1       3.159  -1.497  -2.746  0.00  0.00    +0.023 A 
ATOM      5  C   UNL     1       4.521  -1.965  -2.484  0.00  0.00    -0.013 A 
ATOM      6  C   UNL     1       5.236  -2.474  -3.521  0.00  0.00    +0.097 A 
ATOM      7  C   UNL     1       4.658  -2.539  -4.805  0.00  0.00    +0.338 A 
ATOM      8  O   UNL     1       5.309  -2.999  -5.726  0.00  0.00    -0.245 OA
ATOM      9  O   UNL     1       3.408  -2.109  -5.039  0.00  0.00    -0.422 OA
ATOM     10  C   UNL     1       2.645  -1.592  -4.053  0.00  0.00    +0.143 A 
ATOM     11  C   UNL     1       1.356  -1.151  -4.311  0.00  0.00    +0.092 A 
ATOM     12  C   UNL     1       0.588  -0.630  -3.283  0.00  0.00    +0.124 A 
BRANCH   2  14
ATOM     13  C   UNL     1       0.277   1.570  -0.972  0.00  0.00    +0.009 C 
ATOM     14  C   UNL     1       0.255   0.043  -0.888  0.00  0.00    +0.035 C 
ENDBRANCH   2  14
BRANCH  12  15
ATOM     15  O   UNL     1      -0.676  -0.205  -3.536  0.00  0.00    -0.506 OA
ATOM     16  H   UNL     1      -0.734   0.726  -3.793  0.00  0.00    +0.292 HD
ENDBRANCH  12  15
ENDBRANCH   1   5
BRANCH   1  17
ATOM     17  N   UNL     1       5.692  -0.552  -0.895  0.00  0.00    -0.340 N 
ATOM     18  H   UNL     1       5.648   0.110  -1.602  0.00  0.00    +0.146 HD
BRANCH  17  19
ATOM     19  C   UNL     1       6.304  -0.237   0.321  0.00  0.00    +0.029 A 
ATOM     20  C   UNL     1       6.372  -1.187   1.333  0.00  0.00    +0.023 A 
ATOM     21  C   UNL     1       6.977  -0.876   2.535  0.00  0.00    +0.004 A 
ATOM     22  C   UNL     1       7.516   0.381   2.735  0.00  0.00    +0.023 A 
ATOM     23  C   UNL     1       7.451   1.335   1.728  0.00  0.00    +0.035 A 
ATOM     24  C   UNL     1       6.850   1.024   0.517  0.00  0.00    +0.046 A 
BRANCH  23  25
ATOM     25  N   UNL     1       7.998   2.607   1.932  0.00  0.00    -0.285 N 
ATOM     26  C   UNL     1       9.096   2.753   2.699  0.00  0.00    +0.223 C 
ATOM     27  O   UNL     1       9.666   1.775   3.134  0.00  0.00    -0.275 OA
ATOM     28  H   UNL     1       7.586   3.383   1.521  0.00  0.00    +0.155 HD
BRANCH  26  29
ATOM     29  C   UNL     1       9.615   4.132   3.017  0.00  0.00    +0.039 C 
ATOM     30  C   UNL     1      10.861   4.018   3.897  0.00  0.00    +0.020 C 
ATOM     31  C   UNL     1       9.974   4.854   1.716  0.00  0.00    +0.020 C 
ATOM     32  C   UNL     1       8.537   4.924   3.759  0.00  0.00    +0.020 C 
ENDBRANCH  26  29
ENDBRANCH  23  25
ENDBRANCH  17  19
ENDBRANCH   1  17
TORSDOF 7
