REMARK  Name = ZINC39981152
REMARK  6 active torsions:
REMARK  status: ('A' for Active; 'I' for Inactive)
REMARK    1  A    between atoms: C_1  and  C_2
REMARK    2  A    between atoms: C_6  and  C_28
REMARK    3  A    between atoms: C_7  and  N_8
REMARK    4  A    between atoms: C_9  and  C_11
REMARK    5  A    between atoms: C_11  and  S_12
REMARK    6  A    between atoms: S_12  and  C_13
REMARK                            x       y       z     vdW  Elec       q    Type
REMARK                         _______ _______ _______ _____ _____    ______ ____
ROOT
ATOM      1  C   UNL     1      -0.331   0.084   7.658  0.00  0.00    +0.208 C 
ATOM      2  N   UNL     1      -0.256   1.380   7.469  0.00  0.00    -0.227 NA
ATOM      3  C   UNL     1      -0.231   2.239   8.650  0.00  0.00    +0.252 C 
ATOM      4  C   UNL     1      -0.990   1.493   9.738  0.00  0.00    +0.117 C 
ATOM      5  C   UNL     1      -1.874   2.393  10.251  0.00  0.00    +0.026 A 
ATOM      6  C   UNL     1      -2.769   2.329  11.346  0.00  0.00    +0.027 A 
ATOM      7  C   UNL     1      -3.542   3.423  11.588  0.00  0.00    +0.019 A 
ATOM      8  C   UNL     1      -3.506   4.596  10.825  0.00  0.00    +0.017 A 
ATOM      9  C   UNL     1      -2.681   4.770   9.759  0.00  0.00    +0.027 A 
ATOM     10  C   UNL     1      -1.800   3.638   9.426  0.00  0.00    +0.046 A 
ATOM     11  N   UNL     1      -0.907   3.519   8.492  0.00  0.00    -0.358 N 
ATOM     12 BR   UNL     1      -4.744   3.353  13.046  0.00  0.00    -0.050 Br
ATOM     13  N   UNL     1      -0.817   0.181   9.928  0.00  0.00    -0.147 NA
ATOM     14  N   UNL     1      -0.462  -0.493   8.878  0.00  0.00    -0.122 NA
ATOM     15  H   UNL     1      -0.721   4.174   7.801  0.00  0.00    +0.162 HD
ENDROOT
BRANCH   1  16
ATOM     16  S   UNL     1      -0.266  -0.967   6.246  0.00  0.00    -0.075 S 
BRANCH  16  17
ATOM     17  C   UNL     1      -0.092   0.181   4.852  0.00  0.00    +0.173 C 
BRANCH  17  19
ATOM     18  N   UNL     1       0.107   0.050   2.390  0.00  0.00    -0.284 N 
ATOM     19  C   UNL     1      -0.024  -0.598   3.564  0.00  0.00    +0.228 C 
ATOM     20  O   UNL     1      -0.086  -1.810   3.585  0.00  0.00    -0.275 OA
ATOM     21  H   UNL     1       0.223   1.013   2.378  0.00  0.00    +0.155 HD
BRANCH  18  28
ATOM     22  C   UNL     1       2.558  -0.356   1.002  0.00  0.00    +0.045 C 
ATOM     23  C   UNL     1       1.248  -0.887   0.479  0.00  0.00    -0.029 A 
ATOM     24  C   UNL     1       1.214  -1.599  -0.704  0.00  0.00    +0.005 A 
ATOM     25  C   UNL     1       0.013  -2.087  -1.185  0.00  0.00    +0.001 A 
ATOM     26  C   UNL     1      -1.158  -1.863  -0.484  0.00  0.00    +0.005 A 
ATOM     27  C   UNL     1      -1.131  -1.152   0.700  0.00  0.00    -0.029 A 
ATOM     28  C   UNL     1       0.075  -0.666   1.188  0.00  0.00    +0.039 A 
ATOM     29  C   UNL     1      -2.407  -0.908   1.463  0.00  0.00    +0.045 C 
ENDBRANCH  18  28
ENDBRANCH  17  19
ENDBRANCH  16  17
ENDBRANCH   1  16
TORSDOF 4
