REMARK  Name = ZINC39631569
REMARK  14 active torsions:
REMARK  status: ('A' for Active; 'I' for Inactive)
REMARK    1  A    between atoms: C_1  and  C_2
REMARK    2  A    between atoms: C_2  and  C_4
REMARK    3  A    between atoms: C_2  and  N_11
REMARK    4  A    between atoms: C_4  and  C_5
REMARK    5  A    between atoms: C_5  and  C_6
REMARK    6  A    between atoms: C_6  and  C_7
REMARK    7  A    between atoms: C_7  and  C_8
REMARK    8  A    between atoms: C_7  and  C_9
REMARK    9  A    between atoms: C_7  and  O_10
REMARK   10  A    between atoms: C_12  and  C_14
REMARK   11  A    between atoms: C_25  and  C_27
REMARK   12  A    between atoms: C_27  and  C_29
REMARK   13  A    between atoms: C_27  and  O_30
REMARK   14  A    between atoms: O_30  and  C_31
REMARK                            x       y       z     vdW  Elec       q    Type
REMARK                         _______ _______ _______ _____ _____    ______ ____
ROOT
ATOM      1  C   UNL     1       0.815  -1.135   3.558  0.00  0.00    +0.100 C 
ATOM      2  C   UNL     1       1.996  -0.195   3.889  0.00  0.00    +0.121 C 
ATOM      3  N   UNL     1       1.455   0.744   4.899  0.00  0.00    -0.297 N 
ATOM      4  C   UNL     1       0.598  -0.100   5.766  0.00  0.00    +0.115 C 
ATOM      5  C   UNL     1      -0.098  -1.072   4.794  0.00  0.00    -0.004 C 
ATOM      6  C   UNL     1      -0.224  -2.454   5.428  0.00  0.00    -0.010 C 
ATOM      7  C   UNL     1      -1.183  -2.378   6.620  0.00  0.00    -0.082 C 
ATOM      8  N   UNL     1      -2.496  -1.905   6.165  0.00  0.00    +0.379 N 
ATOM      9  C   UNL     1      -2.381  -0.538   5.641  0.00  0.00    -0.082 C 
ATOM     10  C   UNL     1      -1.474  -0.537   4.408  0.00  0.00    -0.010 C 
ATOM     11  C   UNL     1       1.690   2.067   5.005  0.00  0.00    +0.256 C 
ATOM     12  O   UNL     1       2.343   2.638   4.158  0.00  0.00    -0.272 OA
ATOM     13  H   UNL     1      -2.838  -2.515   5.438  0.00  0.00    -0.086 HD
ATOM     14  H   UNL     1      -3.142  -1.914   6.940  0.00  0.00    -0.086 HD
ENDROOT
BRANCH   1  16
ATOM     15  N   UNL     1      -0.536  -1.523   1.522  0.00  0.00    -0.312 N 
ATOM     16  C   UNL     1       0.080  -0.644   2.337  0.00  0.00    +0.218 C 
ATOM     17  O   UNL     1       0.043   0.542   2.088  0.00  0.00    -0.275 OA
ATOM     18  H   UNL     1      -0.507  -2.472   1.722  0.00  0.00    +0.149 HD
BRANCH  15  20
ATOM     19  C   UNL     1      -0.265  -0.886  -0.824  0.00  0.00    +0.028 C 
ATOM     20  C   UNL     1      -1.251  -1.046   0.336  0.00  0.00    +0.070 C 
BRANCH  20  21
ATOM     21  C   UNL     1      -2.332  -2.057  -0.050  0.00  0.00    +0.022 C 
BRANCH  21  22
ATOM     22  C   UNL     1      -3.386  -2.124   1.058  0.00  0.00    +0.005 C 
BRANCH  22  23
ATOM     23  C   UNL     1      -4.467  -3.135   0.672  0.00  0.00    +0.034 C 
BRANCH  23  24
ATOM     24  C   UNL     1      -5.521  -3.202   1.779  0.00  0.00    +0.061 C 
ATOM     25  C   UNL     1      -6.156  -1.822   1.964  0.00  0.00    +0.041 C 
ATOM     26  C   UNL     1      -6.603  -4.213   1.394  0.00  0.00    +0.041 C 
BRANCH  24  27
ATOM     27  O   UNL     1      -4.902  -3.609   3.002  0.00  0.00    -0.389 OA
ATOM     28  H   UNL     1      -4.479  -4.477   2.958  0.00  0.00    +0.210 HD
ENDBRANCH  24  27
ENDBRANCH  23  24
ENDBRANCH  22  23
ENDBRANCH  21  22
ENDBRANCH  20  21
ENDBRANCH  15  20
ENDBRANCH   1  16
BRANCH  11  29
ATOM     29  C   UNL     1       1.139   2.838   6.178  0.00  0.00    +0.256 C 
ATOM     30  C   UNL     1       1.860   2.404   7.456  0.00  0.00    +0.062 C 
BRANCH  29  31
ATOM     31  O   UNL     1       1.344   4.236   5.967  0.00  0.00    -0.480 OA
BRANCH  31  32
ATOM     32  C   UNL     1       0.499   5.087   6.607  0.00  0.00    +0.122 A 
ATOM     33  C   UNL     1       0.560   6.449   6.352  0.00  0.00    +0.045 A 
ATOM     34  C   UNL     1      -0.301   7.311   7.004  0.00  0.00    +0.004 A 
ATOM     35  C   UNL     1      -1.222   6.818   7.909  0.00  0.00    +0.000 A 
ATOM     36  C   UNL     1      -1.284   5.461   8.165  0.00  0.00    +0.004 A 
ATOM     37  C   UNL     1      -0.430   4.593   7.512  0.00  0.00    +0.045 A 
ENDBRANCH  31  32
ENDBRANCH  29  31
ENDBRANCH  11  29
TORSDOF 10
