REMARK  Name = ZINC54153037
REMARK  4 active torsions:
REMARK  status: ('A' for Active; 'I' for Inactive)
REMARK    1  A    between atoms: C_6  and  C_7
REMARK    2  A    between atoms: C_7  and  N_8
REMARK    3  A    between atoms: N_8  and  C_9
REMARK    4  A    between atoms: C_9  and  C_10
REMARK                            x       y       z     vdW  Elec       q    Type
REMARK                         _______ _______ _______ _____ _____    ______ ____
ROOT
ATOM      1  N   UNL     1      -1.730  -1.022  -1.365  0.00  0.00    +0.386 N 
ATOM      2  H   UNL     1      -1.871  -0.140  -1.834  0.00  0.00    -0.085 HD
ATOM      3  H   UNL     1      -1.025  -1.554  -1.853  0.00  0.00    -0.085 HD
ENDROOT
BRANCH   1   4
ATOM      4  C   UNL     1      -1.291  -0.778   0.015  0.00  0.00    -0.046 C 
BRANCH   4  10
ATOM      5  C   UNL     1      -0.017   1.378   0.010  0.00  0.00    +0.005 A 
ATOM      6  C   UNL     1       1.164   2.091   0.002  0.00  0.00    +0.046 A 
ATOM      7  C   UNL     1       2.386   1.424  -0.015  0.00  0.00    +0.124 A 
ATOM      8  C   UNL     1       2.392   0.035  -0.030  0.00  0.00    -0.002 A 
ATOM      9  C   UNL     1       1.212  -0.675  -0.018  0.00  0.00    +0.009 A 
ATOM     10  C   UNL     1       0.002  -0.004   0.002  0.00  0.00    -0.064 A 
ATOM     11  C   UNL     1       3.844  -0.403  -0.071  0.00  0.00    +0.080 C 
ATOM     12  C   UNL     1       4.562   0.907  -0.473  0.00  0.00    +0.234 C 
ATOM     13  O   UNL     1       3.653   1.923  -0.013  0.00  0.00    -0.491 OA
ENDBRANCH   4  10
ENDBRANCH   1   4
BRANCH   1  14
ATOM     14  C   UNL     1      -2.990  -1.776  -1.352  0.00  0.00    -0.004 C 
BRANCH  14  15
ATOM     15  C   UNL     1      -3.441  -2.027  -2.768  0.00  0.00    +0.116 A 
ATOM     16  N   UNL     1      -4.208  -1.251  -3.488  0.00  0.00    -0.136 NA
ATOM     17  N   UNL     1      -4.381  -1.771  -4.653  0.00  0.00    -0.134 NA
ATOM     18  C   UNL     1      -3.730  -2.896  -4.728  0.00  0.00    +0.133 A 
ATOM     19  N   UNL     1      -3.122  -3.093  -3.535  0.00  0.00    -0.316 N 
ATOM     20  C   UNL     1      -2.301  -4.243  -3.155  0.00  0.00    +0.124 C 
ATOM     21  C   UNL     1      -1.640  -4.831  -4.404  0.00  0.00    +0.022 C 
ATOM     22  C   UNL     1      -2.556  -5.884  -5.025  0.00  0.00    +0.002 C 
ATOM     23  C   UNL     1      -3.879  -5.257  -5.452  0.00  0.00    +0.008 C 
ATOM     24  C   UNL     1      -3.644  -3.821  -5.915  0.00  0.00    +0.076 C 
ENDBRANCH  14  15
ENDBRANCH   1  14
TORSDOF 4
