REMARK  Name = ZINC06385029
REMARK  5 active torsions:
REMARK  status: ('A' for Active; 'I' for Inactive)
REMARK    1  A    between atoms: C_1  and  O_2
REMARK    2  A    between atoms: O_2  and  C_3
REMARK    3  A    between atoms: C_3  and  C_5
REMARK    4  A    between atoms: C_9  and  O_18
REMARK    5  A    between atoms: C_12  and  O_17
REMARK                            x       y       z     vdW  Elec       q    Type
REMARK                         _______ _______ _______ _____ _____    ______ ____
ROOT
ATOM      1  C   UNL     1      -3.666   2.053   0.584  0.00  0.00    +0.110 C 
ATOM      2  C   UNL     1      -2.506   1.234   0.022  0.00  0.00    +0.054 C 
ATOM      3  C   UNL     1      -1.228   2.028   0.019  0.00  0.00    +0.009 A 
ATOM      4  C   UNL     1      -0.016   1.356   0.009  0.00  0.00    +0.121 A 
ATOM      5  C   UNL     1       1.179   2.062   0.002  0.00  0.00    +0.049 A 
ATOM      6  C   UNL     1       1.179   3.443   0.008  0.00  0.00    +0.050 A 
ATOM      7  C   UNL     1      -0.023   4.134   0.025  0.00  0.00    +0.128 A 
ATOM      8  C   UNL     1      -1.234   3.425   0.035  0.00  0.00    +0.065 A 
ATOM      9  C   UNL     1      -2.510   4.158   0.063  0.00  0.00    +0.168 C 
ATOM     10  O   UNL     1      -2.544   5.351   0.283  0.00  0.00    -0.292 OA
ATOM     11  C   UNL     1      -3.779   3.372  -0.192  0.00  0.00    +0.094 C 
ENDROOT
BRANCH   1  12
ATOM     12  C   UNL     1      -4.947   1.274   0.440  0.00  0.00    +0.311 C 
ATOM     13  O   UNL     1      -4.933   0.173  -0.059  0.00  0.00    -0.251 OA
BRANCH  12  15
ATOM     14  C   UNL     1      -7.300   0.995   0.698  0.00  0.00    +0.280 C 
ATOM     15  O   UNL     1      -6.105   1.802   0.868  0.00  0.00    -0.468 OA
ENDBRANCH  12  15
ENDBRANCH   1  12
BRANCH   7  16
ATOM     16  O   UNL     1      -0.028   5.491   0.030  0.00  0.00    -0.506 OA
ATOM     17  H   UNL     1      -0.040   5.888  -0.851  0.00  0.00    +0.292 HD
ENDBRANCH   7  16
BRANCH   4  18
ATOM     18  O   UNL     1       0.002  -0.004   0.002  0.00  0.00    -0.506 OA
ATOM     19  H   UNL     1       0.016  -0.402   0.883  0.00  0.00    +0.292 HD
ENDBRANCH   4  18
TORSDOF 4
