REMARK  Name = ZINC28932117
REMARK  13 active torsions:
REMARK  status: ('A' for Active; 'I' for Inactive)
REMARK    1  A    between atoms: C_1  and  C_2
REMARK    2  A    between atoms: C_2  and  C_3
REMARK    3  A    between atoms: C_6  and  C_9
REMARK    4  A    between atoms: C_9  and  N_10
REMARK    5  A    between atoms: N_10  and  C_11
REMARK    6  A    between atoms: N_10  and  C_12
REMARK    7  A    between atoms: C_12  and  C_13
REMARK    8  A    between atoms: C_13  and  C_15
REMARK    9  A    between atoms: C_16  and  N_28
REMARK   10  A    between atoms: N_17  and  C_24
REMARK   11  A    between atoms: C_24  and  C_25
REMARK   12  A    between atoms: C_25  and  C_26
REMARK   13  A    between atoms: C_25  and  C_27
REMARK                            x       y       z     vdW  Elec       q    Type
REMARK                         _______ _______ _______ _____ _____    ______ ____
ROOT
ATOM      1  C   UNL     1      -2.739   2.073   9.615  0.00  0.00    +0.118 A 
ATOM      2  C   UNL     1      -2.224   1.333  10.694  0.00  0.00    +0.116 A 
ATOM      3  N   UNL     1      -2.810   1.460  11.921  0.00  0.00    -0.281 N 
ATOM      4  C   UNL     1      -3.860   2.273  12.112  0.00  0.00    +0.331 A 
ATOM      5  O   UNL     1      -4.345   2.351  13.224  0.00  0.00    -0.246 OA
ATOM      6  N   UNL     1      -4.394   3.004  11.121  0.00  0.00    -0.274 N 
ATOM      7  H   UNL     1      -5.258   3.655  11.321  0.00  0.00    +0.173 HD
ATOM      8  C   UNL     1      -3.886   2.954   9.872  0.00  0.00    +0.266 A 
ATOM      9  O   UNL     1      -4.369   3.622   8.977  0.00  0.00    -0.267 OA
ENDROOT
BRANCH   2  10
ATOM     10  N   UNL     1      -1.160   0.503  10.518  0.00  0.00    -0.344 N 
ATOM     11  H   UNL     1      -0.765  -0.072  11.368  0.00  0.00    +0.144 HD
ATOM     12  H   UNL     1      -0.696   0.408   9.525  0.00  0.00    +0.144 HD
ENDBRANCH   2  10
BRANCH   1  13
ATOM     13  C   UNL     1      -2.169   1.977   8.328  0.00  0.00    +0.155 C 
ATOM     14  O   UNL     1      -1.155   1.330   8.159  0.00  0.00    -0.294 OA
BRANCH  13  15
ATOM     15  C   UNL     1      -2.818   2.677   7.162  0.00  0.00    +0.002 C 
BRANCH  15  16
ATOM     16  N   UNL     1      -2.039   2.424   5.943  0.00  0.00    +0.385 N 
ATOM     17  C   UNL     1      -0.711   3.047   6.029  0.00  0.00    -0.095 C 
ATOM     18  H   UNL     1      -1.897   1.337   5.852  0.00  0.00    -0.081 HD
BRANCH  16  19
ATOM     19  C   UNL     1      -2.761   2.888   4.750  0.00  0.00    -0.043 C 
BRANCH  19  23
ATOM     20  C   UNL     1      -0.760   1.498   1.242  0.00  0.00    -0.048 A 
ATOM     21  C   UNL     1      -0.416   2.716   1.797  0.00  0.00    +0.004 A 
ATOM     22  C   UNL     1      -1.066   3.168   2.930  0.00  0.00    +0.002 A 
ATOM     23  C   UNL     1      -2.054   2.397   3.513  0.00  0.00    -0.064 A 
ATOM     24  C   UNL     1      -2.395   1.176   2.961  0.00  0.00    +0.002 A 
ATOM     25  C   UNL     1      -1.747   0.726   1.826  0.00  0.00    +0.004 A 
BRANCH  20  27
ATOM     26  C   UNL     1      -0.808   1.490  -1.238  0.00  0.00    +0.009 C 
ATOM     27  C   UNL     1      -0.054   1.008   0.004  0.00  0.00    +0.032 C 
ENDBRANCH  20  27
ENDBRANCH  19  23
ENDBRANCH  16  19
ENDBRANCH  15  16
ENDBRANCH  13  15
ENDBRANCH   1  13
BRANCH   3  28
ATOM     28  C   UNL     1      -2.281   0.693  13.051  0.00  0.00    +0.131 C 
BRANCH  28  29
ATOM     29  C   UNL     1      -1.199   1.510  13.761  0.00  0.00    +0.003 C 
ATOM     30  C   UNL     1      -1.828   2.760  14.379  0.00  0.00    +0.009 C 
ATOM     31  C   UNL     1      -0.560   0.663  14.863  0.00  0.00    +0.009 C 
ENDBRANCH  28  29
ENDBRANCH   3  28
TORSDOF 9
