REMARK  Name = ZINC39853329
REMARK  6 active torsions:
REMARK  status: ('A' for Active; 'I' for Inactive)
REMARK    1  A    between atoms: C_1  and  C_2
REMARK    2  A    between atoms: C_6  and  C_7
REMARK    3  A    between atoms: C_11  and  C_25
REMARK    4  A    between atoms: C_11  and  C_26
REMARK    5  A    between atoms: N_14  and  N_15
REMARK    6  A    between atoms: C_16  and  C_18
REMARK                            x       y       z     vdW  Elec       q    Type
REMARK                         _______ _______ _______ _____ _____    ______ ____
ROOT
ATOM      1  C   UNL     1      -0.018   1.503   0.010  0.00  0.00    +0.048 C 
ATOM      2  C   UNL     1       0.002  -0.004   0.002  0.00  0.00    +0.009 A 
ATOM      3  C   UNL     1       0.008  -0.838  -1.123  0.00  0.00    +0.042 A 
ATOM      4  C   UNL     1       0.026  -2.138  -0.672  0.00  0.00    +0.116 A 
ATOM      5  O   UNL     1       0.034  -2.112   0.658  0.00  0.00    -0.454 OA
ATOM      6  C   UNL     1       0.024  -0.830   1.091  0.00  0.00    +0.193 A 
ATOM      7  C   UNL     1       0.032  -3.327  -1.599  0.00  0.00    +0.081 C 
ATOM      8  C   UNL     1      -0.492  -2.903  -2.974  0.00  0.00    -0.023 C 
ATOM      9  C   UNL     1       0.279  -1.685  -3.494  0.00  0.00    +0.064 C 
ATOM     10  C   UNL     1       0.001  -0.512  -2.566  0.00  0.00    +0.070 C 
ATOM     11  N   UNL     1      -0.228   0.686  -3.008  0.00  0.00    -0.184 NA
ATOM     12  C   UNL     1      -1.976  -2.549  -2.860  0.00  0.00    +0.011 C 
ATOM     13  C   UNL     1      -0.325  -4.063  -3.957  0.00  0.00    +0.011 C 
ENDROOT
BRANCH   6  14
ATOM     14  C   UNL     1       0.032  -0.399   2.493  0.00  0.00    +0.277 C 
ATOM     15  O   UNL     1       0.018   0.786   2.766  0.00  0.00    -0.267 OA
ATOM     16  N   UNL     1       0.054  -1.317   3.480  0.00  0.00    -0.323 N 
ATOM     17  H   UNL     1       0.065  -2.263   3.263  0.00  0.00    +0.145 HD
ATOM     18  H   UNL     1       0.060  -1.032   4.407  0.00  0.00    +0.145 HD
ENDBRANCH   6  14
BRANCH  11  19
ATOM     19  N   UNL     1      -0.223   0.938  -4.386  0.00  0.00    -0.203 N 
ATOM     20  C   UNL     1      -0.460   2.183  -4.845  0.00  0.00    +0.263 C 
ATOM     21  O   UNL     1      -0.678   3.088  -4.062  0.00  0.00    -0.268 OA
ATOM     22  H   UNL     1      -0.049   0.216  -5.010  0.00  0.00    +0.178 HD
BRANCH  20  23
ATOM     23  C   UNL     1      -0.454   2.448  -6.298  0.00  0.00    +0.038 A 
ATOM     24  C   UNL     1      -0.210   1.409  -7.199  0.00  0.00    +0.014 A 
ATOM     25  C   UNL     1      -0.206   1.663  -8.555  0.00  0.00    +0.016 A 
ATOM     26  C   UNL     1      -0.444   2.945  -9.023  0.00  0.00    +0.018 A 
ATOM     27  C   UNL     1      -0.687   3.979  -8.134  0.00  0.00    +0.016 A 
ATOM     28  C   UNL     1      -0.700   3.736  -6.777  0.00  0.00    +0.014 A 
ATOM     29 BR   UNL     1      -0.436   3.284 -10.883  0.00  0.00    -0.050 Br
ENDBRANCH  20  23
ENDBRANCH  11  19
TORSDOF 3
