REMARK  Name = ZINC35011125
REMARK  11 active torsions:
REMARK  status: ('A' for Active; 'I' for Inactive)
REMARK    1  A    between atoms: C_1  and  C_2
REMARK    2  A    between atoms: C_2  and  C_3
REMARK    3  A    between atoms: C_3  and  N_4
REMARK    4  A    between atoms: C_5  and  C_7
REMARK    5  A    between atoms: C_7  and  C_9
REMARK    6  A    between atoms: C_7  and  N_10
REMARK    7  A    between atoms: N_10  and  C_11
REMARK    8  A    between atoms: C_14  and  C_23
REMARK    9  A    between atoms: C_18  and  C_20
REMARK   10  A    between atoms: C_20  and  C_21
REMARK   11  A    between atoms: C_20  and  C_22
REMARK                            x       y       z     vdW  Elec       q    Type
REMARK                         _______ _______ _______ _____ _____    ______ ____
ROOT
ATOM      1  N   UNL     1       1.894  -3.816  -3.595  0.00  0.00    +0.388 N 
ATOM      2  H   UNL     1       1.284  -3.123  -4.002  0.00  0.00    -0.084 HD
ATOM      3  H   UNL     1       2.839  -3.659  -3.911  0.00  0.00    -0.084 HD
ENDROOT
BRANCH   1   4
ATOM      4  C   UNL     1       1.456  -5.156  -4.009  0.00  0.00    -0.067 C 
ATOM      5  C   UNL     1      -0.070  -5.186  -4.107  0.00  0.00    -0.012 C 
ATOM      6  C   UNL     1      -0.526  -6.582  -4.538  0.00  0.00    -0.016 C 
ATOM      7  C   UNL     1       0.080  -6.918  -5.902  0.00  0.00    +0.003 C 
ATOM      8  C   UNL     1       1.606  -6.888  -5.804  0.00  0.00    +0.002 C 
ATOM      9  C   UNL     1       2.062  -5.492  -5.373  0.00  0.00    -0.022 C 
ATOM     10  C   UNL     1      -0.061  -7.612  -3.506  0.00  0.00    +0.007 C 
BRANCH   9  11
ATOM     11  C   UNL     1       3.588  -5.462  -5.275  0.00  0.00    -0.016 C 
ATOM     12  C   UNL     1       4.062  -6.579  -4.343  0.00  0.00    +0.007 C 
ATOM     13  C   UNL     1       4.193  -5.668  -6.665  0.00  0.00    +0.007 C 
ENDBRANCH   9  11
ENDBRANCH   1   4
BRANCH   1  14
ATOM     14  C   UNL     1       1.843  -3.715  -2.131  0.00  0.00    +0.013 C 
ATOM     15  C   UNL     1       0.391  -3.825  -1.662  0.00  0.00    -0.004 C 
BRANCH  14  17
ATOM     16  N   UNL     1       2.466  -2.072  -0.390  0.00  0.00    -0.317 N 
ATOM     17  C   UNL     1       2.411  -2.387  -1.699  0.00  0.00    +0.199 C 
ATOM     18  O   UNL     1       2.818  -1.603  -2.530  0.00  0.00    -0.278 OA
ATOM     19  H   UNL     1       2.140  -2.699   0.274  0.00  0.00    +0.149 HD
BRANCH  16  20
ATOM     20  C   UNL     1       3.018  -0.781   0.030  0.00  0.00    +0.104 C 
BRANCH  20  22
ATOM     21  C   UNL     1       3.542   0.672   1.993  0.00  0.00    +0.005 C 
ATOM     22  C   UNL     1       2.965  -0.676   1.555  0.00  0.00    +0.015 C 
ENDBRANCH  20  22
ENDBRANCH  16  20
ENDBRANCH  14  17
ENDBRANCH   1  14
TORSDOF 6
