REMARK  Name = ZINC67427103
REMARK  4 active torsions:
REMARK  status: ('A' for Active; 'I' for Inactive)
REMARK    1  A    between atoms: N_9  and  C_10
REMARK    2  A    between atoms: C_10  and  C_11
REMARK    3  A    between atoms: N_16  and  C_17
REMARK    4  A    between atoms: C_17  and  C_18
REMARK                            x       y       z     vdW  Elec       q    Type
REMARK                         _______ _______ _______ _____ _____    ______ ____
ROOT
ATOM      1  C   UNL     1      -0.121  -6.337  -0.019  0.00  0.00    -0.051 C 
ATOM      2  C   UNL     1      -1.406  -7.185  -0.121  0.00  0.00    -0.016 C 
ATOM      3  C   UNL     1      -1.470  -7.543  -1.630  0.00  0.00    -0.020 C 
ATOM      4  C   UNL     1       0.031  -7.718  -1.974  0.00  0.00    -0.078 C 
ATOM      5  N   UNL     1       0.727  -6.681  -1.176  0.00  0.00    +0.383 N 
ATOM      6  H   UNL     1       0.877  -5.860  -1.742  0.00  0.00    -0.081 HD
ENDROOT
BRANCH   1   7
ATOM      7  C   UNL     1      -0.475  -4.849  -0.058  0.00  0.00    +0.090 C 
BRANCH   7  16
ATOM      8  C   UNL     1       0.782   1.488  -0.309  0.00  0.00    +0.120 A 
ATOM      9  C   UNL     1       2.033   2.008  -0.365  0.00  0.00    +0.068 A 
ATOM     10  S   UNL     1       3.014   0.516  -0.345  0.00  0.00    -0.060 S 
ATOM     11  C   UNL     1       1.750  -0.593  -0.269  0.00  0.00    +0.165 A 
ATOM     12  N   UNL     1       0.680   0.173  -0.262  0.00  0.00    -0.233 NA
ATOM     13  N   UNL     1       1.819  -1.980  -0.225  0.00  0.00    -0.248 N 
ATOM     14  C   UNL     1       0.688  -2.710  -0.166  0.00  0.00    +0.305 C 
ATOM     15  O   UNL     1      -0.394  -2.155  -0.150  0.00  0.00    -0.252 OA
ATOM     16  N   UNL     1       0.755  -4.056  -0.123  0.00  0.00    -0.301 N 
ATOM     17  H   UNL     1       2.682  -2.423  -0.237  0.00  0.00    +0.158 HD
ATOM     18  H   UNL     1       1.618  -4.499  -0.135  0.00  0.00    +0.150 HD
ENDBRANCH   7  16
ENDBRANCH   1   7
BRANCH   5  19
ATOM     19  C   UNL     1       2.018  -7.199  -0.705  0.00  0.00    -0.075 C 
BRANCH  19  20
ATOM     20  C   UNL     1       2.944  -7.423  -1.902  0.00  0.00    -0.028 C 
ATOM     21  C   UNL     1       4.236  -8.092  -1.429  0.00  0.00    +0.002 C 
ATOM     22  C   UNL     1       5.163  -8.316  -2.626  0.00  0.00    +0.000 C 
ATOM     23  C   UNL     1       5.493  -6.970  -3.274  0.00  0.00    +0.000 C 
ATOM     24  C   UNL     1       4.201  -6.301  -3.747  0.00  0.00    +0.000 C 
ATOM     25  C   UNL     1       3.275  -6.077  -2.550  0.00  0.00    +0.002 C 
ENDBRANCH  19  20
ENDBRANCH   5  19
TORSDOF 4
