REMARK  Name = ZINC62357142
REMARK  5 active torsions:
REMARK  status: ('A' for Active; 'I' for Inactive)
REMARK    1  A    between atoms: C_1  and  C_2
REMARK    2  A    between atoms: C_2  and  N_3
REMARK    3  A    between atoms: N_3  and  C_4
REMARK    4  A    between atoms: C_4  and  C_6
REMARK    5  A    between atoms: C_4  and  C_19
REMARK                            x       y       z     vdW  Elec       q    Type
REMARK                         _______ _______ _______ _____ _____    ______ ____
ROOT
ATOM      1  C   UNL     1       1.520  -2.432  -2.389  0.00  0.00    -0.040 A 
ATOM      2  C   UNL     1       1.755  -1.589  -3.458  0.00  0.00    +0.031 A 
ATOM      3  C   UNL     1       2.500  -2.035  -4.538  0.00  0.00    +0.067 A 
ATOM      4  C   UNL     1       3.011  -3.334  -4.542  0.00  0.00    +0.068 A 
ATOM      5  C   UNL     1       2.771  -4.174  -3.465  0.00  0.00    +0.043 A 
ATOM      6  C   UNL     1       2.031  -3.719  -2.389  0.00  0.00    +0.022 A 
ATOM      7 BR   UNL     1       1.710  -4.860  -0.917  0.00  0.00    -0.050 Br
ATOM      8  N   UNL     1       3.705  -3.491  -5.739  0.00  0.00    -0.306 N 
ATOM      9  H   UNL     1       4.170  -4.293  -6.025  0.00  0.00    +0.170 HD
ATOM     10  C   UNL     1       3.621  -2.340  -6.432  0.00  0.00    +0.325 A 
ATOM     11  O   UNL     1       4.120  -2.141  -7.524  0.00  0.00    -0.247 OA
ATOM     12  N   UNL     1       2.900  -1.442  -5.734  0.00  0.00    -0.306 N 
ATOM     13  H   UNL     1       2.694  -0.537  -6.015  0.00  0.00    +0.170 HD
ENDROOT
BRANCH   1  14
ATOM     14  C   UNL     1       0.710  -1.947  -1.215  0.00  0.00    +0.011 C 
BRANCH  14  15
ATOM     15  C   UNL     1      -0.700  -2.467  -1.328  0.00  0.00    +0.039 A 
ATOM     16  C   UNL     1      -1.041  -3.698  -0.867  0.00  0.00    +0.068 A 
ATOM     17  S   UNL     1      -2.779  -3.732  -1.275  0.00  0.00    -0.084 S 
ATOM     18  C   UNL     1      -2.882  -2.205  -1.974  0.00  0.00    +0.156 A 
ATOM     19  N   UNL     1      -1.659  -1.747  -1.874  0.00  0.00    -0.254 NA
ENDBRANCH  14  15
BRANCH  14  20
ATOM     20  N   UNL     1       0.690  -0.478  -1.207  0.00  0.00    +0.387 N 
ATOM     21  H   UNL     1       0.202  -0.144  -2.024  0.00  0.00    -0.085 HD
ATOM     22  H   UNL     1       1.636  -0.129  -1.214  0.00  0.00    -0.085 HD
BRANCH  20  24
ATOM     23  C   UNL     1      -0.019   1.526   0.010  0.00  0.00    -0.017 C 
ATOM     24  C   UNL     1       0.002  -0.004   0.002  0.00  0.00    -0.085 C 
ENDBRANCH  20  24
ENDBRANCH  14  20
ENDBRANCH   1  14
TORSDOF 4
