REMARK  Name = ZINC64978012
REMARK  4 active torsions:
REMARK  status: ('A' for Active; 'I' for Inactive)
REMARK    1  A    between atoms: C_1  and  C_2
REMARK    2  A    between atoms: C_11  and  C_13
REMARK    3  A    between atoms: C_13  and  N_14
REMARK    4  A    between atoms: C_15  and  C_17
REMARK                            x       y       z     vdW  Elec       q    Type
REMARK                         _______ _______ _______ _____ _____    ______ ____
ROOT
ATOM      1  N   UNL     1      -1.312  -6.711  -2.453  0.00  0.00    -0.309 N 
ATOM      2  C   UNL     1      -1.544  -7.999  -2.776  0.00  0.00    +0.240 C 
ATOM      3  O   UNL     1      -0.614  -8.751  -2.978  0.00  0.00    -0.273 OA
ATOM      4  H   UNL     1      -2.056  -6.110  -2.291  0.00  0.00    +0.149 HD
ENDROOT
BRANCH   2   5
ATOM      5  C   UNL     1      -2.959  -8.505  -2.886  0.00  0.00    +0.190 C 
ATOM      6  C   UNL     1      -3.690  -7.774  -3.989  0.00  0.00    +0.016 C 
ATOM      7  C   UNL     1      -4.052  -8.717  -4.888  0.00  0.00    -0.004 A 
ATOM      8  C   UNL     1      -4.779  -8.650  -6.162  0.00  0.00    +0.010 A 
ATOM      9  C   UNL     1      -4.996  -9.792  -6.854  0.00  0.00    +0.001 A 
ATOM     10  C   UNL     1      -4.545 -11.034  -6.387  0.00  0.00    +0.002 A 
ATOM     11  C   UNL     1      -3.870 -11.176  -5.227  0.00  0.00    +0.026 A 
ATOM     12  C   UNL     1      -3.587 -10.041  -4.417  0.00  0.00    +0.043 A 
ATOM     13  N   UNL     1      -2.961  -9.921  -3.270  0.00  0.00    -0.370 N 
ATOM     14  H   UNL     1      -2.566 -10.646  -2.760  0.00  0.00    +0.161 HD
ENDBRANCH   2   5
BRANCH   1  15
ATOM     15  C   UNL     1       0.064  -6.219  -2.346  0.00  0.00    +0.139 C 
BRANCH  15  26
ATOM     16  C   UNL     1      -0.018   1.503   0.010  0.00  0.00    +0.109 C 
ATOM     17  C   UNL     1       0.002  -0.004   0.002  0.00  0.00    +0.217 C 
ATOM     18  O   UNL     1       0.020  -0.616   1.049  0.00  0.00    -0.276 OA
ATOM     19  N   UNL     1       0.000  -0.672  -1.169  0.00  0.00    -0.271 N 
ATOM     20  C   UNL     1      -0.015  -0.045  -2.493  0.00  0.00    +0.118 C 
ATOM     21  C   UNL     1      -0.011  -1.213  -3.493  0.00  0.00    +0.056 C 
ATOM     22  C   UNL     1       0.006  -2.454  -2.628  0.00  0.00    -0.024 A 
ATOM     23  C   UNL     1       0.018  -2.064  -1.298  0.00  0.00    +0.039 A 
ATOM     24  C   UNL     1       0.040  -3.044  -0.304  0.00  0.00    +0.024 A 
ATOM     25  C   UNL     1       0.055  -4.380  -0.646  0.00  0.00    +0.007 A 
ATOM     26  C   UNL     1       0.047  -4.758  -1.976  0.00  0.00    -0.030 A 
ATOM     27  C   UNL     1       0.016  -3.793  -2.966  0.00  0.00    +0.010 A 
ENDBRANCH  15  26
ENDBRANCH   1  15
TORSDOF 3
