REMARK  Name = ZINC61857598
REMARK  5 active torsions:
REMARK  status: ('A' for Active; 'I' for Inactive)
REMARK    1  A    between atoms: C_3  and  C_6
REMARK    2  A    between atoms: C_6  and  C_7
REMARK    3  A    between atoms: C_6  and  N_17
REMARK    4  A    between atoms: N_20  and  N_21
REMARK    5  A    between atoms: C_22  and  C_24
REMARK                            x       y       z     vdW  Elec       q    Type
REMARK                         _______ _______ _______ _____ _____    ______ ____
ROOT
ATOM      1  C   UNL     1       3.761   1.845  -0.024  0.00  0.00    +0.142 C 
ENDROOT
BRANCH   1   2
ATOM      2  C   UNL     1       4.303   1.790  -1.429  0.00  0.00    -0.022 A 
ATOM      3  C   UNL     1       4.761   0.594  -1.950  0.00  0.00    +0.006 A 
ATOM      4  C   UNL     1       5.259   0.552  -3.235  0.00  0.00    +0.004 A 
ATOM      5  C   UNL     1       5.303   1.702  -4.013  0.00  0.00    -0.044 A 
ATOM      6  C   UNL     1       4.843   2.892  -3.497  0.00  0.00    -0.044 A 
ATOM      7  C   UNL     1       4.340   2.932  -2.202  0.00  0.00    +0.009 A 
ATOM      8  C   UNL     1       4.845   4.174  -4.288  0.00  0.00    +0.035 C 
ATOM      9  C   UNL     1       5.790   4.066  -5.483  0.00  0.00    +0.005 C 
ATOM     10  C   UNL     1       5.450   2.785  -6.255  0.00  0.00    +0.005 C 
ATOM     11  C   UNL     1       5.866   1.586  -5.405  0.00  0.00    +0.035 C 
ENDBRANCH   1   2
BRANCH   1  12
ATOM     12  N   UNL     1       4.587   1.010   0.851  0.00  0.00    -0.287 N 
ATOM     13  C   UNL     1       4.641   1.268   2.173  0.00  0.00    +0.317 C 
ATOM     14  O   UNL     1       4.005   2.194   2.639  0.00  0.00    -0.251 OA
ATOM     15  N   UNL     1       5.401   0.500   2.979  0.00  0.00    -0.218 N 
ATOM     16  H   UNL     1       5.094   0.272   0.480  0.00  0.00    +0.151 HD
ATOM     17  H   UNL     1       5.441   0.685   3.930  0.00  0.00    +0.174 HD
BRANCH  15  18
ATOM     18  N   UNL     1       6.134  -0.567   2.442  0.00  0.00    -0.229 N 
ATOM     19  C   UNL     1       6.894  -1.335   3.248  0.00  0.00    +0.263 C 
ATOM     20  O   UNL     1       6.943  -1.102   4.440  0.00  0.00    -0.269 OA
ATOM     21  H   UNL     1       6.095  -0.752   1.491  0.00  0.00    +0.173 HD
BRANCH  19  22
ATOM     22  C   UNL     1       7.665  -2.457   2.683  0.00  0.00    +0.076 A 
ATOM     23  C   UNL     1       8.534  -3.393   3.411  0.00  0.00    +0.054 A 
ATOM     24  C   UNL     1       9.021  -4.237   2.489  0.00  0.00    +0.195 A 
ATOM     25  O   UNL     1       8.533  -3.902   1.284  0.00  0.00    -0.470 OA
ATOM     26  C   UNL     1       7.717  -2.847   1.377  0.00  0.00    +0.208 A 
ENDBRANCH  19  22
ENDBRANCH  15  18
ENDBRANCH   1  12
BRANCH   1  29
ATOM     27  C   UNL     1      -0.016   1.351   0.009  0.00  0.00    +0.008 A 
ATOM     28  C   UNL     1       1.183   2.038   0.002  0.00  0.00    +0.013 A 
ATOM     29  C   UNL     1       2.343   1.336  -0.013  0.00  0.00    +0.014 A 
ATOM     30  S   UNL     1       1.754  -0.349  -0.017  0.00  0.00    -0.099 S 
ATOM     31  C   UNL     1       0.002  -0.004   0.002  0.00  0.00    +0.045 A 
ENDBRANCH   1  29
TORSDOF 5
