REMARK  Name = ZINC63187837
REMARK  5 active torsions:
REMARK  status: ('A' for Active; 'I' for Inactive)
REMARK    1  A    between atoms: C_1  and  C_2
REMARK    2  A    between atoms: C_14  and  C_16
REMARK    3  A    between atoms: C_16  and  N_17
REMARK    4  A    between atoms: C_20  and  C_25
REMARK    5  A    between atoms: C_25  and  C_26
REMARK                            x       y       z     vdW  Elec       q    Type
REMARK                         _______ _______ _______ _____ _____    ______ ____
ROOT
ATOM      1  N   UNL     1       4.742  -4.088  -0.092  0.00  0.00    -0.216 N 
ATOM      2  C   UNL     1       5.158  -5.130  -0.838  0.00  0.00    +0.244 C 
ATOM      3  O   UNL     1       4.481  -6.041  -1.265  0.00  0.00    -0.273 OA
ATOM      4  C   UNL     1       6.647  -4.928  -1.032  0.00  0.00    +0.165 C 
ATOM      5  N   UNL     1       6.925  -3.678  -0.304  0.00  0.00    -0.287 N 
ATOM      6  C   UNL     1       5.751  -3.261   0.205  0.00  0.00    +0.310 C 
ATOM      7  O   UNL     1       5.623  -2.248   0.865  0.00  0.00    -0.252 OA
ATOM      8  H   UNL     1       7.785  -3.239  -0.213  0.00  0.00    +0.151 HD
ENDROOT
BRANCH   1   9
ATOM      9  C   UNL     1       3.356  -3.882   0.336  0.00  0.00    +0.214 C 
BRANCH   9  22
ATOM     10  C   UNL     1      -0.019   1.526   0.010  0.00  0.00    +0.019 C 
ATOM     11  C   UNL     1       0.002  -0.004   0.002  0.00  0.00    +0.050 C 
ATOM     12  C   UNL     1       0.709  -0.492  -1.253  0.00  0.00    +0.033 C 
ATOM     13  C   UNL     1       0.596  -1.969  -1.525  0.00  0.00    +0.115 C 
ATOM     14  N   UNL     1       1.327  -2.758  -0.522  0.00  0.00    -0.269 N 
ATOM     15  C   UNL     1       0.641  -3.176   0.626  0.00  0.00    +0.050 A 
ATOM     16  C   UNL     1       0.290  -4.514   0.771  0.00  0.00    +0.024 A 
ATOM     17  C   UNL     1      -0.428  -4.918   1.881  0.00  0.00    +0.002 A 
ATOM     18  C   UNL     1      -0.805  -4.005   2.849  0.00  0.00    +0.001 A 
ATOM     19  C   UNL     1      -0.445  -2.673   2.722  0.00  0.00    +0.016 A 
ATOM     20  C   UNL     1       0.292  -2.277   1.624  0.00  0.00    +0.030 A 
ATOM     21  S   UNL     1       0.875  -0.603   1.479  0.00  0.00    -0.120 S 
ATOM     22  C   UNL     1       2.625  -3.072  -0.704  0.00  0.00    +0.238 C 
ATOM     23  O   UNL     1       3.205  -2.703  -1.703  0.00  0.00    -0.274 OA
ENDBRANCH   9  22
ENDBRANCH   1   9
BRANCH   4  24
ATOM     24  C   UNL     1       6.981  -4.776  -2.517  0.00  0.00    +0.065 C 
BRANCH  24  25
ATOM     25  C   UNL     1       8.476  -4.699  -2.691  0.00  0.00    -0.039 C 
ATOM     26  C   UNL     1       9.314  -5.720  -2.983  0.00  0.00    -0.001 A 
ATOM     27  C   UNL     1       9.093  -7.152  -3.217  0.00  0.00    +0.010 A 
ATOM     28  C   UNL     1      10.155  -7.943  -3.494  0.00  0.00    +0.001 A 
ATOM     29  C   UNL     1      11.457  -7.430  -3.564  0.00  0.00    +0.002 A 
ATOM     30  C   UNL     1      11.740  -6.126  -3.361  0.00  0.00    +0.026 A 
ATOM     31  C   UNL     1      10.699  -5.204  -3.063  0.00  0.00    +0.043 A 
ATOM     32  N   UNL     1      10.717  -3.914  -2.829  0.00  0.00    -0.380 N 
ATOM     33  C   UNL     1       9.342  -3.465  -2.580  0.00  0.00    +0.144 C 
ATOM     34  H   UNL     1      11.506  -3.350  -2.825  0.00  0.00    +0.160 HD
ENDBRANCH  24  25
ENDBRANCH   4  24
TORSDOF 4
