REMARK  Name = ZINC39354286
REMARK  11 active torsions:
REMARK  status: ('A' for Active; 'I' for Inactive)
REMARK    1  A    between atoms: C_1  and  C_2
REMARK    2  A    between atoms: C_6  and  C_7
REMARK    3  A    between atoms: C_7  and  C_9
REMARK    4  A    between atoms: C_7  and  C_27
REMARK    5  A    between atoms: C_12  and  O_17
REMARK    6  A    between atoms: C_13  and  O_15
REMARK    7  A    between atoms: O_15  and  C_16
REMARK    8  A    between atoms: O_17  and  C_18
REMARK    9  A    between atoms: C_18  and  C_20
REMARK   10  A    between atoms: C_28  and  C_34
REMARK   11  A    between atoms: C_31  and  O_33
REMARK                            x       y       z     vdW  Elec       q    Type
REMARK                         _______ _______ _______ _____ _____    ______ ____
ROOT
ATOM      1  C   UNL     1      -1.130  -0.780   3.243  0.00  0.00    -0.032 A 
ATOM      2  C   UNL     1      -1.065  -2.114   3.603  0.00  0.00    +0.008 A 
ATOM      3  C   UNL     1      -2.113  -2.700   4.287  0.00  0.00    +0.050 A 
ATOM      4  C   UNL     1      -3.232  -1.951   4.615  0.00  0.00    +0.173 A 
ATOM      5  C   UNL     1      -3.297  -0.609   4.253  0.00  0.00    +0.163 A 
ATOM      6  C   UNL     1      -2.240  -0.026   3.571  0.00  0.00    +0.054 A 
ENDROOT
BRANCH   5   7
ATOM      7  O   UNL     1      -4.393   0.131   4.572  0.00  0.00    -0.491 OA
ATOM      8  C   UNL     1      -4.390   1.502   4.169  0.00  0.00    +0.277 C 
ENDBRANCH   5   7
BRANCH   1   9
ATOM      9  C   UNL     1       0.016  -0.146   2.497  0.00  0.00    +0.088 C 
BRANCH   9  15
ATOM     10  C   UNL     1      -2.220  -1.429   0.655  0.00  0.00    +0.068 C 
ATOM     11  C   UNL     1      -0.736  -1.457   0.394  0.00  0.00    +0.068 A 
ATOM     12  N   UNL     1      -0.150  -2.011  -0.636  0.00  0.00    -0.176 NA
ATOM     13  N   UNL     1       1.232  -1.821  -0.511  0.00  0.00    -0.243 N 
ATOM     14  C   UNL     1       1.456  -1.134   0.631  0.00  0.00    +0.271 A 
ATOM     15  C   UNL     1       0.249  -0.891   1.208  0.00  0.00    +0.052 A 
ATOM     16  O   UNL     1       2.666  -0.751   1.112  0.00  0.00    -0.266 OA
ATOM     17  H   UNL     1       1.909  -2.129  -1.134  0.00  0.00    +0.192 HD
ENDBRANCH   9  15
BRANCH   9  18
ATOM     18  C   UNL     1       1.261  -0.206   3.344  0.00  0.00    +0.017 C 
ATOM     19  C   UNL     1       2.071   0.798   3.687  0.00  0.00    +0.065 C 
ATOM     20  N   UNL     1       3.088   0.353   4.458  0.00  0.00    -0.156 NA
ATOM     21  N   UNL     1       3.065  -0.859   4.684  0.00  0.00    -0.151 NA
ATOM     22  C   UNL     1       1.882  -1.420   4.011  0.00  0.00    +0.284 C 
ATOM     23  C   UNL     1       1.878   2.234   3.271  0.00  0.00    +0.067 C 
BRANCH  22  24
ATOM     24  O   UNL     1       2.271  -2.389   3.035  0.00  0.00    -0.366 OA
ATOM     25  H   UNL     1       2.673  -3.185   3.409  0.00  0.00    +0.212 HD
ENDBRANCH  22  24
ENDBRANCH   9  18
ENDBRANCH   1   9
BRANCH   4  26
ATOM     26  O   UNL     1      -4.264  -2.526   5.288  0.00  0.00    -0.419 OA
BRANCH  26  27
ATOM     27  C   UNL     1      -5.304  -2.994   4.571  0.00  0.00    +0.345 C 
ATOM     28  O   UNL     1      -5.260  -2.981   3.357  0.00  0.00    -0.245 OA
BRANCH  27  29
ATOM     29  C   UNL     1      -6.498  -3.523   5.261  0.00  0.00    +0.059 A 
ATOM     30  C   UNL     1      -6.554  -3.534   6.657  0.00  0.00    +0.016 A 
ATOM     31  C   UNL     1      -7.672  -4.028   7.295  0.00  0.00    +0.016 A 
ATOM     32  C   UNL     1      -8.737  -4.513   6.555  0.00  0.00    +0.018 A 
ATOM     33  C   UNL     1      -8.688  -4.505   5.171  0.00  0.00    +0.016 A 
ATOM     34  C   UNL     1      -7.578  -4.008   4.521  0.00  0.00    +0.016 A 
ATOM     35 BR   UNL     1     -10.266  -5.191   7.438  0.00  0.00    -0.050 Br
ENDBRANCH  27  29
ENDBRANCH  26  27
ENDBRANCH   4  26
TORSDOF 8
