REMARK  Name = ZINC09009337
REMARK  13 active torsions:
REMARK  status: ('A' for Active; 'I' for Inactive)
REMARK    1  A    between atoms: C_1  and  C_2
REMARK    2  A    between atoms: C_2  and  O_3
REMARK    3  A    between atoms: O_3  and  C_4
REMARK    4  A    between atoms: C_4  and  C_6
REMARK    5  A    between atoms: C_7  and  C_36
REMARK    6  A    between atoms: N_8  and  C_35
REMARK    7  A    between atoms: C_11  and  N_17
REMARK    8  A    between atoms: C_12  and  O_15
REMARK    9  A    between atoms: O_15  and  C_16
REMARK   10  A    between atoms: C_18  and  C_20
REMARK   11  A    between atoms: C_20  and  N_68
REMARK   12  A    between atoms: N_23  and  C_26
REMARK   13  A    between atoms: C_29  and  N_32
REMARK                            x       y       z     vdW  Elec       q    Type
REMARK                         _______ _______ _______ _____ _____    ______ ____
ROOT
ATOM      1  N   UNL     1       5.185  -0.213   3.273  0.00  0.00    -0.284 N 
ATOM      2  C   UNL     1       4.074   0.432   2.865  0.00  0.00    +0.201 C 
ATOM      3  O   UNL     1       4.145   1.584   2.491  0.00  0.00    -0.278 OA
ATOM      4  H   UNL     1       5.143  -1.155   3.499  0.00  0.00    +0.155 HD
ENDROOT
BRANCH   1  10
ATOM      5  C   UNL     1       7.032  -0.365   5.794  0.00  0.00    +0.089 A 
ATOM      6  C   UNL     1       8.136  -0.071   6.541  0.00  0.00    +0.030 A 
ATOM      7  N   UNL     1       8.945   0.768   5.852  0.00  0.00    -0.346 N 
ATOM      8  C   UNL     1       8.398   1.060   4.618  0.00  0.00    +0.052 A 
ATOM      9  C   UNL     1       7.181   0.368   4.523  0.00  0.00    +0.039 A 
ATOM     10  C   UNL     1       6.400   0.477   3.370  0.00  0.00    +0.086 A 
ATOM     11  C   UNL     1       6.841   1.269   2.318  0.00  0.00    +0.142 A 
ATOM     12  C   UNL     1       8.044   1.956   2.419  0.00  0.00    +0.049 A 
ATOM     13  C   UNL     1       8.819   1.853   3.555  0.00  0.00    +0.030 A 
ATOM     14  C   UNL     1      10.220   1.294   6.346  0.00  0.00    +0.149 C 
ATOM     15  C   UNL     1       8.414  -0.603   7.924  0.00  0.00    +0.064 C 
BRANCH   5  16
ATOM     16  C   UNL     1       5.917  -1.238   6.180  0.00  0.00    +0.342 C 
ATOM     17  O   UNL     1       5.958  -2.425   5.922  0.00  0.00    -0.245 OA
BRANCH  16  18
ATOM     18  O   UNL     1       4.848  -0.723   6.820  0.00  0.00    -0.461 OA
BRANCH  18  20
ATOM     19  C   UNL     1       2.664  -0.883   7.886  0.00  0.00    +0.048 C 
ATOM     20  C   UNL     1       3.783  -1.645   7.171  0.00  0.00    +0.229 C 
ENDBRANCH  18  20
ENDBRANCH  16  18
ENDBRANCH   5  16
BRANCH  11  21
ATOM     21  O   UNL     1       6.090   1.376   1.188  0.00  0.00    -0.493 OA
ATOM     22  C   UNL     1       6.603   2.208   0.145  0.00  0.00    +0.277 C 
ENDBRANCH  11  21
ENDBRANCH   1  10
BRANCH   2  23
ATOM     23  C   UNL     1       2.744  -0.277   2.874  0.00  0.00    +0.019 C 
BRANCH  23  29
ATOM     24  C   UNL     1       1.992   0.799   0.839  0.00  0.00    -0.059 C 
ATOM     25  C   UNL     1       0.955   1.767   0.265  0.00  0.00    +0.086 C 
ATOM     26  N   UNL     1      -0.392   1.216   0.469  0.00  0.00    -0.333 N 
ATOM     27  C   UNL     1      -0.660   1.006   1.899  0.00  0.00    +0.086 C 
ATOM     28  C   UNL     1       0.377   0.038   2.473  0.00  0.00    -0.059 C 
ATOM     29  N   UNL     1       1.725   0.614   2.280  0.00  0.00    +0.387 N 
ATOM     30  H   UNL     1       1.767   1.528   2.748  0.00  0.00    -0.081 HD
BRANCH  26  31
ATOM     31  C   UNL     1      -1.362   2.039  -0.106  0.00  0.00    +0.030 A 
ATOM     32  C   UNL     1      -0.987   3.207  -0.758  0.00  0.00    +0.025 A 
ATOM     33  C   UNL     1      -1.948   4.016  -1.331  0.00  0.00    +0.034 A 
ATOM     34  C   UNL     1      -3.285   3.670  -1.247  0.00  0.00    +0.126 A 
ATOM     35  C   UNL     1      -3.662   2.511  -0.594  0.00  0.00    +0.034 A 
ATOM     36  C   UNL     1      -2.705   1.695  -0.024  0.00  0.00    +0.025 A 
BRANCH  34  37
ATOM     37  N   UNL     1      -4.313   4.542  -1.858  0.00  0.00    +0.056 N 
ATOM     38  O   UNL     1      -5.490   4.239  -1.785  0.00  0.00    -0.126 OA
ATOM     39  O   UNL     1      -3.982   5.563  -2.433  0.00  0.00    -0.126 OA
ENDBRANCH  34  37
ENDBRANCH  26  31
ENDBRANCH  23  29
ENDBRANCH   2  23
TORSDOF 9
