REMARK  Name = ZINC50961964
REMARK  5 active torsions:
REMARK  status: ('A' for Active; 'I' for Inactive)
REMARK    1  A    between atoms: C_1  and  C_2
REMARK    2  A    between atoms: C_2  and  N_3
REMARK    3  A    between atoms: N_3  and  C_4
REMARK    4  A    between atoms: C_4  and  C_6
REMARK    5  A    between atoms: C_4  and  C_17
REMARK                            x       y       z     vdW  Elec       q    Type
REMARK                         _______ _______ _______ _____ _____    ______ ____
ROOT
ATOM      1  C   UNL     1      -1.356  -1.981   0.004  0.00  0.00    -0.012 C 
ENDROOT
BRANCH   1   2
ATOM      2  C   UNL     1      -2.766  -2.502  -0.109  0.00  0.00    -0.055 A 
ATOM      3  C   UNL     1      -3.788  -1.880   0.584  0.00  0.00    +0.006 A 
ATOM      4  C   UNL     1      -5.084  -2.353   0.485  0.00  0.00    +0.049 A 
ATOM      5  C   UNL     1      -5.355  -3.452  -0.313  0.00  0.00    +0.162 A 
ATOM      6  C   UNL     1      -4.330  -4.076  -1.008  0.00  0.00    +0.162 A 
ATOM      7  C   UNL     1      -3.034  -3.598  -0.910  0.00  0.00    +0.051 A 
ATOM      8  O   UNL     1      -4.607  -5.158  -1.792  0.00  0.00    -0.488 OA
ATOM      9  C   UNL     1      -5.003  -6.345  -1.102  0.00  0.00    +0.232 C 
ATOM     10  C   UNL     1      -6.493  -6.322  -0.799  0.00  0.00    +0.082 C 
ATOM     11  C   UNL     1      -6.871  -5.208   0.165  0.00  0.00    +0.232 C 
ATOM     12  O   UNL     1      -6.630  -3.927  -0.421  0.00  0.00    -0.488 OA
ENDBRANCH   1   2
BRANCH   1  13
ATOM     13  C   UNL     1      -0.727  -2.490   1.303  0.00  0.00    +0.109 C 
ATOM     14  C   UNL     1      -0.593  -4.014   1.242  0.00  0.00    +0.030 C 
ATOM     15  C   UNL     1      -0.018  -4.521   2.569  0.00  0.00    +0.005 C 
ATOM     16  C   UNL     1      -0.926  -4.063   3.714  0.00  0.00    +0.028 C 
ATOM     17  C   UNL     1      -1.048  -2.537   3.679  0.00  0.00    +0.160 C 
ATOM     18  O   UNL     1      -1.559  -2.130   2.408  0.00  0.00    -0.378 OA
ENDBRANCH   1  13
BRANCH   1  19
ATOM     19  N   UNL     1      -1.376  -0.512   0.012  0.00  0.00    +0.385 N 
ATOM     20  H   UNL     1      -1.848  -0.187   0.843  0.00  0.00    -0.085 HD
ATOM     21  H   UNL     1      -1.864  -0.178  -0.805  0.00  0.00    -0.085 HD
BRANCH  19  23
ATOM     22  C   UNL     1      -0.019   1.526   0.010  0.00  0.00    -0.017 C 
ATOM     23  C   UNL     1       0.002  -0.004   0.002  0.00  0.00    -0.085 C 
ENDBRANCH  19  23
ENDBRANCH   1  19
TORSDOF 4
