REMARK  Name = ZINC51003172
REMARK  6 active torsions:
REMARK  status: ('A' for Active; 'I' for Inactive)
REMARK    1  A    between atoms: C_1  and  C_2
REMARK    2  A    between atoms: C_2  and  C_3
REMARK    3  A    between atoms: C_2  and  C_4
REMARK    4  A    between atoms: C_2  and  N_5
REMARK    5  A    between atoms: C_6  and  C_17
REMARK    6  A    between atoms: C_8  and  C_12
REMARK                            x       y       z     vdW  Elec       q    Type
REMARK                         _______ _______ _______ _____ _____    ______ ____
ROOT
ATOM      1  N   UNL     1      -2.053   0.644  -1.219  0.00  0.00    -0.270 N 
ATOM      2  C   UNL     1      -2.659   0.133  -0.097  0.00  0.00    +0.108 C 
ATOM      3  N   UNL     1      -2.966  -1.120  -0.213  0.00  0.00    -0.363 N 
ATOM      4  C   UNL     1      -2.546  -1.572  -1.548  0.00  0.00    +0.145 C 
ATOM      5  C   UNL     1      -1.941  -0.335  -2.182  0.00  0.00    +0.097 C 
ATOM      6  N   UNL     1      -1.431  -0.224  -3.364  0.00  0.00    -0.388 N 
ATOM      7  H   UNL     1      -0.976   0.594  -3.621  0.00  0.00    +0.157 HD
ATOM      8  H   UNL     1      -1.503  -0.957  -3.995  0.00  0.00    +0.157 HD
ATOM      9  H   UNL     1      -3.398  -1.665   0.463  0.00  0.00    +0.162 HD
ENDROOT
BRANCH   2  10
ATOM     10  C   UNL     1      -2.932   0.932   1.119  0.00  0.00    +0.013 A 
ATOM     11  C   UNL     1      -2.180   0.726   2.276  0.00  0.00    +0.011 A 
ATOM     12  C   UNL     1      -2.439   1.474   3.406  0.00  0.00    +0.001 A 
ATOM     13  C   UNL     1      -3.442   2.427   3.394  0.00  0.00    +0.000 A 
ATOM     14  C   UNL     1      -4.191   2.636   2.250  0.00  0.00    +0.001 A 
ATOM     15  C   UNL     1      -3.938   1.899   1.111  0.00  0.00    +0.011 A 
ENDBRANCH   2  10
BRANCH   4  16
ATOM     16  C   UNL     1      -3.753  -2.052  -2.356  0.00  0.00    +0.019 C 
ATOM     17  C   UNL     1      -4.816  -0.936  -2.430  0.00  0.00    +0.006 C 
ATOM     18  C   UNL     1      -6.166  -1.692  -2.342  0.00  0.00    +0.000 C 
ATOM     19  C   UNL     1      -5.862  -2.816  -1.321  0.00  0.00    +0.000 C 
ATOM     20  C   UNL     1      -4.418  -3.247  -1.651  0.00  0.00    +0.006 C 
ENDBRANCH   4  16
BRANCH   1  22
ATOM     21  C   UNL     1      -2.462   2.735  -2.421  0.00  0.00    +0.031 C 
ATOM     22  C   UNL     1      -1.599   2.028  -1.373  0.00  0.00    +0.034 C 
ATOM     23  C   UNL     1      -0.138   2.038  -1.824  0.00  0.00    +0.031 C 
ATOM     24  C   UNL     1      -1.725   2.757  -0.034  0.00  0.00    +0.031 C 
ENDBRANCH   1  22
TORSDOF 3
