REMARK  Name = ZINC43689421
REMARK  8 active torsions:
REMARK  status: ('A' for Active; 'I' for Inactive)
REMARK    1  A    between atoms: C_1  and  C_2
REMARK    2  A    between atoms: C_6  and  O_11
REMARK    3  A    between atoms: C_7  and  N_8
REMARK    4  A    between atoms: O_11  and  C_12
REMARK    5  A    between atoms: C_12  and  C_13
REMARK    6  A    between atoms: C_15  and  C_18
REMARK    7  A    between atoms: C_19  and  C_20
REMARK    8  A    between atoms: C_20  and  N_21
REMARK                            x       y       z     vdW  Elec       q    Type
REMARK                         _______ _______ _______ _____ _____    ______ ____
ROOT
ATOM      1  C   UNL     1       0.069  -4.202   2.274  0.00  0.00    +0.271 C 
ENDROOT
BRANCH   1   2
ATOM      2  C   UNL     1       0.083  -4.787   3.662  0.00  0.00    +0.028 A 
ATOM      3  C   UNL     1      -0.961  -5.136   4.446  0.00  0.00    +0.031 A 
ATOM      4  C   UNL     1      -0.711  -5.666   5.710  0.00  0.00    +0.032 A 
ATOM      5  C   UNL     1       0.591  -5.812   6.109  0.00  0.00    +0.062 A 
ATOM      6  S   UNL     1       1.483  -5.205   4.687  0.00  0.00    -0.097 S 
BRANCH   4   7
ATOM      7  C   UNL     1      -1.789  -6.047   6.572  0.00  0.00    -0.068 C 
ATOM      8  C   UNL     1      -2.673  -6.360   7.278  0.00  0.00    -0.117 C 
BRANCH   8   9
ATOM      9  C   UNL     1      -3.781  -6.752   8.164  0.00  0.00    +0.005 C 
BRANCH   9  10
ATOM     10  N   UNL     1      -3.239  -7.276   9.425  0.00  0.00    +0.385 N 
ATOM     11  H   UNL     1      -2.660  -8.080   9.233  0.00  0.00    -0.089 HD
ATOM     12  H   UNL     1      -2.685  -6.562   9.875  0.00  0.00    -0.089 HD
ATOM     13  H   UNL     1      -3.999  -7.545  10.032  0.00  0.00    -0.089 HD
ENDBRANCH   9  10
ENDBRANCH   8   9
ENDBRANCH   4   7
ENDBRANCH   1   2
BRANCH   1  14
ATOM     14  O   UNL     1       0.051  -2.776   2.358  0.00  0.00    -0.485 OA
BRANCH  14  20
ATOM     15  C   UNL     1      -0.018   1.503   0.010  0.00  0.00    +0.046 C 
ATOM     16  C   UNL     1       0.002  -0.004   0.002  0.00  0.00    -0.017 A 
ATOM     17  C   UNL     1       0.006  -0.688  -1.200  0.00  0.00    +0.006 A 
ATOM     18  C   UNL     1       0.025  -2.071  -1.211  0.00  0.00    +0.004 A 
ATOM     19  C   UNL     1       0.040  -2.772  -0.020  0.00  0.00    +0.048 A 
ATOM     20  C   UNL     1       0.036  -2.088   1.186  0.00  0.00    +0.151 A 
ATOM     21  C   UNL     1       0.023  -0.700   1.195  0.00  0.00    +0.170 A 
BRANCH  21  22
ATOM     22  N   UNL     1       0.025   0.033   2.480  0.00  0.00    +0.060 N 
ATOM     23  O   UNL     1      -1.022   0.317   3.015  0.00  0.00    -0.126 OA
ATOM     24  O   UNL     1       1.072   0.347   2.996  0.00  0.00    -0.126 OA
ENDBRANCH  21  22
ENDBRANCH  14  20
ENDBRANCH   1  14
TORSDOF 7
