REMARK  Name = ZINC38101529
REMARK  4 active torsions:
REMARK  status: ('A' for Active; 'I' for Inactive)
REMARK    1  A    between atoms: N_3  and  S_17
REMARK    2  A    between atoms: C_7  and  C_9
REMARK    3  A    between atoms: C_12  and  O_16
REMARK    4  A    between atoms: S_17  and  N_20
REMARK                            x       y       z     vdW  Elec       q    Type
REMARK                         _______ _______ _______ _____ _____    ______ ____
ROOT
ATOM      1  C   UNL     1      -0.018   1.465   0.010  0.00  0.00    +0.125 C 
ATOM      2  C   UNL     1       1.429   1.975  -0.001  0.00  0.00    +0.129 C 
ATOM      3  N   UNL     1       2.183   1.271   1.046  0.00  0.00    -0.164 NA
ATOM      4  C   UNL     1       2.203  -0.198   1.038  0.00  0.00    +0.129 C 
ATOM      5  C   UNL     1       0.756  -0.708   1.049  0.00  0.00    +0.125 C 
ATOM      6  N   UNL     1       0.002  -0.004   0.002  0.00  0.00    -0.300 N 
ATOM      7  C   UNL     1      -0.660  -0.694  -0.948  0.00  0.00    +0.202 C 
ATOM      8  O   UNL     1      -1.279  -0.102  -1.807  0.00  0.00    -0.277 OA
ENDROOT
BRANCH   7   9
ATOM      9  C   UNL     1      -0.630  -2.200  -0.944  0.00  0.00    +0.019 C 
ATOM     10  C   UNL     1      -1.666  -2.756   0.057  0.00  0.00    +0.023 C 
ATOM     11  C   UNL     1      -2.239  -4.019  -0.619  0.00  0.00    +0.097 C 
ATOM     12  C   UNL     1      -1.501  -4.120  -1.971  0.00  0.00    -0.050 C 
ATOM     13  N   UNL     1      -1.059  -2.731  -2.263  0.00  0.00    +0.388 N 
ATOM     14  H   UNL     1      -1.826  -2.187  -2.630  0.00  0.00    -0.085 HD
ATOM     15  H   UNL     1      -0.285  -2.734  -2.911  0.00  0.00    -0.085 HD
BRANCH  11  16
ATOM     16  O   UNL     1      -1.974  -5.173   0.181  0.00  0.00    -0.394 OA
ATOM     17  H   UNL     1      -2.311  -5.998  -0.195  0.00  0.00    +0.210 HD
ENDBRANCH  11  16
ENDBRANCH   7   9
BRANCH   3  18
ATOM     18  S   UNL     1       2.996   2.119   2.213  0.00  0.00    +0.095 S 
ATOM     19  O   UNL     1       4.025   1.265   2.692  0.00  0.00    -0.141 OA
ATOM     20  O   UNL     1       3.264   3.404   1.670  0.00  0.00    -0.141 OA
BRANCH  18  21
ATOM     21  N   UNL     1       1.946   2.347   3.473  0.00  0.00    -0.193 NA
ATOM     22  H   UNL     1       1.042   2.000   3.420  0.00  0.00    +0.145 HD
ATOM     23  H   UNL     1       2.235   2.829   4.264  0.00  0.00    +0.145 HD
ENDBRANCH  18  21
ENDBRANCH   3  18
TORSDOF 4
