REMARK  Name = ZINC42619033
REMARK  8 active torsions:
REMARK  status: ('A' for Active; 'I' for Inactive)
REMARK    1  A    between atoms: C_1  and  C_2
REMARK    2  A    between atoms: C_5  and  S_8
REMARK    3  A    between atoms: N_6  and  N_7
REMARK    4  A    between atoms: S_8  and  C_9
REMARK    5  A    between atoms: C_9  and  C_10
REMARK    6  A    between atoms: C_12  and  C_15
REMARK    7  A    between atoms: C_15  and  C_16
REMARK    8  A    between atoms: C_15  and  C_17
REMARK                            x       y       z     vdW  Elec       q    Type
REMARK                         _______ _______ _______ _____ _____    ______ ____
ROOT
ATOM      1  S   UNL     1       0.059  -3.580   1.560  0.00  0.00    -0.075 S 
ENDROOT
BRANCH   1   6
ATOM      2  C   UNL     1      -0.018   1.503   0.010  0.00  0.00    +0.090 C 
ATOM      3  C   UNL     1       0.002  -0.004   0.002  0.00  0.00    +0.148 A 
ATOM      4  N   UNL     1       0.008  -0.770  -1.052  0.00  0.00    -0.132 NA
ATOM      5  N   UNL     1       0.027  -2.006  -0.699  0.00  0.00    -0.121 NA
ATOM      6  C   UNL     1       0.034  -2.095   0.611  0.00  0.00    +0.209 A 
ATOM      7  N   UNL     1       0.024  -0.820   1.099  0.00  0.00    -0.228 N 
BRANCH   7   8
ATOM      8  N   UNL     1       0.030  -0.439   2.411  0.00  0.00    -0.295 N 
ATOM      9  H   UNL     1      -0.910  -0.351   2.767  0.00  0.00    +0.163 HD
ATOM     10  H   UNL     1       0.570  -1.081   2.971  0.00  0.00    +0.163 HD
ENDBRANCH   7   8
ENDBRANCH   1   6
BRANCH   1  11
ATOM     11  C   UNL     1       0.073  -4.897   0.313  0.00  0.00    +0.176 C 
BRANCH  11  12
ATOM     12  C   UNL     1       0.095  -6.239   0.999  0.00  0.00    +0.238 A 
ATOM     13  N   UNL     1      -0.950  -6.936   1.347  0.00  0.00    -0.195 NA
ATOM     14  C   UNL     1      -0.567  -8.076   1.934  0.00  0.00    +0.174 A 
ATOM     15  N   UNL     1       0.734  -8.117   1.966  0.00  0.00    -0.061 NA
ATOM     16  O   UNL     1       1.191  -6.922   1.352  0.00  0.00    -0.337 OA
BRANCH  14  17
ATOM     17  C   UNL     1      -1.491  -9.139   2.470  0.00  0.00    +0.054 C 
ATOM     18  C   UNL     1      -1.225 -10.460   1.745  0.00  0.00    +0.015 C 
ATOM     19  C   UNL     1      -1.244  -9.321   3.969  0.00  0.00    +0.015 C 
ENDBRANCH  14  17
ENDBRANCH  11  12
ENDBRANCH   1  11
TORSDOF 5
