REMARK  Name = ZINC67011241
REMARK  7 active torsions:
REMARK  status: ('A' for Active; 'I' for Inactive)
REMARK    1  A    between atoms: C_1  and  O_2
REMARK    2  A    between atoms: O_2  and  C_3
REMARK    3  A    between atoms: C_6  and  C_10
REMARK    4  A    between atoms: C_7  and  O_9
REMARK    5  A    between atoms: C_10  and  N_11
REMARK    6  A    between atoms: N_11  and  C_12
REMARK    7  A    between atoms: C_12  and  C_13
REMARK                            x       y       z     vdW  Elec       q    Type
REMARK                         _______ _______ _______ _____ _____    ______ ____
ROOT
ATOM      1  N   UNL     1       1.486  -2.933  -5.351  0.00  0.00    +0.384 N 
ATOM      2  H   UNL     1       0.863  -3.588  -4.905  0.00  0.00    -0.085 HD
ATOM      3  H   UNL     1       0.961  -2.133  -5.672  0.00  0.00    -0.085 HD
ENDROOT
BRANCH   1   4
ATOM      4  C   UNL     1       2.507  -2.495  -4.390  0.00  0.00    -0.043 C 
BRANCH   4   8
ATOM      5  C   UNL     1       0.606  -0.607  -1.056  0.00  0.00    +0.124 A 
ATOM      6  C   UNL     1       1.173   0.162  -2.062  0.00  0.00    +0.046 A 
ATOM      7  C   UNL     1       1.787  -0.451  -3.138  0.00  0.00    +0.009 A 
ATOM      8  C   UNL     1       1.837  -1.830  -3.215  0.00  0.00    -0.023 A 
ATOM      9  C   UNL     1       1.272  -2.603  -2.211  0.00  0.00    +0.122 A 
ATOM     10  C   UNL     1       0.660  -1.990  -1.127  0.00  0.00    +0.091 A 
BRANCH   5  12
ATOM     11  C   UNL     1      -0.017   1.425   0.010  0.00  0.00    +0.277 C 
ATOM     12  O   UNL     1       0.002  -0.004   0.002  0.00  0.00    -0.495 OA
ENDBRANCH   5  12
BRANCH   9  13
ATOM     13  O   UNL     1       1.322  -3.959  -2.286  0.00  0.00    -0.506 OA
ATOM     14  H   UNL     1       2.104  -4.347  -1.872  0.00  0.00    +0.292 HD
ENDBRANCH   9  13
ENDBRANCH   4   8
ENDBRANCH   1   4
BRANCH   1  15
ATOM     15  C   UNL     1       2.139  -3.581  -6.497  0.00  0.00    -0.046 C 
BRANCH  15  16
ATOM     16  C   UNL     1       1.092  -4.030  -7.483  0.00  0.00    -0.061 A 
ATOM     17  C   UNL     1       0.538  -5.292  -7.373  0.00  0.00    +0.005 A 
ATOM     18  C   UNL     1      -0.424  -5.711  -8.274  0.00  0.00    +0.049 A 
ATOM     19  C   UNL     1      -0.831  -4.861  -9.289  0.00  0.00    +0.162 A 
ATOM     20  C   UNL     1      -0.275  -3.595  -9.400  0.00  0.00    +0.162 A 
ATOM     21  C   UNL     1       0.685  -3.176  -8.493  0.00  0.00    +0.051 A 
ATOM     22  O   UNL     1      -0.683  -2.764 -10.403  0.00  0.00    -0.488 OA
ATOM     23  C   UNL     1      -0.316  -3.156 -11.727  0.00  0.00    +0.232 C 
ATOM     24  C   UNL     1      -1.318  -4.150 -12.293  0.00  0.00    +0.082 C 
ATOM     25  C   UNL     1      -1.328  -5.462 -11.525  0.00  0.00    +0.232 C 
ATOM     26  O   UNL     1      -1.780  -5.261 -10.184  0.00  0.00    -0.488 OA
ENDBRANCH  15  16
ENDBRANCH   1  15
TORSDOF 6
