REMARK  Name = ZINC03908404
REMARK  5 active torsions:
REMARK  status: ('A' for Active; 'I' for Inactive)
REMARK    1  A    between atoms: C_1  and  C_2
REMARK    2  A    between atoms: C_5  and  O_21
REMARK    3  A    between atoms: C_6  and  N_8
REMARK    4  A    between atoms: C_9  and  C_11
REMARK    5  A    between atoms: C_13  and  C_16
REMARK                            x       y       z     vdW  Elec       q    Type
REMARK                         _______ _______ _______ _____ _____    ______ ____
ROOT
ATOM      1  N   UNL     1       0.050  -2.794   2.398  0.00  0.00    -0.277 N 
ATOM      2  C   UNL     1       0.149  -2.130   3.567  0.00  0.00    +0.270 C 
ATOM      3  O   UNL     1       0.133  -0.915   3.578  0.00  0.00    -0.268 OA
ATOM      4  H   UNL     1      -0.002  -3.763   2.394  0.00  0.00    +0.155 HD
ENDROOT
BRANCH   1  10
ATOM      5  C   UNL     1      -1.308   1.189  -0.144  0.00  0.00    +0.044 C 
ATOM      6  C   UNL     1      -0.627  -0.154  -0.071  0.00  0.00    -0.048 A 
ATOM      7  C   UNL     1      -0.029  -0.685  -1.199  0.00  0.00    +0.007 A 
ATOM      8  C   UNL     1       0.598  -1.917  -1.138  0.00  0.00    +0.047 A 
ATOM      9  C   UNL     1       0.627  -2.622   0.054  0.00  0.00    +0.138 A 
ATOM     10  C   UNL     1       0.024  -2.086   1.190  0.00  0.00    +0.076 A 
ATOM     11  C   UNL     1      -0.597  -0.848   1.123  0.00  0.00    +0.030 A 
BRANCH   9  12
ATOM     12  O   UNL     1       1.241  -3.833   0.115  0.00  0.00    -0.505 OA
ATOM     13  H   UNL     1       2.179  -3.787   0.348  0.00  0.00    +0.292 HD
ENDBRANCH   9  12
ENDBRANCH   1  10
BRANCH   2  14
ATOM     14  C   UNL     1       0.276  -2.882   4.839  0.00  0.00    +0.169 A 
ATOM     15  C   UNL     1       0.381  -2.318   6.127  0.00  0.00    +0.089 A 
ATOM     16  C   UNL     1       0.480  -3.340   7.024  0.00  0.00    +0.203 A 
ATOM     17  O   UNL     1       0.440  -4.498   6.338  0.00  0.00    -0.351 OA
ATOM     18  N   UNL     1       0.305  -4.188   4.963  0.00  0.00    -0.073 NA
BRANCH  16  19
ATOM     19  C   UNL     1       0.609  -3.202   8.482  0.00  0.00    +0.172 A 
ATOM     20  C   UNL     1       0.713  -4.226   9.377  0.00  0.00    +0.053 A 
ATOM     21  C   UNL     1       0.815  -3.640  10.652  0.00  0.00    +0.042 A 
ATOM     22  C   UNL     1       0.769  -2.303  10.479  0.00  0.00    +0.196 A 
ATOM     23  O   UNL     1       0.650  -2.042   9.167  0.00  0.00    -0.460 OA
ENDBRANCH  16  19
ENDBRANCH   2  14
TORSDOF 4
