REMARK  Name = ZINC35010460
REMARK  6 active torsions:
REMARK  status: ('A' for Active; 'I' for Inactive)
REMARK    1  A    between atoms: C_1  and  C_2
REMARK    2  A    between atoms: C_2  and  N_3
REMARK    3  A    between atoms: C_4  and  C_6
REMARK    4  A    between atoms: C_6  and  N_7
REMARK    5  A    between atoms: N_7  and  C_8
REMARK    6  A    between atoms: C_14  and  C_16
REMARK                            x       y       z     vdW  Elec       q    Type
REMARK                         _______ _______ _______ _____ _____    ______ ____
ROOT
ATOM      1  C   UNL     1       2.240  -4.227  -3.882  0.00  0.00    -0.068 C 
ATOM      2  C   UNL     1       1.432  -3.827  -5.118  0.00  0.00    -0.015 C 
ATOM      3  C   UNL     1       0.040  -4.456  -5.043  0.00  0.00    -0.002 C 
ATOM      4  C   UNL     1       0.171  -5.979  -4.992  0.00  0.00    +0.000 C 
ATOM      5  C   UNL     1       0.978  -6.380  -3.755  0.00  0.00    +0.002 C 
ATOM      6  C   UNL     1       2.371  -5.751  -3.830  0.00  0.00    -0.022 C 
ENDROOT
BRANCH   6   7
ATOM      7  C   UNL     1       3.178  -6.151  -2.594  0.00  0.00    -0.009 C 
ATOM      8  C   UNL     1       4.571  -5.522  -2.668  0.00  0.00    +0.004 C 
ATOM      9  C   UNL     1       5.378  -5.923  -1.432  0.00  0.00    +0.000 C 
ATOM     10  C   UNL     1       5.509  -7.446  -1.380  0.00  0.00    +0.000 C 
ATOM     11  C   UNL     1       4.117  -8.075  -1.305  0.00  0.00    +0.000 C 
ATOM     12  C   UNL     1       3.309  -7.675  -2.542  0.00  0.00    +0.004 C 
ENDBRANCH   6   7
BRANCH   1  13
ATOM     13  N   UNL     1       1.552  -3.753  -2.673  0.00  0.00    +0.387 N 
ATOM     14  H   UNL     1       2.040  -4.088  -1.855  0.00  0.00    -0.085 HD
ATOM     15  H   UNL     1       0.606  -4.103  -2.666  0.00  0.00    -0.085 HD
BRANCH  13  16
ATOM     16  C   UNL     1       1.532  -2.285  -2.665  0.00  0.00    +0.015 C 
BRANCH  16  18
ATOM     17  N   UNL     1       0.688  -0.476  -1.203  0.00  0.00    -0.317 N 
ATOM     18  C   UNL     1       0.827  -1.799  -1.425  0.00  0.00    +0.196 C 
ATOM     19  O   UNL     1       0.384  -2.597  -0.627  0.00  0.00    -0.278 OA
ATOM     20  H   UNL     1       1.042   0.162  -1.842  0.00  0.00    +0.149 HD
BRANCH  17  22
ATOM     21  C   UNL     1      -0.019   1.526   0.010  0.00  0.00    +0.024 C 
ATOM     22  C   UNL     1       0.002  -0.004   0.002  0.00  0.00    +0.101 C 
ENDBRANCH  17  22
ENDBRANCH  16  18
ENDBRANCH  13  16
ENDBRANCH   1  13
TORSDOF 5
