REMARK  Name = ZINC66963888
REMARK  5 active torsions:
REMARK  status: ('A' for Active; 'I' for Inactive)
REMARK    1  A    between atoms: C_1  and  C_2
REMARK    2  A    between atoms: C_5  and  N_11
REMARK    3  A    between atoms: C_7  and  C_8
REMARK    4  A    between atoms: N_11  and  C_12
REMARK    5  A    between atoms: C_12  and  C_13
REMARK                            x       y       z     vdW  Elec       q    Type
REMARK                         _______ _______ _______ _____ _____    ______ ____
ROOT
ATOM      1  N   UNL     1       0.519  -4.131  -0.102  0.00  0.00    -0.340 N 
ATOM      2  H   UNL     1       0.764  -4.611   0.705  0.00  0.00    +0.146 HD
ENDROOT
BRANCH   1   7
ATOM      3  C   UNL     1      -0.501   1.454   0.081  0.00  0.00    +0.044 C 
ATOM      4  C   UNL     1      -0.230  -0.027   0.036  0.00  0.00    -0.038 A 
ATOM      5  C   UNL     1      -0.330  -0.711  -1.159  0.00  0.00    +0.006 A 
ATOM      6  C   UNL     1      -0.082  -2.070  -1.206  0.00  0.00    +0.023 A 
ATOM      7  C   UNL     1       0.270  -2.757  -0.050  0.00  0.00    +0.028 A 
ATOM      8  C   UNL     1       0.373  -2.079   1.155  0.00  0.00    +0.036 A 
ATOM      9  C   UNL     1       0.128  -0.707   1.201  0.00  0.00    +0.041 A 
BRANCH   9  10
ATOM     10  C   UNL     1       0.243   0.025   2.481  0.00  0.00    +0.242 C 
ATOM     11  O   UNL     1       0.140   1.236   2.500  0.00  0.00    -0.270 OA
ATOM     12  N   UNL     1       0.461  -0.651   3.627  0.00  0.00    -0.325 N 
ATOM     13  H   UNL     1       0.542  -1.618   3.611  0.00  0.00    +0.145 HD
ATOM     14  H   UNL     1       0.536  -0.172   4.466  0.00  0.00    +0.145 HD
ENDBRANCH   9  10
ENDBRANCH   1   7
BRANCH   1  15
ATOM     15  C   UNL     1       0.409  -4.847  -1.375  0.00  0.00    +0.137 C 
BRANCH  15  16
ATOM     16  C   UNL     1       0.725  -6.305  -1.160  0.00  0.00    -0.013 A 
ATOM     17  C   UNL     1      -0.265  -7.210  -0.950  0.00  0.00    +0.097 A 
ATOM     18  C   UNL     1       0.058  -8.569  -0.752  0.00  0.00    +0.338 A 
ATOM     19  O   UNL     1      -0.840  -9.371  -0.564  0.00  0.00    -0.245 OA
ATOM     20  O   UNL     1       1.328  -9.002  -0.766  0.00  0.00    -0.422 OA
ATOM     21  C   UNL     1       2.359  -8.154  -0.970  0.00  0.00    +0.140 A 
ATOM     22  C   UNL     1       2.110  -6.786  -1.179  0.00  0.00    +0.022 A 
ATOM     23  C   UNL     1       3.175  -5.907  -1.395  0.00  0.00    +0.013 A 
ATOM     24  C   UNL     1       4.456  -6.384  -1.407  0.00  0.00    +0.016 A 
ATOM     25  C   UNL     1       4.706  -7.735  -1.206  0.00  0.00    +0.021 A 
ATOM     26  C   UNL     1       3.668  -8.617  -0.981  0.00  0.00    +0.062 A 
ATOM     27 BR   UNL     1       6.487  -8.370  -1.228  0.00  0.00    -0.050 Br
ENDBRANCH  15  16
ENDBRANCH   1  15
TORSDOF 4
