REMARK  Name = ZINC15047324
REMARK  7 active torsions:
REMARK  status: ('A' for Active; 'I' for Inactive)
REMARK    1  A    between atoms: C_1  and  C_2
REMARK    2  A    between atoms: C_2  and  C_4
REMARK    3  A    between atoms: C_2  and  N_16
REMARK    4  A    between atoms: N_6  and  C_7
REMARK    5  A    between atoms: C_10  and  C_13
REMARK    6  A    between atoms: C_20  and  C_21
REMARK    7  A    between atoms: C_26  and  O_27
REMARK                            x       y       z     vdW  Elec       q    Type
REMARK                         _______ _______ _______ _____ _____    ______ ____
ROOT
ATOM      1  N   UNL     1       0.559  -0.935  -0.914  0.00  0.00    -0.244 N 
ATOM      2  C   UNL     1      -0.053  -1.558  -1.906  0.00  0.00    +0.259 C 
ATOM      3  O   UNL     1      -1.232  -1.855  -1.845  0.00  0.00    -0.269 OA
ATOM      4  C   UNL     1       0.766  -1.877  -3.093  0.00  0.00    +0.077 C 
ATOM      5  C   UNL     1       0.414  -2.502  -4.245  0.00  0.00    +0.032 C 
ATOM      6  S   UNL     1       2.349  -1.212  -2.595  0.00  0.00    -0.061 S 
ATOM      7  C   UNL     1       1.864  -0.603  -0.988  0.00  0.00    +0.121 C 
ATOM      8  S   UNL     1       2.824   0.204   0.178  0.00  0.00    -0.027 S 
ENDROOT
BRANCH   5   9
ATOM      9  C   UNL     1       1.447  -2.901  -5.209  0.00  0.00    +0.019 A 
ATOM     10  C   UNL     1       2.784  -3.004  -4.806  0.00  0.00    +0.026 A 
ATOM     11  C   UNL     1       3.748  -3.380  -5.717  0.00  0.00    +0.019 A 
ATOM     12  C   UNL     1       3.399  -3.657  -7.030  0.00  0.00    +0.019 A 
ATOM     13  C   UNL     1       2.083  -3.559  -7.441  0.00  0.00    +0.047 A 
ATOM     14  C   UNL     1       1.099  -3.189  -6.539  0.00  0.00    +0.124 A 
ATOM     15 BR   UNL     1       5.553  -3.518  -5.173  0.00  0.00    -0.050 Br
BRANCH  14  16
ATOM     16  O   UNL     1      -0.194  -3.099  -6.940  0.00  0.00    -0.506 OA
ATOM     17  H   UNL     1      -0.443  -2.225  -7.273  0.00  0.00    +0.292 HD
ENDBRANCH  14  16
ENDBRANCH   5   9
BRANCH   1  19
ATOM     18  C   UNL     1      -0.181   0.926   0.490  0.00  0.00    +0.038 C 
ATOM     19  C   UNL     1      -0.200  -0.591   0.291  0.00  0.00    +0.166 C 
BRANCH  19  20
ATOM     20  C   UNL     1       0.425  -1.262   1.487  0.00  0.00    +0.238 C 
ATOM     21  O   UNL     1       1.407  -1.959   1.347  0.00  0.00    -0.273 OA
ATOM     22  N   UNL     1      -0.108  -1.088   2.713  0.00  0.00    -0.284 N 
ATOM     23  H   UNL     1      -0.848  -0.473   2.837  0.00  0.00    +0.155 HD
BRANCH  22  24
ATOM     24  C   UNL     1       0.404  -1.790   3.801  0.00  0.00    +0.033 A 
ATOM     25  C   UNL     1       1.771  -2.037   3.887  0.00  0.00    +0.024 A 
ATOM     26  C   UNL     1       2.279  -2.729   4.957  0.00  0.00    +0.017 A 
ATOM     27  C   UNL     1       1.421  -3.185   5.964  0.00  0.00    +0.063 A 
ATOM     28  C   UNL     1       0.047  -2.934   5.874  0.00  0.00    +0.017 A 
ATOM     29  C   UNL     1      -0.452  -2.238   4.803  0.00  0.00    +0.024 A 
BRANCH  27  30
ATOM     30  C   UNL     1       1.962  -3.928   7.114  0.00  0.00    +0.387 C 
ATOM     31  O   UNL     1       3.163  -4.147   7.191  0.00  0.00    -0.241 OA
ATOM     32  O   UNL     1       1.210  -4.327   7.993  0.00  0.00    -0.241 OA
ENDBRANCH  27  30
ENDBRANCH  22  24
ENDBRANCH  19  20
ENDBRANCH   1  19
TORSDOF 6
