REMARK  Name = ZINC47155225
REMARK  7 active torsions:
REMARK  status: ('A' for Active; 'I' for Inactive)
REMARK    1  A    between atoms: C_1  and  C_2
REMARK    2  A    between atoms: C_2  and  C_3
REMARK    3  A    between atoms: C_7  and  C_26
REMARK    4  A    between atoms: C_8  and  N_9
REMARK    5  A    between atoms: N_12  and  C_13
REMARK    6  A    between atoms: C_13  and  C_15
REMARK    7  A    between atoms: C_13  and  C_16
REMARK                            x       y       z     vdW  Elec       q    Type
REMARK                         _______ _______ _______ _____ _____    ______ ____
ROOT
ATOM      1  N   UNL     1      -1.856  -0.217  -2.520  0.00  0.00    -0.269 N 
ATOM      2  C   UNL     1      -2.542  -0.616  -3.610  0.00  0.00    +0.304 C 
ATOM      3  O   UNL     1      -3.578  -1.238  -3.482  0.00  0.00    -0.252 OA
ATOM      4  N   UNL     1      -2.078  -0.324  -4.841  0.00  0.00    -0.293 N 
ATOM      5  H   UNL     1      -1.070   0.342  -2.619  0.00  0.00    +0.156 HD
ATOM      6  H   UNL     1      -1.251   0.173  -4.943  0.00  0.00    +0.151 HD
ENDROOT
BRANCH   1  12
ATOM      7  C   UNL     1      -2.918   0.298  -0.413  0.00  0.00    -0.026 A 
ATOM      8  C   UNL     1      -3.339  -0.095   0.843  0.00  0.00    +0.005 A 
ATOM      9  C   UNL     1      -3.119  -1.390   1.273  0.00  0.00    +0.001 A 
ATOM     10  C   UNL     1      -2.477  -2.296   0.449  0.00  0.00    +0.005 A 
ATOM     11  C   UNL     1      -2.054  -1.910  -0.807  0.00  0.00    -0.029 A 
ATOM     12  C   UNL     1      -2.279  -0.611  -1.245  0.00  0.00    +0.041 A 
ATOM     13  C   UNL     1      -1.354  -2.897  -1.705  0.00  0.00    +0.045 C 
BRANCH   7  15
ATOM     14  C   UNL     1      -4.454   1.765  -1.693  0.00  0.00    +0.009 C 
ATOM     15  C   UNL     1      -3.158   1.710  -0.881  0.00  0.00    +0.033 C 
ENDBRANCH   7  15
ENDBRANCH   1  12
BRANCH   4  16
ATOM     16  C   UNL     1      -2.824  -0.757  -6.026  0.00  0.00    +0.102 C 
ATOM     17  C   UNL     1      -3.908   0.272  -6.351  0.00  0.00    +0.033 C 
BRANCH  16  18
ATOM     18  C   UNL     1      -1.881  -0.879  -7.196  0.00  0.00    -0.027 A 
ATOM     19  C   UNL     1      -0.880   0.058  -7.380  0.00  0.00    +0.007 A 
ATOM     20  C   UNL     1      -0.014  -0.048  -8.448  0.00  0.00    +0.024 A 
ATOM     21  C   UNL     1      -0.142  -1.102  -9.351  0.00  0.00    +0.037 A 
ATOM     22  C   UNL     1      -1.151  -2.037  -9.155  0.00  0.00    -0.017 A 
ATOM     23  C   UNL     1      -2.011  -1.931  -8.085  0.00  0.00    +0.011 A 
ATOM     24  C   UNL     1      -1.029  -3.037 -10.281  0.00  0.00    +0.133 C 
ATOM     25  C   UNL     1       0.146  -2.536 -11.093  0.00  0.00    +0.222 C 
ATOM     26  O   UNL     1       0.597  -3.044 -12.097  0.00  0.00    -0.275 OA
ATOM     27  N   UNL     1       0.597  -1.422 -10.490  0.00  0.00    -0.285 N 
ATOM     28  H   UNL     1       1.349  -0.901 -10.811  0.00  0.00    +0.155 HD
ENDBRANCH  16  18
ENDBRANCH   4  16
TORSDOF 4
