REMARK  Name = ZINC50200153
REMARK  3 active torsions:
REMARK  status: ('A' for Active; 'I' for Inactive)
REMARK    1  A    between atoms: C_6  and  N_11
REMARK    2  A    between atoms: N_11  and  S_12
REMARK    3  A    between atoms: S_12  and  C_15
REMARK                            x       y       z     vdW  Elec       q    Type
REMARK                         _______ _______ _______ _____ _____    ______ ____
ROOT
ATOM      1  C   UNL     1      -1.613   0.067  -1.315  0.00  0.00    -0.003 C 
ATOM      2  C   UNL     1      -0.163   0.295  -1.774  0.00  0.00    -0.012 C 
ATOM      3  C   UNL     1       0.267  -0.530  -0.554  0.00  0.00    -0.067 C 
ATOM      4  C   UNL     1      -1.110  -1.205  -0.612  0.00  0.00    -0.012 C 
ATOM      5  C   UNL     1       1.424  -1.486  -0.844  0.00  0.00    +0.008 C 
ATOM      6  C   UNL     1       1.643  -2.389   0.376  0.00  0.00    +0.073 C 
ATOM      7  C   UNL     1       1.853  -1.512   1.614  0.00  0.00    +0.001 C 
ATOM      8  C   UNL     1       0.632  -0.613   1.815  0.00  0.00    -0.080 C 
ATOM      9  N   UNL     1       0.474   0.273   0.654  0.00  0.00    +0.383 N 
ATOM     10  H   UNL     1       1.305   0.835   0.545  0.00  0.00    -0.085 HD
ATOM     11  H   UNL     1      -0.323   0.875   0.797  0.00  0.00    -0.085 HD
ENDROOT
BRANCH   6  12
ATOM     12  N   UNL     1       2.826  -3.226   0.159  0.00  0.00    -0.191 NA
ATOM     13  H   UNL     1       3.704  -2.818   0.096  0.00  0.00    +0.148 HD
BRANCH  12  14
ATOM     14  S   UNL     1       2.664  -4.868   0.022  0.00  0.00    +0.033 S 
ATOM     15  O   UNL     1       1.652  -5.052  -0.959  0.00  0.00    -0.158 OA
ATOM     16  O   UNL     1       3.984  -5.345  -0.200  0.00  0.00    -0.158 OA
BRANCH  14  17
ATOM     17  C   UNL     1       2.067  -5.415   1.645  0.00  0.00    +0.152 C 
ATOM     18  C   UNL     1       3.085  -5.028   2.723  0.00  0.00    +0.056 C 
ATOM     19  C   UNL     1       2.611  -5.562   4.077  0.00  0.00    +0.161 C 
ATOM     20  O   UNL     1       2.442  -6.979   3.996  0.00  0.00    -0.380 OA
ATOM     21  C   UNL     1       1.468  -7.397   3.038  0.00  0.00    +0.161 C 
ATOM     22  C   UNL     1       1.896  -6.937   1.643  0.00  0.00    +0.056 C 
ENDBRANCH  14  17
ENDBRANCH  12  14
ENDBRANCH   6  12
TORSDOF 3
