REMARK  Name = ZINC61882592
REMARK  10 active torsions:
REMARK  status: ('A' for Active; 'I' for Inactive)
REMARK    1  A    between atoms: C_1  and  C_2
REMARK    2  A    between atoms: C_2  and  C_3
REMARK    3  A    between atoms: C_2  and  N_4
REMARK    4  A    between atoms: N_4  and  C_5
REMARK    5  A    between atoms: N_4  and  C_6
REMARK    6  A    between atoms: C_6  and  C_7
REMARK    7  A    between atoms: C_7  and  N_8
REMARK    8  A    between atoms: N_8  and  S_9
REMARK    9  A    between atoms: S_9  and  C_12
REMARK   10  A    between atoms: C_16  and  N_19
REMARK                            x       y       z     vdW  Elec       q    Type
REMARK                         _______ _______ _______ _____ _____    ______ ____
ROOT
ATOM      1  S   UNL     1      -4.048  -4.825   0.747  0.00  0.00    +0.060 S 
ATOM      2  O   UNL     1      -3.783  -6.221   0.785  0.00  0.00    -0.153 OA
ATOM      3  O   UNL     1      -4.349  -4.074   1.915  0.00  0.00    -0.153 OA
ENDROOT
BRANCH   1   4
ATOM      4  C   UNL     1      -5.400  -4.599  -0.360  0.00  0.00    +0.122 A 
ATOM      5  C   UNL     1      -6.488  -3.838   0.025  0.00  0.00    +0.049 A 
ATOM      6  C   UNL     1      -7.552  -3.658  -0.842  0.00  0.00    +0.045 A 
ATOM      7  C   UNL     1      -7.529  -4.239  -2.096  0.00  0.00    +0.044 A 
ATOM      8  C   UNL     1      -6.438  -5.004  -2.486  0.00  0.00    +0.042 A 
ATOM      9  C   UNL     1      -5.369  -5.178  -1.615  0.00  0.00    +0.065 A 
ATOM     10 BR   UNL     1      -3.876  -6.212  -2.143  0.00  0.00    -0.046 Br
ATOM     11 CL   UNL     1      -8.916  -2.702  -0.353  0.00  0.00    -0.083 Cl
BRANCH   8  12
ATOM     12  N   UNL     1      -6.412  -5.592  -3.753  0.00  0.00    -0.357 N 
ATOM     13  H   UNL     1      -7.157  -5.467  -4.361  0.00  0.00    +0.142 HD
ATOM     14  H   UNL     1      -5.649  -6.126  -4.024  0.00  0.00    +0.142 HD
ENDBRANCH   8  12
ENDBRANCH   1   4
BRANCH   1  15
ATOM     15  N   UNL     1      -2.723  -4.112   0.054  0.00  0.00    -0.192 NA
ATOM     16  H   UNL     1      -1.963  -4.653  -0.209  0.00  0.00    +0.148 HD
BRANCH  15  17
ATOM     17  C   UNL     1      -2.700  -2.663  -0.161  0.00  0.00    +0.087 C 
BRANCH  17  18
ATOM     18  C   UNL     1      -1.265  -2.211  -0.439  0.00  0.00    -0.062 C 
BRANCH  18  19
ATOM     19  N   UNL     1      -1.242  -0.758  -0.655  0.00  0.00    +0.380 N 
ATOM     20  C   UNL     1      -1.995  -0.432  -1.873  0.00  0.00    -0.096 C 
ATOM     21  H   UNL     1      -1.663  -0.294   0.136  0.00  0.00    -0.082 HD
BRANCH  19  23
ATOM     22  C   UNL     1       0.172   1.206  -1.027  0.00  0.00    -0.014 C 
ATOM     23  C   UNL     1       0.148  -0.307  -0.803  0.00  0.00    -0.075 C 
ATOM     24  C   UNL     1       0.933  -0.647   0.466  0.00  0.00    -0.014 C 
ENDBRANCH  19  23
ENDBRANCH  18  19
ENDBRANCH  17  18
ENDBRANCH  15  17
ENDBRANCH   1  15
TORSDOF 7
