REMARK  Name = ZINC20689968
REMARK  7 active torsions:
REMARK  status: ('A' for Active; 'I' for Inactive)
REMARK    1  A    between atoms: C_1  and  O_2
REMARK    2  A    between atoms: O_2  and  C_3
REMARK    3  A    between atoms: C_6  and  C_10
REMARK    4  A    between atoms: C_8  and  O_9
REMARK    5  A    between atoms: C_21  and  S_26
REMARK    6  A    between atoms: S_26  and  N_29
REMARK    7  A    between atoms: N_29  and  C_30
REMARK                            x       y       z     vdW  Elec       q    Type
REMARK                         _______ _______ _______ _____ _____    ______ ____
ROOT
ATOM      1  C   UNL     1      -3.768  -5.381   2.536  0.00  0.00    +0.105 C 
ATOM      2  C   UNL     1      -2.341  -5.704   2.132  0.00  0.00    +0.029 C 
ATOM      3  C   UNL     1      -1.885  -7.163   2.274  0.00  0.00    +0.033 C 
ATOM      4  C   UNL     1      -0.386  -6.994   2.529  0.00  0.00    -0.030 C 
ATOM      5  C   UNL     1      -0.149  -5.805   3.070  0.00  0.00    -0.023 C 
ATOM      6  C   UNL     1      -1.444  -5.100   3.254  0.00  0.00    +0.049 C 
ATOM      7  C   UNL     1      -1.549  -3.627   3.174  0.00  0.00    -0.018 A 
ATOM      8  C   UNL     1      -0.491  -2.793   3.462  0.00  0.00    +0.034 A 
ATOM      9  C   UNL     1      -0.645  -1.420   3.389  0.00  0.00    +0.106 A 
ATOM     10  C   UNL     1      -1.868  -0.880   3.035  0.00  0.00    +0.030 A 
ATOM     11  C   UNL     1      -2.931  -1.707   2.739  0.00  0.00    +0.025 A 
ATOM     12  C   UNL     1      -2.785  -3.087   2.800  0.00  0.00    +0.031 A 
ATOM     13  N   UNL     1      -3.874  -3.906   2.476  0.00  0.00    -0.336 N 
ATOM     14  H   UNL     1      -4.821  -3.435   2.173  0.00  0.00    +0.147 HD
ENDROOT
BRANCH   1  18
ATOM     15  C   UNL     1      -4.522  -6.750   6.517  0.00  0.00    +0.161 A 
ATOM     16  C   UNL     1      -4.060  -5.462   6.300  0.00  0.00    +0.050 A 
ATOM     17  C   UNL     1      -3.817  -5.022   5.012  0.00  0.00    +0.009 A 
ATOM     18  C   UNL     1      -4.034  -5.865   3.938  0.00  0.00    -0.023 A 
ATOM     19  C   UNL     1      -4.500  -7.150   4.147  0.00  0.00    +0.054 A 
ATOM     20  C   UNL     1      -4.740  -7.599   5.436  0.00  0.00    +0.159 A 
BRANCH  15  22
ATOM     21  C   UNL     1      -4.514  -6.260   8.844  0.00  0.00    +0.277 C 
ATOM     22  O   UNL     1      -4.761  -7.185   7.783  0.00  0.00    -0.491 OA
ENDBRANCH  15  22
BRANCH  20  23
ATOM     23  O   UNL     1      -5.194  -8.864   5.643  0.00  0.00    -0.503 OA
ATOM     24  H   UNL     1      -5.366  -9.534   4.788  0.00  0.00    +0.292 HD
ENDBRANCH  20  23
ENDBRANCH   1  18
BRANCH   9  25
ATOM     25  S   UNL     1       0.715  -0.361   3.755  0.00  0.00    +0.059 S 
ATOM     26  O   UNL     1       1.592  -1.100   4.593  0.00  0.00    -0.153 OA
ATOM     27  O   UNL     1       0.162   0.889   4.144  0.00  0.00    -0.153 OA
BRANCH  25  28
ATOM     28  N   UNL     1       1.526  -0.098   2.335  0.00  0.00    -0.187 NA
ATOM     29  H   UNL     1       2.485  -0.608   2.162  0.00  0.00    +0.148 HD
BRANCH  28  30
ATOM     30  C   UNL     1       0.874   0.625   1.241  0.00  0.00    +0.077 C 
ATOM     31  C   UNL     1       1.328   0.042  -0.098  0.00  0.00    +0.020 C 
ATOM     32  C   UNL     1       0.646   0.797  -1.241  0.00  0.00    +0.002 C 
ATOM     33  C   UNL     1       1.028   2.277  -1.173  0.00  0.00    +0.000 C 
ATOM     34  C   UNL     1       0.574   2.861   0.166  0.00  0.00    +0.002 C 
ATOM     35  C   UNL     1       1.256   2.105   1.309  0.00  0.00    +0.020 C 
ENDBRANCH  28  30
ENDBRANCH  25  28
ENDBRANCH   9  25
TORSDOF 6
