REMARK  Name = ZINC22936535
REMARK  11 active torsions:
REMARK  status: ('A' for Active; 'I' for Inactive)
REMARK    1  A    between atoms: C_1  and  C_2
REMARK    2  A    between atoms: C_2  and  N_3
REMARK    3  A    between atoms: N_6  and  C_9
REMARK    4  A    between atoms: C_9  and  C_10
REMARK    5  A    between atoms: C_10  and  C_11
REMARK    6  A    between atoms: C_11  and  N_12
REMARK    7  A    between atoms: C_13  and  C_15
REMARK    8  A    between atoms: C_16  and  C_32
REMARK    9  A    between atoms: N_18  and  C_25
REMARK   10  A    between atoms: C_19  and  N_20
REMARK   11  A    between atoms: C_28  and  C_31
REMARK                            x       y       z     vdW  Elec       q    Type
REMARK                         _______ _______ _______ _____ _____    ______ ____
ROOT
ATOM      1  C   UNL     1       5.061  -8.173  -5.702  0.00  0.00    +0.102 A 
ATOM      2  C   UNL     1       4.130  -9.093  -6.237  0.00  0.00    +0.075 A 
ATOM      3  N   UNL     1       4.552 -10.299  -5.976  0.00  0.00    -0.169 NA
ATOM      4  N   UNL     1       5.758 -10.221  -5.271  0.00  0.00    -0.215 N 
ATOM      5  C   UNL     1       6.073  -8.918  -5.107  0.00  0.00    +0.154 A 
ATOM      6  C   UNL     1       2.867  -8.741  -6.980  0.00  0.00    +0.068 C 
ENDROOT
BRANCH   4   7
ATOM      7  C   UNL     1       6.513 -11.310  -4.816  0.00  0.00    +0.068 A 
ATOM      8  C   UNL     1       7.899 -11.236  -4.797  0.00  0.00    +0.028 A 
ATOM      9  C   UNL     1       8.641 -12.311  -4.347  0.00  0.00    +0.005 A 
ATOM     10  C   UNL     1       8.004 -13.460  -3.916  0.00  0.00    -0.050 A 
ATOM     11  C   UNL     1       6.623 -13.537  -3.934  0.00  0.00    +0.005 A 
ATOM     12  C   UNL     1       5.876 -12.463  -4.377  0.00  0.00    +0.028 A 
ATOM     13  C   UNL     1       8.816 -14.631  -3.427  0.00  0.00    +0.044 C 
ENDBRANCH   4   7
BRANCH   5  14
ATOM     14  N   UNL     1       7.197  -8.415  -4.462  0.00  0.00    -0.307 N 
ATOM     15  C   UNL     1       7.990  -7.399  -4.917  0.00  0.00    +0.092 A 
ATOM     16  C   UNL     1       8.975  -7.200  -4.019  0.00  0.00    +0.019 A 
ATOM     17  C   UNL     1       8.787  -8.125  -2.971  0.00  0.00    +0.019 A 
ATOM     18  C   UNL     1       7.690  -8.851  -3.264  0.00  0.00    +0.092 A 
ENDBRANCH   5  14
BRANCH   1  20
ATOM     19  N   UNL     1       4.354  -6.023  -4.788  0.00  0.00    -0.311 N 
ATOM     20  C   UNL     1       4.977  -6.707  -5.768  0.00  0.00    +0.249 C 
ATOM     21  O   UNL     1       5.471  -6.112  -6.707  0.00  0.00    -0.270 OA
ATOM     22  H   UNL     1       3.961  -6.498  -4.040  0.00  0.00    +0.149 HD
BRANCH  19  23
ATOM     23  C   UNL     1       4.271  -4.562  -4.854  0.00  0.00    +0.106 C 
BRANCH  23  24
ATOM     24  C   UNL     1       3.520  -4.038  -3.629  0.00  0.00    +0.034 C 
BRANCH  24  25
ATOM     25  C   UNL     1       3.433  -2.512  -3.697  0.00  0.00    +0.086 C 
BRANCH  25  29
ATOM     26  N   UNL     1       0.690  -0.478  -1.207  0.00  0.00    +0.381 N 
ATOM     27  C   UNL     1       2.100  -0.069  -1.160  0.00  0.00    -0.063 C 
ATOM     28  C   UNL     1       2.812  -0.546  -2.427  0.00  0.00    +0.066 C 
ATOM     29  N   UNL     1       2.711  -2.009  -2.521  0.00  0.00    -0.306 NA
ATOM     30  C   UNL     1       1.305  -2.435  -2.544  0.00  0.00    +0.066 C 
ATOM     31  C   UNL     1       0.605  -1.943  -1.275  0.00  0.00    -0.063 C 
ATOM     32  H   UNL     1       0.251  -0.077  -2.022  0.00  0.00    -0.082 HD
BRANCH  26  34
ATOM     33  C   UNL     1      -0.019   1.526   0.010  0.00  0.00    -0.017 C 
ATOM     34  C   UNL     1       0.002  -0.004   0.002  0.00  0.00    -0.082 C 
ENDBRANCH  26  34
ENDBRANCH  25  29
ENDBRANCH  24  25
ENDBRANCH  23  24
ENDBRANCH  19  23
ENDBRANCH   1  20
TORSDOF 8
