REMARK  Name = ZINC63818107
REMARK  11 active torsions:
REMARK  status: ('A' for Active; 'I' for Inactive)
REMARK    1  A    between atoms: CD1_1  and  CG1_2
REMARK    2  A    between atoms: CG1_2  and  CB_3
REMARK    3  A    between atoms: CB_3  and  CG2_5
REMARK    4  A    between atoms: CB_3  and  CA_6
REMARK    5  A    between atoms: CA_6  and  C_8
REMARK    6  A    between atoms: CA_6  and  N_10
REMARK    7  A    between atoms: C_8  and  O_9
REMARK    8  A    between atoms: C_11  and  C_13
REMARK    9  A    between atoms: N_21  and  C_24
REMARK   10  A    between atoms: C_24  and  C_25
REMARK   11  A    between atoms: C_25  and  C_26
REMARK                            x       y       z     vdW  Elec       q    Type
REMARK                         _______ _______ _______ _____ _____    ______ ____
ROOT
ATOM      1  C   UNK A   0       0.915  -4.481   4.109  0.00  0.00    +0.037 A 
ATOM      2  C   UNK A   0       1.838  -3.845   4.939  0.00  0.00    +0.014 A 
ATOM      3  C   UNK A   0       2.225  -4.431   6.132  0.00  0.00    +0.014 A 
ATOM      4  C   UNK A   0       1.694  -5.656   6.505  0.00  0.00    +0.049 A 
ATOM      5  C   UNK A   0       0.760  -6.304   5.670  0.00  0.00    +0.050 A 
ATOM      6  C   UNK A   0       0.370  -5.713   4.480  0.00  0.00    +0.027 A 
ATOM      7  C   UNK A   0       0.407  -7.563   6.359  0.00  0.00    +0.254 C 
ATOM      8  O   UNK A   0      -0.373  -8.399   5.950  0.00  0.00    -0.270 OA
ATOM      9  N   UNK A   0       1.095  -7.629   7.513  0.00  0.00    -0.234 N 
ATOM     10  C   UNK A   0       1.875  -6.545   7.674  0.00  0.00    +0.254 C 
ATOM     11  O   UNK A   0       2.606  -6.333   8.620  0.00  0.00    -0.270 OA
ENDROOT
BRANCH   1  13
ATOM     12  N   ILE A   1       1.032  -2.658   2.477  0.00  0.00    -0.306 N 
ATOM     13  C   UNK A   0       0.508  -3.846   2.836  0.00  0.00    +0.244 C 
ATOM     14  O   UNK A   0      -0.300  -4.397   2.114  0.00  0.00    -0.270 OA
ATOM     15  H   ILE A   1       1.677  -2.218   3.053  0.00  0.00    +0.149 HD
BRANCH  12  16
ATOM     16  CA  ILE A   1       0.629  -2.030   1.216  0.00  0.00    +0.101 C 
BRANCH  16  17
ATOM     17  CB  ILE A   1       0.830  -0.516   1.313  0.00  0.00    +0.008 C 
ATOM     18  CG2 ILE A   1       0.335   0.147   0.027  0.00  0.00    +0.009 C 
BRANCH  17  20
ATOM     19  CD1 ILE A   1       0.339   1.518   2.677  0.00  0.00    +0.004 C 
ATOM     20  CG1 ILE A   1       0.040   0.028   2.505  0.00  0.00    +0.002 C 
ENDBRANCH  17  20
ENDBRANCH  16  17
BRANCH  16  21
ATOM     21  C   ILE A   1       1.482  -2.586   0.074  0.00  0.00    +0.178 C 
BRANCH  21  22
ATOM     22  O   ILE A   1       2.847  -2.213   0.273  0.00  0.00    -0.393 OA
ATOM     23  H   ILE A   1       3.446  -2.532  -0.415  0.00  0.00    +0.209 HD
ENDBRANCH  21  22
ENDBRANCH  16  21
ENDBRANCH  12  16
ENDBRANCH   1  13
BRANCH   9  24
ATOM     24  C   UNK A   0       1.006  -8.736   8.468  0.00  0.00    +0.121 C 
BRANCH  24  25
ATOM     25  C   UNK A   0       2.054  -9.796   8.120  0.00  0.00    +0.052 C 
BRANCH  25  26
ATOM     26  C   UNK A   0       1.963 -10.934   9.102  0.00  0.00    -0.040 C 
ATOM     27  C   UNK A   0       1.276 -12.089   8.947  0.00  0.00    -0.001 A 
ATOM     28  C   UNK A   0       0.439 -12.611   7.860  0.00  0.00    +0.010 A 
ATOM     29  C   UNK A   0      -0.131 -13.829   7.997  0.00  0.00    +0.001 A 
ATOM     30  C   UNK A   0       0.056 -14.605   9.150  0.00  0.00    +0.002 A 
ATOM     31  C   UNK A   0       0.811 -14.194  10.191  0.00  0.00    +0.026 A 
ATOM     32  C   UNK A   0       1.458 -12.928  10.154  0.00  0.00    +0.043 A 
ATOM     33  N   UNK A   0       2.228 -12.316  11.020  0.00  0.00    -0.380 N 
ATOM     34  C   UNK A   0       2.626 -11.020  10.459  0.00  0.00    +0.144 C 
ATOM     35  H   UNK A   0       2.493 -12.663  11.887  0.00  0.00    +0.160 HD
ENDBRANCH  25  26
ENDBRANCH  24  25
ENDBRANCH   9  24
TORSDOF 9
