REMARK  Name = ZINC00206900
REMARK  9 active torsions:
REMARK  status: ('A' for Active; 'I' for Inactive)
REMARK    1  A    between atoms: C_1  and  C_2
REMARK    2  A    between atoms: C_2  and  C_3
REMARK    3  A    between atoms: C_2  and  N_4
REMARK    4  A    between atoms: N_7  and  C_19
REMARK    5  A    between atoms: C_8  and  N_13
REMARK    6  A    between atoms: C_10  and  C_11
REMARK    7  A    between atoms: C_10  and  C_12
REMARK    8  A    between atoms: N_13  and  O_18
REMARK    9  A    between atoms: N_16  and  C_17
REMARK                            x       y       z     vdW  Elec       q    Type
REMARK                         _______ _______ _______ _____ _____    ______ ____
ROOT
ATOM      1  N   UNL     1       1.732   1.395   0.129  0.00  0.00    -0.274 N 
ATOM      2  C   UNL     1       2.164   2.660   0.220  0.00  0.00    +0.307 C 
ATOM      3  O   UNL     1       1.440   3.588   0.524  0.00  0.00    -0.252 OA
ATOM      4  N   UNL     1       3.467   2.809  -0.051  0.00  0.00    -0.266 N 
ATOM      5  C   UNL     1       4.044   1.498  -0.387  0.00  0.00    +0.219 C 
ATOM      6  C   UNL     1       2.853   0.528  -0.263  0.00  0.00    +0.071 C 
ATOM      7  C   UNL     1       3.124  -0.520   0.818  0.00  0.00    +0.035 C 
ATOM      8  C   UNL     1       2.565  -0.147  -1.605  0.00  0.00    +0.035 C 
ATOM      9  C   UNL     1       4.201   4.077  -0.024  0.00  0.00    +0.135 C 
ENDROOT
BRANCH   5  10
ATOM     10  N   UNL     1       5.099   1.141   0.565  0.00  0.00    -0.144 N 
ATOM     11  C   UNL     1       6.382   1.081   0.157  0.00  0.00    +0.327 C 
ATOM     12  O   UNL     1       6.654   1.232  -1.018  0.00  0.00    -0.250 OA
ATOM     13  N   UNL     1       7.363   0.853   1.052  0.00  0.00    -0.301 N 
ATOM     14  C   UNL     1       8.765   0.895   0.629  0.00  0.00    +0.130 C 
ATOM     15  H   UNL     1       7.142   0.660   1.976  0.00  0.00    +0.150 HD
BRANCH  10  16
ATOM     16  O   UNL     1       4.770   0.861   1.913  0.00  0.00    -0.289 OA
ATOM     17  H   UNL     1       5.538   0.712   2.482  0.00  0.00    +0.242 HD
ENDBRANCH  10  16
ENDBRANCH   5  10
BRANCH   1  19
ATOM     18  C   UNL     1      -0.591   1.657  -0.592  0.00  0.00    +0.028 C 
ATOM     19  C   UNL     1       0.359   0.948   0.376  0.00  0.00    +0.072 C 
ATOM     20  C   UNL     1      -0.036   1.284   1.816  0.00  0.00    +0.028 C 
ENDBRANCH   1  19
TORSDOF 3
