REMARK  Name = ZINC17306116
REMARK  17 active torsions:
REMARK  status: ('A' for Active; 'I' for Inactive)
REMARK    1  A    between atoms: C_1  and  C_2
REMARK    2  A    between atoms: C_2  and  C_4
REMARK    3  A    between atoms: C_2  and  N_15
REMARK    4  A    between atoms: C_7  and  N_10
REMARK    5  A    between atoms: N_15  and  C_16
REMARK    6  A    between atoms: N_15  and  C_17
REMARK    7  A    between atoms: C_17  and  C_18
REMARK    8  A    between atoms: N_20  and  C_21
REMARK    9  A    between atoms: N_20  and  C_25
REMARK   10  A    between atoms: C_21  and  C_22
REMARK   11  A    between atoms: C_22  and  C_23
REMARK   12  A    between atoms: C_22  and  C_24
REMARK   13  A    between atoms: C_26  and  N_38
REMARK   14  A    between atoms: N_27  and  C_34
REMARK   15  A    between atoms: C_34  and  C_35
REMARK   16  A    between atoms: C_35  and  C_36
REMARK   17  A    between atoms: C_35  and  C_37
REMARK                            x       y       z     vdW  Elec       q    Type
REMARK                         _______ _______ _______ _____ _____    ______ ____
ROOT
ATOM      1  C   UNL     1       0.541  -0.440   3.574  0.00  0.00    +0.203 C 
ATOM      2  O   UNL     1       1.296  -1.362   3.345  0.00  0.00    -0.277 OA
ATOM      3  N   UNL     1       0.356  -0.019   4.843  0.00  0.00    -0.266 N 
ENDROOT
BRANCH   3   4
ATOM      4  C   UNL     1       1.115  -0.582   5.891  0.00  0.00    +0.140 A 
ATOM      5  C   UNL     1       0.497  -1.278   6.910  0.00  0.00    +0.127 A 
ATOM      6  N   UNL     1       1.264  -1.816   7.917  0.00  0.00    -0.280 N 
ATOM      7  C   UNL     1       2.601  -1.665   7.909  0.00  0.00    +0.331 A 
ATOM      8  O   UNL     1       3.262  -2.148   8.809  0.00  0.00    -0.246 OA
ATOM      9  N   UNL     1       3.221  -0.990   6.924  0.00  0.00    -0.273 N 
ATOM     10  H   UNL     1       4.186  -0.896   6.941  0.00  0.00    +0.173 HD
ATOM     11  C   UNL     1       2.516  -0.448   5.912  0.00  0.00    +0.277 A 
ATOM     12  O   UNL     1       3.088   0.158   5.021  0.00  0.00    -0.266 OA
BRANCH   5  13
ATOM     13  N   UNL     1      -0.868  -1.432   6.918  0.00  0.00    -0.343 N 
ATOM     14  H   UNL     1      -1.394  -1.140   6.157  0.00  0.00    +0.144 HD
ATOM     15  H   UNL     1      -1.306  -1.833   7.685  0.00  0.00    +0.144 HD
ENDBRANCH   5  13
BRANCH   6  16
ATOM     16  C   UNL     1       0.622  -2.557   9.005  0.00  0.00    +0.131 C 
BRANCH  16  17
ATOM     17  C   UNL     1       0.531  -4.037   8.630  0.00  0.00    +0.003 C 
ATOM     18  C   UNL     1      -0.025  -4.830   9.814  0.00  0.00    +0.009 C 
ATOM     19  C   UNL     1      -0.397  -4.202   7.425  0.00  0.00    +0.009 C 
ENDBRANCH  16  17
ENDBRANCH   6  16
ENDBRANCH   3   4
BRANCH   1  20
ATOM     20  C   UNL     1      -0.190   0.235   2.443  0.00  0.00    +0.020 C 
BRANCH  20  21
ATOM     21  N   UNL     1       0.172  -0.408   1.173  0.00  0.00    +0.388 N 
ATOM     22  C   UNL     1      -0.308  -1.796   1.172  0.00  0.00    -0.095 C 
ATOM     23  H   UNL     1       1.176  -0.400   1.066  0.00  0.00    -0.081 HD
BRANCH  21  25
ATOM     24  C   UNL     1       0.055   1.770   0.059  0.00  0.00    -0.008 C 
ATOM     25  C   UNL     1      -0.445   0.324   0.059  0.00  0.00    -0.041 C 
BRANCH  25  26
ATOM     26  C   UNL     1      -0.073  -0.336  -1.244  0.00  0.00    -0.061 A 
ATOM     27  C   UNL     1       1.208  -0.821  -1.430  0.00  0.00    +0.004 A 
ATOM     28  C   UNL     1       1.552  -1.427  -2.623  0.00  0.00    +0.028 A 
ATOM     29  C   UNL     1       0.610  -1.548  -3.635  0.00  0.00    +0.067 A 
ATOM     30  C   UNL     1      -0.676  -1.061  -3.445  0.00  0.00    +0.028 A 
ATOM     31  C   UNL     1      -1.016  -0.461  -2.248  0.00  0.00    +0.004 A 
BRANCH  29  32
ATOM     32  N   UNL     1       0.956  -2.163  -4.847  0.00  0.00    -0.220 N 
ATOM     33  C   UNL     1       0.157  -2.348  -5.916  0.00  0.00    +0.225 A 
ATOM     34  N   UNL     1       0.853  -2.956  -6.842  0.00  0.00    -0.222 NA
ATOM     35  C   UNL     1       2.093  -3.175  -6.404  0.00  0.00    +0.245 A 
ATOM     36  N   UNL     1       2.206  -2.702  -5.191  0.00  0.00    -0.154 NA
ENDBRANCH  29  32
ENDBRANCH  25  26
ENDBRANCH  21  25
ENDBRANCH  20  21
ENDBRANCH   1  20
BRANCH   3  37
ATOM     37  C   UNL     1      -0.633   1.022   5.133  0.00  0.00    +0.117 C 
BRANCH  37  38
ATOM     38  C   UNL     1      -0.004   2.399   4.911  0.00  0.00    +0.001 C 
ATOM     39  C   UNL     1      -1.078   3.479   5.048  0.00  0.00    +0.009 C 
ATOM     40  C   UNL     1       1.091   2.633   5.954  0.00  0.00    +0.009 C 
ENDBRANCH  37  38
ENDBRANCH   3  37
TORSDOF 11
