REMARK  Name = ZINC10341971
REMARK  6 active torsions:
REMARK  status: ('A' for Active; 'I' for Inactive)
REMARK    1  A    between atoms: C_1  and  C_2
REMARK    2  A    between atoms: C_2  and  C_4
REMARK    3  A    between atoms: C_2  and  N_43
REMARK    4  A    between atoms: N_6  and  C_7
REMARK    5  A    between atoms: C_11  and  S_13
REMARK    6  A    between atoms: S_13  and  N_16
REMARK                            x       y       z     vdW  Elec       q    Type
REMARK                         _______ _______ _______ _____ _____    ______ ____
ROOT
ATOM      1  C   UNL     1       1.175  -0.657  -0.279  0.00  0.00    +0.203 C 
ATOM      2  O   UNL     1       2.132  -0.033   0.128  0.00  0.00    -0.277 OA
ATOM      3  N   UNL     1       0.103  -0.004  -0.770  0.00  0.00    -0.287 N 
ATOM      4  H   UNL     1      -0.690  -0.499  -1.029  0.00  0.00    +0.155 HD
ENDROOT
BRANCH   3   5
ATOM      5  C   UNL     1       0.135   1.388  -0.907  0.00  0.00    +0.035 A 
ATOM      6  C   UNL     1      -0.507   1.997  -1.978  0.00  0.00    +0.023 A 
ATOM      7  C   UNL     1      -0.475   3.371  -2.110  0.00  0.00    +0.004 A 
ATOM      8  C   UNL     1       0.196   4.141  -1.177  0.00  0.00    +0.028 A 
ATOM      9  C   UNL     1       0.837   3.538  -0.111  0.00  0.00    +0.107 A 
ATOM     10  C   UNL     1       0.804   2.165   0.030  0.00  0.00    +0.051 A 
BRANCH   9  11
ATOM     11  S   UNL     1       1.691   4.524   1.074  0.00  0.00    +0.056 S 
ATOM     12  O   UNL     1       2.667   3.683   1.674  0.00  0.00    -0.153 OA
ATOM     13  O   UNL     1       2.030   5.740   0.422  0.00  0.00    -0.153 OA
BRANCH  11  14
ATOM     14  N   UNL     1       0.605   4.911   2.263  0.00  0.00    -0.204 NA
ATOM     15  H   UNL     1      -0.310   4.594   2.206  0.00  0.00    +0.144 HD
ATOM     16  H   UNL     1       0.883   5.456   3.016  0.00  0.00    +0.144 HD
ENDBRANCH  11  14
ENDBRANCH   9  11
ENDBRANCH   3   5
BRANCH   1  18
ATOM     17  C   UNL     1       0.473  -2.642   1.031  0.00  0.00    -0.004 C 
ATOM     18  C   UNL     1       1.185  -2.163  -0.236  0.00  0.00    +0.017 C 
BRANCH  18  27
ATOM     19  C   UNL     1       3.266  -2.271  -1.470  0.00  0.00    -0.072 C 
ATOM     20  C   UNL     1       4.782  -2.418  -1.254  0.00  0.00    +0.024 C 
ATOM     21  C   UNL     1       5.022  -3.738  -0.596  0.00  0.00    -0.011 A 
ATOM     22  C   UNL     1       4.087  -4.535  -0.008  0.00  0.00    -0.054 A 
ATOM     23  C   UNL     1       4.545  -5.730   0.541  0.00  0.00    +0.009 A 
ATOM     24  C   UNL     1       5.860  -6.045   0.476  0.00  0.00    +0.045 A 
ATOM     25  S   UNL     1       6.534  -4.634  -0.389  0.00  0.00    -0.101 S 
ATOM     26  C   UNL     1       2.627  -4.091   0.020  0.00  0.00    -0.041 C 
ATOM     27  N   UNL     1       2.586  -2.626  -0.201  0.00  0.00    +0.390 N 
ATOM     28  H   UNL     1       3.071  -2.161   0.576  0.00  0.00    -0.080 HD
ENDBRANCH  18  27
ENDBRANCH   1  18
TORSDOF 5
