REMARK  Name = ZINC36826673
REMARK  8 active torsions:
REMARK  status: ('A' for Active; 'I' for Inactive)
REMARK    1  A    between atoms: C_1  and  C_2
REMARK    2  A    between atoms: C_2  and  C_3
REMARK    3  A    between atoms: C_3  and  C_4
REMARK    4  A    between atoms: C_4  and  C_5
REMARK    5  A    between atoms: C_5  and  C_6
REMARK    6  A    between atoms: C_6  and  C_8
REMARK    7  A    between atoms: C_6  and  N_10
REMARK    8  A    between atoms: C_8  and  N_9
REMARK                            x       y       z     vdW  Elec       q    Type
REMARK                         _______ _______ _______ _____ _____    ______ ____
ROOT
ATOM      1  C   UNL     1       1.429  -4.077   2.427  0.00  0.00    -0.086 C 
ENDROOT
BRANCH   1   2
ATOM      2  N   UNL     1       0.138  -4.751   2.619  0.00  0.00    +0.382 N 
ATOM      3  C   UNL     1      -0.797  -4.320   1.573  0.00  0.00    -0.078 C 
ATOM      4  C   UNL     1      -2.168  -4.956   1.814  0.00  0.00    -0.018 C 
ATOM      5  C   UNL     1      -2.030  -6.481   1.780  0.00  0.00    +0.000 C 
ATOM      6  C   UNL     1      -0.997  -6.913   2.825  0.00  0.00    -0.025 C 
ATOM      7  C   UNL     1       0.331  -6.205   2.546  0.00  0.00    -0.065 C 
ATOM      8  C   UNL     1       1.367  -6.636   3.586  0.00  0.00    -0.015 C 
ATOM      9  C   UNL     1       1.570  -8.150   3.506  0.00  0.00    -0.002 C 
ATOM     10  C   UNL     1       0.242  -8.859   3.784  0.00  0.00    +0.000 C 
ATOM     11  C   UNL     1      -0.797  -8.428   2.747  0.00  0.00    +0.002 C 
ATOM     12  H   UNL     1      -0.236  -4.507   3.523  0.00  0.00    -0.081 HD
ENDBRANCH   1   2
BRANCH   1  13
ATOM     13  C   UNL     1       1.981  -4.418   1.041  0.00  0.00    -0.017 C 
BRANCH  13  14
ATOM     14  C   UNL     1       2.827  -5.690   1.127  0.00  0.00    -0.002 C 
BRANCH  14  15
ATOM     15  C   UNL     1       3.490  -5.954  -0.226  0.00  0.00    -0.000 C 
BRANCH  15  17
ATOM     16  C   UNL     1       4.999  -7.490  -1.493  0.00  0.00    +0.004 C 
ATOM     17  C   UNL     1       4.336  -7.226  -0.140  0.00  0.00    -0.003 C 
ENDBRANCH  15  17
ENDBRANCH  14  15
ENDBRANCH  13  14
ENDBRANCH   1  13
BRANCH   1  18
ATOM     18  C   UNL     1       1.237  -2.564   2.542  0.00  0.00    -0.102 C 
BRANCH  18  19
ATOM     19  N   UNL     1       0.601  -2.248   3.828  0.00  0.00    +0.377 N 
ATOM     20  H   UNL     1       0.415  -1.257   3.877  0.00  0.00    -0.090 HD
ATOM     21  H   UNL     1      -0.266  -2.757   3.909  0.00  0.00    -0.090 HD
ATOM     22  H   UNL     1       1.218  -2.511   4.582  0.00  0.00    -0.090 HD
ENDBRANCH  18  19
ENDBRANCH   1  18
TORSDOF 7
