REMARK  Name = ZINC39696546
REMARK  10 active torsions:
REMARK  status: ('A' for Active; 'I' for Inactive)
REMARK    1  A    between atoms: C_1  and  C_2
REMARK    2  A    between atoms: C_2  and  C_3
REMARK    3  A    between atoms: C_2  and  C_4
REMARK    4  A    between atoms: C_2  and  S_5
REMARK    5  A    between atoms: S_5  and  C_6
REMARK    6  A    between atoms: C_6  and  C_7
REMARK    7  A    between atoms: C_7  and  N_8
REMARK    8  A    between atoms: C_9  and  C_11
REMARK    9  A    between atoms: C_22  and  C_24
REMARK   10  A    between atoms: C_27  and  C_29
REMARK                            x       y       z     vdW  Elec       q    Type
REMARK                         _______ _______ _______ _____ _____    ______ ____
ROOT
ATOM      1  C   UNL     1       6.994   0.612  -3.300  0.00  0.00    +0.100 C 
ATOM      2  C   UNL     1       6.941   2.149  -3.449  0.00  0.00    +0.121 C 
ATOM      3  N   UNL     1       8.164   2.493  -4.213  0.00  0.00    -0.294 N 
ATOM      4  C   UNL     1       8.286   1.411  -5.220  0.00  0.00    +0.115 C 
ATOM      5  C   UNL     1       7.877   0.132  -4.464  0.00  0.00    -0.004 C 
ATOM      6  C   UNL     1       7.083  -0.792  -5.383  0.00  0.00    -0.010 C 
ATOM      7  C   UNL     1       7.998  -1.303  -6.500  0.00  0.00    -0.082 C 
ATOM      8  N   UNL     1       9.135  -2.022  -5.913  0.00  0.00    +0.379 N 
ATOM      9  C   UNL     1       9.946  -1.103  -5.105  0.00  0.00    -0.082 C 
ATOM     10  C   UNL     1       9.113  -0.584  -3.929  0.00  0.00    -0.010 C 
ATOM     11  C   UNL     1       8.981   3.550  -4.032  0.00  0.00    +0.282 C 
ATOM     12  O   UNL     1       9.954   3.695  -4.748  0.00  0.00    -0.267 OA
ATOM     13  H   UNL     1       8.792  -2.770  -5.328  0.00  0.00    -0.086 HD
ATOM     14  H   UNL     1       9.703  -2.410  -6.651  0.00  0.00    -0.086 HD
ENDROOT
BRANCH  11  15
ATOM     15  C   UNL     1       8.697   4.523  -2.974  0.00  0.00    +0.190 A 
ATOM     16  C   UNL     1       9.442   5.645  -2.686  0.00  0.00    +0.055 A 
ATOM     17  C   UNL     1       8.813   6.282  -1.611  0.00  0.00    +0.050 A 
ATOM     18  C   UNL     1       7.719   5.533  -1.285  0.00  0.00    +0.136 A 
ATOM     19  O   UNL     1       7.656   4.479  -2.116  0.00  0.00    -0.450 OA
BRANCH  18  20
ATOM     20  C   UNL     1       6.761   5.834  -0.202  0.00  0.00    +0.017 A 
ATOM     21  C   UNL     1       6.933   6.972   0.590  0.00  0.00    +0.011 A 
ATOM     22  C   UNL     1       6.034   7.247   1.599  0.00  0.00    +0.001 A 
ATOM     23  C   UNL     1       4.965   6.399   1.829  0.00  0.00    +0.000 A 
ATOM     24  C   UNL     1       4.790   5.270   1.049  0.00  0.00    +0.001 A 
ATOM     25  C   UNL     1       5.678   4.985   0.032  0.00  0.00    +0.011 A 
ENDBRANCH  18  20
ENDBRANCH  11  15
BRANCH   1  27
ATOM     26  N   UNL     1       5.311  -1.125  -2.780  0.00  0.00    -0.314 N 
ATOM     27  C   UNL     1       5.610   0.026  -3.414  0.00  0.00    +0.218 C 
ATOM     28  O   UNL     1       4.766   0.590  -4.077  0.00  0.00    -0.275 OA
ATOM     29  H   UNL     1       5.987  -1.576  -2.249  0.00  0.00    +0.149 HD
BRANCH  26  30
ATOM     30  C   UNL     1       3.966  -1.695  -2.891  0.00  0.00    +0.115 C 
BRANCH  30  31
ATOM     31  C   UNL     1       3.893  -2.992  -2.082  0.00  0.00    +0.088 C 
BRANCH  31  32
ATOM     32  S   UNL     1       2.228  -3.697  -2.220  0.00  0.00    -0.153 S 
BRANCH  32  34
ATOM     33  C   UNL     1       2.662  -4.846   0.224  0.00  0.00    +0.022 C 
ATOM     34  C   UNL     1       2.307  -5.208  -1.220  0.00  0.00    +0.008 C 
ATOM     35  C   UNL     1       3.377  -6.141  -1.789  0.00  0.00    +0.022 C 
ATOM     36  C   UNL     1       0.948  -5.911  -1.249  0.00  0.00    +0.022 C 
ENDBRANCH  32  34
ENDBRANCH  31  32
ENDBRANCH  30  31
ENDBRANCH  26  30
ENDBRANCH   1  27
TORSDOF 7
