REMARK  Name = ZINC45605930
REMARK  5 active torsions:
REMARK  status: ('A' for Active; 'I' for Inactive)
REMARK    1  A    between atoms: C_1  and  N_2
REMARK    2  A    between atoms: N_2  and  C_3
REMARK    3  A    between atoms: N_2  and  C_11
REMARK    4  A    between atoms: C_3  and  C_4
REMARK    5  A    between atoms: C_11  and  C_12
REMARK                            x       y       z     vdW  Elec       q    Type
REMARK                         _______ _______ _______ _____ _____    ______ ____
ROOT
ATOM      1  C   UNL     1      -2.067  -0.116  -1.267  0.00  0.00    +0.204 C 
ATOM      2  O   UNL     1      -1.415   0.406  -2.146  0.00  0.00    -0.277 OA
ATOM      3  N   UNL     1      -3.313  -0.560  -1.525  0.00  0.00    -0.256 N 
ATOM      4  C   UNL     1      -4.030  -1.302  -0.571  0.00  0.00    +0.058 A 
ATOM      5  C   UNL     1      -3.374  -2.079   0.366  0.00  0.00    +0.025 A 
ATOM      6  C   UNL     1      -4.105  -2.801   1.293  0.00  0.00    +0.002 A 
ATOM      7  C   UNL     1      -5.487  -2.747   1.282  0.00  0.00    +0.002 A 
ATOM      8  C   UNL     1      -6.149  -1.972   0.348  0.00  0.00    +0.025 A 
ATOM      9  C   UNL     1      -5.425  -1.242  -0.582  0.00  0.00    +0.055 A 
ATOM     10  N   UNL     1      -6.079  -0.445  -1.528  0.00  0.00    -0.282 N 
ATOM     11  C   UNL     1      -5.413   0.048  -2.591  0.00  0.00    +0.241 C 
ATOM     12  O   UNL     1      -5.989   0.768  -3.378  0.00  0.00    -0.273 OA
ATOM     13  C   UNL     1      -3.966  -0.279  -2.807  0.00  0.00    +0.118 C 
ATOM     14  C   UNL     1      -3.839  -1.500  -3.735  0.00  0.00    +0.036 C 
ATOM     15  C   UNL     1      -3.620  -0.886  -5.141  0.00  0.00    +0.003 C 
ATOM     16  C   UNL     1      -2.719   0.339  -4.844  0.00  0.00    +0.003 C 
ATOM     17  C   UNL     1      -3.259   0.891  -3.507  0.00  0.00    +0.036 C 
ATOM     18  H   UNL     1      -7.022  -0.246  -1.418  0.00  0.00    +0.155 HD
ENDROOT
BRANCH   1  19
ATOM     19  C   UNL     1      -1.484  -0.268   0.115  0.00  0.00    +0.019 C 
BRANCH  19  21
ATOM     20  C   UNL     1      -0.929   2.062   0.247  0.00  0.00    -0.095 C 
ATOM     21  N   UNL     1      -0.391   0.696   0.293  0.00  0.00    +0.386 N 
ATOM     22  H   UNL     1       0.287   0.577  -0.445  0.00  0.00    -0.081 HD
BRANCH  21  23
ATOM     23  C   UNL     1       0.256   0.469   1.593  0.00  0.00    -0.043 C 
BRANCH  23  24
ATOM     24  C   UNL     1       1.453   1.375   1.724  0.00  0.00    -0.064 A 
ATOM     25  C   UNL     1       2.693   0.948   1.287  0.00  0.00    +0.003 A 
ATOM     26  C   UNL     1       3.792   1.778   1.406  0.00  0.00    +0.015 A 
ATOM     27  C   UNL     1       3.650   3.036   1.963  0.00  0.00    +0.018 A 
ATOM     28  C   UNL     1       2.409   3.463   2.400  0.00  0.00    +0.015 A 
ATOM     29  C   UNL     1       1.310   2.634   2.276  0.00  0.00    +0.003 A 
ATOM     30 BR   UNL     1       5.152   4.173   2.128  0.00  0.00    -0.050 Br
ENDBRANCH  23  24
ENDBRANCH  21  23
ENDBRANCH  19  21
ENDBRANCH   1  19
TORSDOF 4
