REMARK  Name = ZINC64261826
REMARK  9 active torsions:
REMARK  status: ('A' for Active; 'I' for Inactive)
REMARK    1  A    between atoms: C_1  and  N_2
REMARK    2  A    between atoms: C_6  and  C_7
REMARK    3  A    between atoms: C_7  and  C_8
REMARK    4  A    between atoms: C_7  and  C_20
REMARK    5  A    between atoms: C_7  and  O_24
REMARK    6  A    between atoms: C_8  and  C_9
REMARK    7  A    between atoms: C_9  and  N_10
REMARK    8  A    between atoms: N_13  and  C_14
REMARK    9  A    between atoms: C_14  and  C_15
REMARK                            x       y       z     vdW  Elec       q    Type
REMARK                         _______ _______ _______ _____ _____    ______ ____
ROOT
ATOM      1  C   UNL     1      -0.247  -0.226   2.505  0.00  0.00    +0.215 C 
ENDROOT
BRANCH   1   7
ATOM      2  C   UNL     1      -1.386   1.578   0.345  0.00  0.00    +0.130 C 
ATOM      3  N   UNL     1      -1.147   0.142   0.180  0.00  0.00    -0.319 N 
ATOM      4  C   UNL     1      -1.409  -0.641  -1.039  0.00  0.00    +0.127 C 
ATOM      5  C   UNL     1      -0.974  -2.065  -0.638  0.00  0.00    +0.132 C 
ATOM      6  N   UNL     1      -0.520  -1.916   0.752  0.00  0.00    -0.372 N 
ATOM      7  C   UNL     1      -0.637  -0.696   1.127  0.00  0.00    +0.112 C 
ATOM      8  H   UNL     1      -0.178  -2.637   1.304  0.00  0.00    +0.161 HD
ENDBRANCH   1   7
BRANCH   1   9
ATOM      9  C   UNL     1       0.925   0.751   2.398  0.00  0.00    +0.425 C 
ATOM     10  F   UNL     1       0.581   1.799   1.537  0.00  0.00    -0.167 F 
ATOM     11  F   UNL     1       1.220   1.266   3.665  0.00  0.00    -0.167 F 
ATOM     12  F   UNL     1       2.046   0.082   1.894  0.00  0.00    -0.167 F 
ENDBRANCH   1   9
BRANCH   1  13
ATOM     13  O   UNL     1      -1.359   0.429   3.118  0.00  0.00    -0.374 OA
ATOM     14  H   UNL     1      -2.140  -0.133   3.218  0.00  0.00    +0.211 HD
ENDBRANCH   1  13
BRANCH   1  15
ATOM     15  C   UNL     1       0.168  -1.429   3.355  0.00  0.00    +0.070 C 
BRANCH  15  16
ATOM     16  C   UNL     1       0.503  -0.961   4.772  0.00  0.00    +0.109 C 
BRANCH  16  17
ATOM     17  N   UNL     1       0.772  -2.124   5.620  0.00  0.00    -0.299 N 
ATOM     18  C   UNL     1       1.091  -1.953   6.918  0.00  0.00    +0.300 C 
ATOM     19  O   UNL     1       1.155  -0.832   7.386  0.00  0.00    -0.253 OA
ATOM     20  N   UNL     1       1.338  -3.024   7.699  0.00  0.00    -0.294 N 
ATOM     21  H   UNL     1       0.720  -3.018   5.248  0.00  0.00    +0.150 HD
ATOM     22  H   UNL     1       1.287  -3.918   7.326  0.00  0.00    +0.151 HD
BRANCH  20  23
ATOM     23  C   UNL     1       1.685  -2.837   9.110  0.00  0.00    +0.159 C 
BRANCH  23  24
ATOM     24  C   UNL     1       1.911  -4.181   9.753  0.00  0.00    +0.063 C 
ATOM     25  N   UNL     1       1.829  -5.339   9.187  0.00  0.00    -0.157 NA
ATOM     26  N   UNL     1       2.099  -6.382  10.067  0.00  0.00    -0.162 NA
ATOM     27  C   UNL     1       2.372  -5.963  11.258  0.00  0.00    +0.113 C 
ATOM     28  C   UNL     1       2.288  -4.451  11.197  0.00  0.00    +0.103 C 
ENDBRANCH  23  24
ENDBRANCH  20  23
ENDBRANCH  16  17
ENDBRANCH  15  16
ENDBRANCH   1  15
TORSDOF 8
