REMARK  Name = ZINC45865791
REMARK  7 active torsions:
REMARK  status: ('A' for Active; 'I' for Inactive)
REMARK    1  A    between atoms: C_1  and  C_2
REMARK    2  A    between atoms: C_2  and  C_3
REMARK    3  A    between atoms: C_2  and  C_4
REMARK    4  A    between atoms: C_4  and  C_6
REMARK    5  A    between atoms: C_4  and  N_24
REMARK    6  A    between atoms: C_12  and  C_15
REMARK    7  A    between atoms: C_25  and  C_27
REMARK                            x       y       z     vdW  Elec       q    Type
REMARK                         _______ _______ _______ _____ _____    ______ ____
ROOT
ATOM      1  C   UNL     1      -2.234  -0.096  -1.054  0.00  0.00    +0.236 C 
ATOM      2  O   UNL     1      -2.803  -0.931  -1.724  0.00  0.00    -0.274 OA
ATOM      3  N   UNL     1      -2.316   1.207  -1.389  0.00  0.00    -0.299 N 
ATOM      4  C   UNL     1      -1.693   2.237  -0.547  0.00  0.00    +0.108 C 
ATOM      5  C   UNL     1      -2.749   3.289  -0.192  0.00  0.00    +0.020 C 
ATOM      6  C   UNL     1      -3.381   3.826  -1.478  0.00  0.00    +0.014 C 
ATOM      7  C   UNL     1      -4.070   2.682  -2.226  0.00  0.00    +0.075 C 
ATOM      8  C   UNL     1      -3.024   1.623  -2.607  0.00  0.00    +0.119 C 
ENDROOT
BRANCH   7   9
ATOM      9  C   UNL     1      -4.720   3.218  -3.475  0.00  0.00    +0.142 A 
ATOM     10  N   UNL     1      -4.113   3.815  -4.468  0.00  0.00    -0.133 NA
ATOM     11  N   UNL     1      -4.962   4.146  -5.377  0.00  0.00    -0.129 NA
ATOM     12  C   UNL     1      -6.175   3.772  -5.004  0.00  0.00    +0.161 A 
ATOM     13  N   UNL     1      -6.045   3.164  -3.779  0.00  0.00    -0.286 N 
ATOM     14  C   UNL     1      -7.139   2.664  -3.137  0.00  0.00    +0.094 A 
ATOM     15  C   UNL     1      -8.364   2.756  -3.696  0.00  0.00    +0.018 A 
ATOM     16  C   UNL     1      -8.529   3.370  -4.949  0.00  0.00    +0.005 A 
ATOM     17  C   UNL     1      -7.447   3.880  -5.598  0.00  0.00    +0.048 A 
ENDBRANCH   7   9
BRANCH   1  18
ATOM     18  C   UNL     1      -1.436  -0.514   0.154  0.00  0.00    +0.162 C 
BRANCH  18  19
ATOM     19  N   UNL     1      -1.957  -1.783   0.669  0.00  0.00    -0.304 N 
ATOM     20  C   UNL     1      -1.781  -2.107   1.965  0.00  0.00    +0.211 C 
ATOM     21  O   UNL     1      -1.191  -1.349   2.705  0.00  0.00    -0.276 OA
ATOM     22  C   UNL     1      -2.318  -3.412   2.494  0.00  0.00    +0.109 C 
ATOM     23  H   UNL     1      -2.429  -2.389   0.077  0.00  0.00    +0.149 HD
ENDBRANCH  18  19
BRANCH  18  25
ATOM     24  C   UNL     1       0.541   0.597  -0.896  0.00  0.00    +0.009 C 
ATOM     25  C   UNL     1       0.032  -0.689  -0.241  0.00  0.00    +0.012 C 
ATOM     26  C   UNL     1       0.864  -0.989   1.008  0.00  0.00    +0.009 C 
ENDBRANCH  18  25
ENDBRANCH   1  18
TORSDOF 4
