REMARK  Name = ZINC66563586
REMARK  6 active torsions:
REMARK  status: ('A' for Active; 'I' for Inactive)
REMARK    1  A    between atoms: C_4  and  C_7
REMARK    2  A    between atoms: C_4  and  N_22
REMARK    3  A    between atoms: C_7  and  N_8
REMARK    4  A    between atoms: C_9  and  C_11
REMARK    5  A    between atoms: C_11  and  N_12
REMARK    6  A    between atoms: C_17  and  C_19
REMARK                            x       y       z     vdW  Elec       q    Type
REMARK                         _______ _______ _______ _____ _____    ______ ____
ROOT
ATOM      1  N   UNL     1       2.058  -2.799   0.579  0.00  0.00    -0.315 N 
ATOM      2  C   UNL     1       2.867  -3.309  -0.371  0.00  0.00    +0.197 C 
ATOM      3  O   UNL     1       3.186  -2.629  -1.324  0.00  0.00    -0.278 OA
ATOM      4  H   UNL     1       1.803  -3.342   1.341  0.00  0.00    +0.149 HD
ENDROOT
BRANCH   1   5
ATOM      5  C   UNL     1       1.565  -1.425   0.461  0.00  0.00    +0.126 C 
BRANCH   5   9
ATOM      6  C   UNL     1       2.215   1.370   2.523  0.00  0.00    +0.000 C 
ATOM      7  C   UNL     1       2.833  -0.019   2.697  0.00  0.00    +0.002 C 
ATOM      8  C   UNL     1       1.723  -1.046   2.926  0.00  0.00    +0.024 C 
ATOM      9  C   UNL     1       0.780  -1.055   1.721  0.00  0.00    +0.038 C 
ATOM     10  C   UNL     1       0.161   0.334   1.547  0.00  0.00    +0.024 C 
ATOM     11  C   UNL     1       1.272   1.361   1.319  0.00  0.00    +0.002 C 
BRANCH   9  12
ATOM     12  N   UNL     1      -0.286  -2.042   1.941  0.00  0.00    -0.291 NA
ATOM     13  C   UNL     1      -1.167  -2.136   0.767  0.00  0.00    +0.113 C 
ATOM     14  C   UNL     1      -2.224  -3.215   1.015  0.00  0.00    +0.175 C 
ATOM     15  O   UNL     1      -2.946  -2.903   2.209  0.00  0.00    -0.377 OA
ATOM     16  C   UNL     1      -2.120  -2.803   3.372  0.00  0.00    +0.175 C 
ATOM     17  C   UNL     1      -1.061  -1.720   3.148  0.00  0.00    +0.113 C 
ENDBRANCH   9  12
ENDBRANCH   5   9
ENDBRANCH   1   5
BRANCH   2  18
ATOM     18  C   UNL     1       3.375  -4.722  -0.250  0.00  0.00    +0.020 C 
BRANCH  18  19
ATOM     19  N   UNL     1       4.230  -5.036  -1.402  0.00  0.00    +0.393 N 
ATOM     20  C   UNL     1       3.415  -5.059  -2.623  0.00  0.00    -0.077 C 
ATOM     21  C   UNL     1       4.314  -5.306  -3.836  0.00  0.00    -0.019 C 
ATOM     22  C   UNL     1       5.027  -6.651  -3.672  0.00  0.00    -0.003 C 
ATOM     23  C   UNL     1       5.815  -6.642  -2.358  0.00  0.00    -0.006 C 
ATOM     24  C   UNL     1       4.860  -6.346  -1.199  0.00  0.00    +0.020 C 
ATOM     25  H   UNL     1       4.945  -4.330  -1.491  0.00  0.00    -0.080 HD
BRANCH  24  26
ATOM     26  C   UNL     1       5.631  -6.337   0.096  0.00  0.00    +0.197 C 
ATOM     27  O   UNL     1       6.099  -5.300   0.515  0.00  0.00    -0.278 OA
ATOM     28  N   UNL     1       5.801  -7.481   0.787  0.00  0.00    -0.331 N 
ATOM     29  H   UNL     1       5.426  -8.311   0.451  0.00  0.00    +0.145 HD
ATOM     30  H   UNL     1       6.297  -7.475   1.621  0.00  0.00    +0.145 HD
ENDBRANCH  24  26
ENDBRANCH  18  19
ENDBRANCH   2  18
TORSDOF 6
