REMARK  Name = ZINC63162225
REMARK  4 active torsions:
REMARK  status: ('A' for Active; 'I' for Inactive)
REMARK    1  A    between atoms: C_2  and  C_23
REMARK    2  A    between atoms: C_8  and  N_9
REMARK    3  A    between atoms: N_12  and  C_13
REMARK    4  A    between atoms: C_17  and  C_19
REMARK                            x       y       z     vdW  Elec       q    Type
REMARK                         _______ _______ _______ _____ _____    ______ ____
ROOT
ATOM      1  N   UNL     1      -1.198  -0.730   0.010  0.00  0.00    -0.265 N 
ATOM      2  C   UNL     1      -1.173  -2.073  -0.099  0.00  0.00    +0.304 C 
ATOM      3  O   UNL     1      -0.110  -2.663  -0.113  0.00  0.00    -0.252 OA
ATOM      4  N   UNL     1      -2.327  -2.763  -0.193  0.00  0.00    -0.296 N 
ATOM      5  H   UNL     1      -2.045  -0.266   0.096  0.00  0.00    +0.157 HD
ATOM      6  H   UNL     1      -3.175  -2.292  -0.182  0.00  0.00    +0.151 HD
ENDROOT
BRANCH   1  14
ATOM      7  C   UNL     1       0.333   0.800   1.056  0.00  0.00    +0.042 A 
ATOM      8  C   UNL     1       1.539   1.515   1.021  0.00  0.00    +0.073 A 
ATOM      9  C   UNL     1       2.360   1.405  -0.049  0.00  0.00    +0.098 A 
ATOM     10  N   UNL     1       2.032   0.607  -1.099  0.00  0.00    -0.327 N 
ATOM     11  H   UNL     1       2.634   0.541  -1.857  0.00  0.00    +0.168 HD
ATOM     12  C   UNL     1       0.883  -0.095  -1.099  0.00  0.00    +0.270 A 
ATOM     13  O   UNL     1       0.603  -0.808  -2.049  0.00  0.00    -0.266 OA
ATOM     14  C   UNL     1       0.002  -0.004   0.000  0.00  0.00    +0.100 A 
BRANCH   8  15
ATOM     15  C   UNL     1       1.920   2.406   2.175  0.00  0.00    +0.419 C 
ATOM     16  F   UNL     1       3.155   3.008   1.911  0.00  0.00    -0.166 F 
ATOM     17  F   UNL     1       0.945   3.395   2.342  0.00  0.00    -0.166 F 
ATOM     18  F   UNL     1       2.014   1.642   3.343  0.00  0.00    -0.166 F 
ENDBRANCH   8  15
ENDBRANCH   1  14
BRANCH   4  19
ATOM     19  C   UNL     1      -2.301  -4.223  -0.312  0.00  0.00    +0.075 C 
ATOM     20  C   UNL     1      -2.212  -4.846   1.083  0.00  0.00    +0.022 C 
ATOM     21  C   UNL     1      -3.429  -4.423   1.909  0.00  0.00    +0.002 C 
ATOM     22  C   UNL     1      -4.707  -4.902   1.216  0.00  0.00    +0.012 C 
ATOM     23  C   UNL     1      -4.795  -4.279  -0.178  0.00  0.00    +0.095 C 
ATOM     24  C   UNL     1      -3.578  -4.701  -1.004  0.00  0.00    +0.034 C 
BRANCH  23  25
ATOM     25  C   UNL     1      -6.073  -4.757  -0.871  0.00  0.00    +0.393 C 
ATOM     26  F   UNL     1      -7.185  -4.371  -0.116  0.00  0.00    -0.170 F 
ATOM     27  F   UNL     1      -6.154  -4.187  -2.146  0.00  0.00    -0.170 F 
ATOM     28  F   UNL     1      -6.047  -6.152  -0.984  0.00  0.00    -0.170 F 
ENDBRANCH  23  25
ENDBRANCH   4  19
TORSDOF 4
