REMARK  Name = ZINC61643304
REMARK  11 active torsions:
REMARK  status: ('A' for Active; 'I' for Inactive)
REMARK    1  A    between atoms: C_1  and  C_2
REMARK    2  A    between atoms: C_2  and  C_3
REMARK    3  A    between atoms: C_6  and  C_9
REMARK    4  A    between atoms: C_9  and  C_11
REMARK    5  A    between atoms: C_9  and  N_24
REMARK    6  A    between atoms: C_11  and  C_13
REMARK    7  A    between atoms: C_11  and  N_14
REMARK    8  A    between atoms: C_18  and  C_20
REMARK    9  A    between atoms: C_20  and  N_21
REMARK   10  A    between atoms: N_21  and  C_22
REMARK   11  A    between atoms: N_21  and  C_23
REMARK                            x       y       z     vdW  Elec       q    Type
REMARK                         _______ _______ _______ _____ _____    ______ ____
ROOT
ATOM      1  C   UNL     1       2.707  -1.868  -4.752  0.00  0.00    -0.027 C 
ENDROOT
BRANCH   1   5
ATOM      2  C   UNL     1       0.707  -0.490  -1.238  0.00  0.00    -0.048 A 
ATOM      3  C   UNL     1      -0.011  -0.719  -2.397  0.00  0.00    +0.004 A 
ATOM      4  C   UNL     1       0.636  -1.164  -3.534  0.00  0.00    +0.002 A 
ATOM      5  C   UNL     1       2.002  -1.381  -3.513  0.00  0.00    -0.060 A 
ATOM      6  C   UNL     1       2.720  -1.152  -2.354  0.00  0.00    +0.002 A 
ATOM      7  C   UNL     1       2.073  -0.702  -1.218  0.00  0.00    +0.004 A 
BRANCH   2   9
ATOM      8  C   UNL     1      -0.019   1.526   0.010  0.00  0.00    +0.009 C 
ATOM      9  C   UNL     1       0.002  -0.004   0.002  0.00  0.00    +0.032 C 
ENDBRANCH   2   9
ENDBRANCH   1   5
BRANCH   1  10
ATOM     10  N   UNL     1       3.721  -2.863  -4.380  0.00  0.00    +0.384 N 
ATOM     11  H   UNL     1       4.392  -2.442  -3.755  0.00  0.00    -0.089 HD
ATOM     12  H   UNL     1       3.275  -3.642  -3.919  0.00  0.00    -0.089 HD
ATOM     13  H   UNL     1       4.193  -3.189  -5.210  0.00  0.00    -0.089 HD
ENDBRANCH   1  10
BRANCH   1  14
ATOM     14  C   UNL     1       3.383  -0.687  -5.451  0.00  0.00    +0.043 C 
ATOM     15  C   UNL     1       2.317   0.290  -5.950  0.00  0.00    +0.023 C 
BRANCH  14  16
ATOM     16  N   UNL     1       4.169  -1.178  -6.591  0.00  0.00    -0.300 NA
ATOM     17  C   UNL     1       3.287  -1.680  -7.666  0.00  0.00    +0.085 C 
ATOM     18  C   UNL     1       3.189  -0.509  -8.676  0.00  0.00    +0.017 C 
ATOM     19  C   UNL     1       4.627   0.070  -8.625  0.00  0.00    +0.018 C 
ATOM     20  C   UNL     1       5.022  -0.110  -7.144  0.00  0.00    +0.040 C 
BRANCH  20  21
ATOM     21  C   UNL     1       6.494  -0.514  -7.043  0.00  0.00    -0.061 C 
BRANCH  21  22
ATOM     22  N   UNL     1       6.815  -0.850  -5.650  0.00  0.00    +0.377 N 
ATOM     23  C   UNL     1       8.193  -1.352  -5.572  0.00  0.00    -0.097 C 
ATOM     24  C   UNL     1       6.684   0.350  -4.814  0.00  0.00    -0.097 C 
ATOM     25  H   UNL     1       6.179  -1.561  -5.320  0.00  0.00    -0.083 HD
ENDBRANCH  21  22
ENDBRANCH  20  21
ENDBRANCH  14  16
ENDBRANCH   1  14
TORSDOF 7
