REMARK  Name = ZINC38788173
REMARK  6 active torsions:
REMARK  status: ('A' for Active; 'I' for Inactive)
REMARK    1  A    between atoms: C_1  and  C_2
REMARK    2  A    between atoms: C_2  and  C_3
REMARK    3  A    between atoms: C_8  and  N_9
REMARK    4  A    between atoms: N_9  and  C_10
REMARK    5  A    between atoms: C_10  and  C_11
REMARK    6  A    between atoms: C_17  and  C_23
REMARK                            x       y       z     vdW  Elec       q    Type
REMARK                         _______ _______ _______ _____ _____    ______ ____
ROOT
ATOM      1  C   UNL     1      -1.362  -0.014  -4.812  0.00  0.00    +0.115 C 
ATOM      2  C   UNL     1      -2.072  -0.381  -6.101  0.00  0.00    -0.003 C 
ATOM      3  C   UNL     1      -2.344   0.630  -6.974  0.00  0.00    -0.007 A 
ATOM      4  C   UNL     1      -3.026   0.364  -8.241  0.00  0.00    +0.010 A 
ATOM      5  C   UNL     1      -3.276   1.402  -9.081  0.00  0.00    +0.004 A 
ATOM      6  C   UNL     1      -2.896   2.705  -8.758  0.00  0.00    -0.049 A 
ATOM      7  C   UNL     1      -2.260   3.017  -7.598  0.00  0.00    +0.027 A 
ATOM      8  C   UNL     1      -1.955   2.015  -6.659  0.00  0.00    +0.041 A 
ATOM      9  N   UNL     1      -1.331   2.333  -5.525  0.00  0.00    -0.284 N 
ATOM     10  C   UNL     1      -1.014   1.442  -4.602  0.00  0.00    +0.226 C 
ATOM     11  O   UNL     1      -0.445   1.793  -3.586  0.00  0.00    -0.275 OA
ATOM     12  C   UNL     1      -3.203   3.811  -9.735  0.00  0.00    +0.044 C 
ATOM     13  H   UNL     1      -1.099   3.262  -5.370  0.00  0.00    +0.155 HD
ENDROOT
BRANCH   1  14
ATOM     14  C   UNL     1      -2.247  -0.459  -3.646  0.00  0.00    +0.118 C 
BRANCH  14  15
ATOM     15  N   UNL     1      -1.507  -0.315  -2.390  0.00  0.00    -0.343 N 
ATOM     16  H   UNL     1      -0.597   0.021  -2.398  0.00  0.00    +0.146 HD
BRANCH  15  22
ATOM     17  C   UNL     1      -1.412  -0.526   0.013  0.00  0.00    -0.027 A 
ATOM     18  C   UNL     1      -2.015  -0.864   1.208  0.00  0.00    +0.005 A 
ATOM     19  C   UNL     1      -3.312  -1.343   1.219  0.00  0.00    +0.000 A 
ATOM     20  C   UNL     1      -4.010  -1.485   0.034  0.00  0.00    +0.002 A 
ATOM     21  C   UNL     1      -3.413  -1.148  -1.165  0.00  0.00    +0.023 A 
ATOM     22  C   UNL     1      -2.112  -0.662  -1.179  0.00  0.00    +0.030 A 
BRANCH  17  24
ATOM     23  C   UNL     1      -0.019   1.526   0.010  0.00  0.00    +0.009 C 
ATOM     24  C   UNL     1       0.002  -0.004   0.002  0.00  0.00    +0.033 C 
ENDBRANCH  17  24
ENDBRANCH  15  22
ENDBRANCH  14  15
ENDBRANCH   1  14
TORSDOF 4
