REMARK  Name = ZINC54479816
REMARK  8 active torsions:
REMARK  status: ('A' for Active; 'I' for Inactive)
REMARK    1  A    between atoms: C_1  and  C_2
REMARK    2  A    between atoms: C_2  and  C_3
REMARK    3  A    between atoms: N_5  and  C_6
REMARK    4  A    between atoms: C_9  and  C_12
REMARK    5  A    between atoms: C_12  and  C_13
REMARK    6  A    between atoms: C_12  and  N_14
REMARK    7  A    between atoms: N_17  and  C_18
REMARK    8  A    between atoms: C_23  and  N_24
REMARK                            x       y       z     vdW  Elec       q    Type
REMARK                         _______ _______ _______ _____ _____    ______ ____
ROOT
ATOM      1  N   UNL     1       3.167  -4.546  -6.648  0.00  0.00    -0.293 N 
ATOM      2  C   UNL     1       3.373  -4.793  -7.956  0.00  0.00    +0.304 C 
ATOM      3  O   UNL     1       4.100  -4.066  -8.605  0.00  0.00    -0.252 OA
ATOM      4  N   UNL     1       2.773  -5.847  -8.546  0.00  0.00    -0.267 N 
ATOM      5  H   UNL     1       2.587  -5.126  -6.130  0.00  0.00    +0.151 HD
ATOM      6  H   UNL     1       2.143  -6.389  -8.045  0.00  0.00    +0.156 HD
ENDROOT
BRANCH   4   7
ATOM      7  C   UNL     1       3.061  -6.160  -9.882  0.00  0.00    +0.073 A 
ATOM      8  C   UNL     1       3.324  -5.153 -10.801  0.00  0.00    +0.028 A 
ATOM      9  C   UNL     1       3.604  -5.512 -12.112  0.00  0.00    +0.019 A 
ATOM     10  C   UNL     1       3.613  -6.847 -12.462  0.00  0.00    +0.084 A 
ATOM     11  N   UNL     1       3.360  -7.785 -11.569  0.00  0.00    -0.348 N 
ATOM     12  C   UNL     1       3.093  -7.490 -10.307  0.00  0.00    +0.121 A 
ATOM     13  H   UNL     1       3.373  -8.715 -11.844  0.00  0.00    +0.167 HD
BRANCH  12  14
ATOM     14  N   UNL     1       2.838  -8.513  -9.398  0.00  0.00    -0.311 N 
ATOM     15  C   UNL     1       1.490  -9.088  -9.264  0.00  0.00    +0.134 C 
ATOM     16  C   UNL     1       1.605 -10.614  -9.354  0.00  0.00    +0.178 C 
ATOM     17  O   UNL     1       2.585 -11.068  -8.417  0.00  0.00    -0.377 OA
ATOM     18  C   UNL     1       3.905 -10.578  -8.667  0.00  0.00    +0.178 C 
ATOM     19  C   UNL     1       3.909  -9.054  -8.546  0.00  0.00    +0.134 C 
ENDBRANCH  12  14
ENDBRANCH   4   7
BRANCH   1  20
ATOM     20  C   UNL     1       3.818  -3.401  -6.007  0.00  0.00    +0.102 C 
ATOM     21  C   UNL     1       5.226  -3.800  -5.559  0.00  0.00    +0.033 C 
BRANCH  20  25
ATOM     22  C   UNL     1       1.534  -2.180  -2.607  0.00  0.00    +0.033 A 
ATOM     23  C   UNL     1       2.107  -1.227  -3.439  0.00  0.00    +0.023 A 
ATOM     24  C   UNL     1       2.845  -1.625  -4.537  0.00  0.00    +0.007 A 
ATOM     25  C   UNL     1       3.013  -2.970  -4.808  0.00  0.00    -0.027 A 
ATOM     26  C   UNL     1       2.443  -3.922  -3.982  0.00  0.00    +0.007 A 
ATOM     27  C   UNL     1       1.709  -3.531  -2.879  0.00  0.00    +0.023 A 
BRANCH  22  30
ATOM     28  C   UNL     1       0.827  -2.506  -0.359  0.00  0.00    +0.217 C 
ATOM     29  O   UNL     1       1.447  -3.548  -0.327  0.00  0.00    -0.275 OA
ATOM     30  N   UNL     1       0.786  -1.780  -1.494  0.00  0.00    -0.286 N 
ATOM     31  H   UNL     1       0.238  -0.981  -1.540  0.00  0.00    +0.155 HD
BRANCH  28  33
ATOM     32  C   UNL     1       0.307  -3.023   2.010  0.00  0.00    +0.013 C 
ATOM     33  C   UNL     1       0.101  -2.023   0.870  0.00  0.00    +0.093 C 
ENDBRANCH  28  33
ENDBRANCH  22  30
ENDBRANCH  20  25
ENDBRANCH   1  20
TORSDOF 6
