REMARK  Name = ZINC30004592
REMARK  9 active torsions:
REMARK  status: ('A' for Active; 'I' for Inactive)
REMARK    1  A    between atoms: C_1  and  C_2
REMARK    2  A    between atoms: C_2  and  C_4
REMARK    3  A    between atoms: C_2  and  N_14
REMARK    4  A    between atoms: C_7  and  S_10
REMARK    5  A    between atoms: S_10  and  C_13
REMARK    6  A    between atoms: N_14  and  C_15
REMARK    7  A    between atoms: N_14  and  C_16
REMARK    8  A    between atoms: C_16  and  C_17
REMARK    9  A    between atoms: N_22  and  C_23
REMARK                            x       y       z     vdW  Elec       q    Type
REMARK                         _______ _______ _______ _____ _____    ______ ____
ROOT
ATOM      1  C   UNL     1       1.121   3.540   0.023  0.00  0.00    +0.019 C 
ENDROOT
BRANCH   1   2
ATOM      2  C   UNL     1       1.141   2.034   0.006  0.00  0.00    +0.204 C 
ATOM      3  O   UNL     1       2.199   1.442  -0.016  0.00  0.00    -0.277 OA
ATOM      4  N   UNL     1      -0.016   1.344   0.015  0.00  0.00    -0.241 N 
ATOM      5  C   UNL     1       0.002  -0.004   0.000  0.00  0.00    +0.310 C 
ATOM      6  O   UNL     1       1.063  -0.597  -0.022  0.00  0.00    -0.252 OA
ATOM      7  N   UNL     1      -1.156  -0.694   0.009  0.00  0.00    -0.269 N 
ATOM      8  H   UNL     1      -0.976   1.880   0.035  0.00  0.00    +0.159 HD
ATOM      9  H   UNL     1      -2.113  -0.161   0.106  0.00  0.00    +0.156 HD
BRANCH   7  10
ATOM     10  C   UNL     1      -1.140  -2.089  -0.104  0.00  0.00    +0.035 A 
ATOM     11  C   UNL     1      -2.156  -2.742  -0.789  0.00  0.00    +0.024 A 
ATOM     12  C   UNL     1      -2.134  -4.119  -0.905  0.00  0.00    +0.017 A 
ATOM     13  C   UNL     1      -1.109  -4.847  -0.328  0.00  0.00    +0.018 A 
ATOM     14  C   UNL     1      -0.099  -4.199   0.360  0.00  0.00    +0.017 A 
ATOM     15  C   UNL     1      -0.112  -2.822   0.474  0.00  0.00    +0.024 A 
ATOM     16 BR   UNL     1      -1.088  -6.731  -0.482  0.00  0.00    -0.050 Br
ENDBRANCH   7  10
ENDBRANCH   1   2
BRANCH   1  17
ATOM     17  N   UNL     1       2.499   4.049   0.009  0.00  0.00    +0.388 N 
ATOM     18  C   UNL     1       3.204   3.695   1.248  0.00  0.00    -0.095 C 
ATOM     19  H   UNL     1       3.027   3.570  -0.829  0.00  0.00    -0.081 HD
BRANCH  17  21
ATOM     20  C   UNL     1       1.867   5.821  -1.559  0.00  0.00    -0.008 C 
ATOM     21  C   UNL     1       2.522   5.501  -0.214  0.00  0.00    -0.041 C 
BRANCH  21  22
ATOM     22  C   UNL     1       3.949   5.985  -0.222  0.00  0.00    -0.061 A 
ATOM     23  C   UNL     1       4.931   5.231  -0.835  0.00  0.00    +0.004 A 
ATOM     24  C   UNL     1       6.240   5.677  -0.847  0.00  0.00    +0.027 A 
ATOM     25  C   UNL     1       6.567   6.873  -0.237  0.00  0.00    +0.088 A 
ATOM     26  C   UNL     1       5.585   7.626   0.381  0.00  0.00    +0.027 A 
ATOM     27  C   UNL     1       4.276   7.181   0.388  0.00  0.00    +0.004 A 
BRANCH  25  28
ATOM     28  S   UNL     1       8.236   7.439  -0.246  0.00  0.00    -0.006 S 
ATOM     29  O   UNL     1       8.815   6.843  -1.398  0.00  0.00    -0.170 OA
ATOM     30  O   UNL     1       8.140   8.852  -0.131  0.00  0.00    -0.170 OA
ATOM     31  C   UNL     1       8.973   6.740   1.257  0.00  0.00    +0.200 C 
ENDBRANCH  25  28
ENDBRANCH  21  22
ENDBRANCH  17  21
ENDBRANCH   1  17
TORSDOF 6
