REMARK  Name = ZINC61681292
REMARK  7 active torsions:
REMARK  status: ('A' for Active; 'I' for Inactive)
REMARK    1  A    between atoms: C_1  and  C_2
REMARK    2  A    between atoms: C_5  and  C_9
REMARK    3  A    between atoms: C_7  and  C_8
REMARK    4  A    between atoms: C_10  and  C_16
REMARK    5  A    between atoms: N_12  and  C_15
REMARK    6  A    between atoms: C_13  and  N_14
REMARK    7  A    between atoms: C_16  and  C_17
REMARK                            x       y       z     vdW  Elec       q    Type
REMARK                         _______ _______ _______ _____ _____    ______ ____
ROOT
ATOM      1  C   UNL     1       0.085  -4.064  -0.217  0.00  0.00    +0.042 A 
ATOM      2  C   UNL     1      -0.955  -4.989  -0.434  0.00  0.00    +0.044 A 
ATOM      3  N   UNL     1      -0.503  -6.184  -0.159  0.00  0.00    -0.300 N 
ATOM      4  N   UNL     1       0.834  -6.083   0.242  0.00  0.00    -0.276 N 
ATOM      5  C   UNL     1       1.192  -4.781   0.200  0.00  0.00    +0.120 A 
ATOM      6  C   UNL     1       1.698  -7.199   0.636  0.00  0.00    +0.172 C 
ATOM      7  H   UNL     1      -1.012  -7.007  -0.223  0.00  0.00    +0.187 HD
ENDROOT
BRANCH   1  12
ATOM      8  C   UNL     1      -0.214   1.639  -0.957  0.00  0.00    +0.044 C 
ATOM      9  C   UNL     1      -0.136   0.147  -0.764  0.00  0.00    -0.048 A 
ATOM     10  C   UNL     1      -0.234  -0.696  -1.857  0.00  0.00    +0.004 A 
ATOM     11  C   UNL     1      -0.163  -2.063  -1.685  0.00  0.00    +0.009 A 
ATOM     12  C   UNL     1       0.008  -2.595  -0.408  0.00  0.00    -0.013 A 
ATOM     13  C   UNL     1       0.106  -1.741   0.689  0.00  0.00    +0.012 A 
ATOM     14  C   UNL     1       0.039  -0.375   0.505  0.00  0.00    -0.047 A 
ATOM     15  C   UNL     1       0.150   0.550   1.690  0.00  0.00    +0.044 C 
ENDBRANCH   1  12
BRANCH   5  16
ATOM     16  N   UNL     1       2.439  -4.259   0.519  0.00  0.00    -0.343 N 
ATOM     17  H   UNL     1       2.594  -3.304   0.458  0.00  0.00    +0.144 HD
ATOM     18  H   UNL     1       3.154  -4.850   0.803  0.00  0.00    +0.144 HD
ENDBRANCH   5  16
BRANCH   2  19
ATOM     19  C   UNL     1      -2.349  -4.659  -0.901  0.00  0.00    +0.059 C 
BRANCH  19  20
ATOM     20  C   UNL     1      -3.181  -4.166   0.285  0.00  0.00    -0.005 C 
ATOM     21  C   UNL     1      -3.419  -5.321   1.280  0.00  0.00    +0.004 C 
ATOM     22  C   UNL     1      -4.863  -5.090   1.790  0.00  0.00    +0.000 C 
ATOM     23  C   UNL     1      -5.601  -4.602   0.519  0.00  0.00    +0.000 C 
ATOM     24  C   UNL     1      -4.568  -3.709  -0.199  0.00  0.00    +0.004 C 
ENDBRANCH  19  20
ENDBRANCH   2  19
TORSDOF 4
