REMARK  Name = ZINC63813553
REMARK  5 active torsions:
REMARK  status: ('A' for Active; 'I' for Inactive)
REMARK    1  A    between atoms: C_1  and  C_2
REMARK    2  A    between atoms: C_2  and  C_3
REMARK    3  A    between atoms: C_2  and  N_15
REMARK    4  A    between atoms: C_7  and  C_9
REMARK    5  A    between atoms: C_22  and  C_24
REMARK                            x       y       z     vdW  Elec       q    Type
REMARK                         _______ _______ _______ _____ _____    ______ ____
ROOT
ATOM      1  C   UNL     1      -0.019   1.526   0.010  0.00  0.00    +0.036 C 
ATOM      2  C   UNL     1       0.002  -0.004   0.002  0.00  0.00    +0.135 C 
ENDROOT
BRANCH   2   3
ATOM      3  N   UNL     1       0.688  -0.476  -1.203  0.00  0.00    -0.290 N 
ATOM      4  C   UNL     1       0.006  -0.608  -2.358  0.00  0.00    +0.306 C 
ATOM      5  O   UNL     1      -1.178  -0.335  -2.400  0.00  0.00    -0.252 OA
ATOM      6  N   UNL     1       0.637  -1.043  -3.467  0.00  0.00    -0.247 N 
ATOM      7  C   UNL     1      -0.066  -1.179  -4.660  0.00  0.00    +0.189 A 
ATOM      8  N   UNL     1      -1.337  -0.931  -4.908  0.00  0.00    -0.126 NA
ATOM      9  N   UNL     1      -1.839  -1.104  -6.054  0.00  0.00    -0.144 NA
ATOM     10  C   UNL     1      -1.072  -1.544  -7.031  0.00  0.00    +0.107 A 
ATOM     11  S   UNL     1       0.485  -1.696  -6.166  0.00  0.00    -0.035 S 
ATOM     12  H   UNL     1       1.632  -0.695  -1.170  0.00  0.00    +0.151 HD
ATOM     13  H   UNL     1       1.582  -1.261  -3.434  0.00  0.00    +0.158 HD
BRANCH  10  14
ATOM     14  C   UNL     1      -1.410  -1.833  -8.471  0.00  0.00    +0.047 C 
ATOM     15  C   UNL     1      -2.792  -1.408  -8.971  0.00  0.00    +0.011 C 
ATOM     16  C   UNL     1      -2.483  -2.889  -8.746  0.00  0.00    +0.011 C 
ENDBRANCH  10  14
ENDBRANCH   2   3
BRANCH   2  17
ATOM     17  C   UNL     1       0.731  -0.503   1.223  0.00  0.00    +0.105 A 
ATOM     18  N   UNL     1       2.059  -0.742   1.301  0.00  0.00    -0.348 N 
ATOM     19  H   UNL     1       2.706  -0.623   0.589  0.00  0.00    +0.167 HD
ATOM     20  C   UNL     1       2.321  -1.181   2.569  0.00  0.00    +0.110 A 
ATOM     21  C   UNL     1       1.135  -1.196   3.230  0.00  0.00    +0.064 A 
ATOM     22  N   UNL     1       0.183  -0.769   2.376  0.00  0.00    -0.342 N 
ATOM     23  H   UNL     1      -0.760  -0.677   2.584  0.00  0.00    +0.167 HD
BRANCH  21  24
ATOM     24  C   UNL     1       0.925  -1.603   4.641  0.00  0.00    -0.000 A 
ATOM     25  C   UNL     1      -0.354  -1.577   5.194  0.00  0.00    +0.010 A 
ATOM     26  C   UNL     1      -0.544  -1.957   6.507  0.00  0.00    +0.001 A 
ATOM     27  C   UNL     1       0.533  -2.363   7.275  0.00  0.00    +0.000 A 
ATOM     28  C   UNL     1       1.805  -2.391   6.731  0.00  0.00    +0.001 A 
ATOM     29  C   UNL     1       2.005  -2.020   5.418  0.00  0.00    +0.010 A 
ENDBRANCH  21  24
ENDBRANCH   2  17
TORSDOF 4
