REMARK  Name = ZINC35765162
REMARK  8 active torsions:
REMARK  status: ('A' for Active; 'I' for Inactive)
REMARK    1  A    between atoms: C_1  and  C_2
REMARK    2  A    between atoms: C_2  and  C_3
REMARK    3  A    between atoms: C_7  and  C_20
REMARK    4  A    between atoms: C_9  and  N_12
REMARK    5  A    between atoms: N_12  and  C_13
REMARK    6  A    between atoms: N_12  and  C_15
REMARK    7  A    between atoms: C_13  and  C_14
REMARK    8  A    between atoms: C_20  and  N_21
REMARK                            x       y       z     vdW  Elec       q    Type
REMARK                         _______ _______ _______ _____ _____    ______ ____
ROOT
ATOM      1  C   UNL     1       0.364  -0.360   3.053  0.00  0.00    -0.013 C 
ATOM      2  C   UNL     1       1.740   0.300   2.943  0.00  0.00    +0.003 C 
ATOM      3  C   UNL     1       2.780  -0.568   3.654  0.00  0.00    +0.000 C 
ATOM      4  C   UNL     1       2.824  -1.950   2.999  0.00  0.00    -0.042 C 
ATOM      5  C   UNL     1       1.448  -2.610   3.109  0.00  0.00    -0.067 C 
ATOM      6  C   UNL     1       0.408  -1.742   2.398  0.00  0.00    -0.012 C 
ENDROOT
BRANCH   1   8
ATOM      7  C   UNL     1      -0.809   1.846   3.073  0.00  0.00    +0.004 C 
ATOM      8  C   UNL     1      -0.676   0.508   2.342  0.00  0.00    -0.000 C 
ENDBRANCH   1   8
BRANCH   5   9
ATOM      9  N   UNL     1       1.490  -3.937   2.480  0.00  0.00    +0.383 N 
ATOM     10  H   UNL     1       1.899  -3.861   1.561  0.00  0.00    -0.081 HD
BRANCH   9  11
ATOM     11  C   UNL     1       2.301  -4.844   3.304  0.00  0.00    -0.068 C 
ATOM     12  C   UNL     1       3.790  -4.450   3.213  0.00  0.00    -0.015 C 
ATOM     13  C   UNL     1       4.543  -5.804   3.221  0.00  0.00    -0.002 C 
ATOM     14  C   UNL     1       3.621  -6.712   2.369  0.00  0.00    -0.002 C 
ATOM     15  C   UNL     1       2.194  -6.282   2.767  0.00  0.00    -0.015 C 
ENDBRANCH   9  11
BRANCH   9  16
ATOM     16  C   UNL     1       0.125  -4.469   2.366  0.00  0.00    -0.081 C 
ATOM     17  C   UNL     1      -0.485  -4.026   1.035  0.00  0.00    -0.017 C 
ENDBRANCH   9  16
ENDBRANCH   5   9
BRANCH   4  18
ATOM     18  C   UNL     1       3.204  -1.804   1.524  0.00  0.00    -0.085 C 
BRANCH  18  19
ATOM     19  N   UNL     1       4.545  -1.214   1.420  0.00  0.00    +0.378 N 
ATOM     20  H   UNL     1       4.547  -0.305   1.859  0.00  0.00    -0.090 HD
ATOM     21  H   UNL     1       5.213  -1.812   1.881  0.00  0.00    -0.090 HD
ATOM     22  H   UNL     1       4.795  -1.117   0.447  0.00  0.00    -0.090 HD
ENDBRANCH  18  19
ENDBRANCH   4  18
TORSDOF 6
