REMARK  Name = ZINC40317379
REMARK  6 active torsions:
REMARK  status: ('A' for Active; 'I' for Inactive)
REMARK    1  A    between atoms: C_1  and  C_2
REMARK    2  A    between atoms: C_8  and  N_10
REMARK    3  A    between atoms: N_10  and  C_11
REMARK    4  A    between atoms: N_10  and  S_12
REMARK    5  A    between atoms: S_12  and  C_15
REMARK    6  A    between atoms: C_20  and  N_21
REMARK                            x       y       z     vdW  Elec       q    Type
REMARK                         _______ _______ _______ _____ _____    ______ ____
ROOT
ATOM      1  S   UNL     1       2.658   0.954   2.316  0.00  0.00    +0.063 S 
ATOM      2  O   UNL     1       3.649   1.836   1.808  0.00  0.00    -0.153 OA
ATOM      3  O   UNL     1       1.407   1.415   2.809  0.00  0.00    -0.153 OA
ENDROOT
BRANCH   1   4
ATOM      4  C   UNL     1       3.413   0.049   3.625  0.00  0.00    +0.126 A 
ATOM      5  C   UNL     1       4.736   0.275   3.949  0.00  0.00    +0.032 A 
ATOM      6  C   UNL     1       5.330  -0.434   4.976  0.00  0.00    +0.022 A 
ATOM      7  C   UNL     1       4.600  -1.374   5.684  0.00  0.00    +0.043 A 
ATOM      8  C   UNL     1       3.276  -1.605   5.365  0.00  0.00    +0.044 A 
ATOM      9  C   UNL     1       2.675  -0.889   4.337  0.00  0.00    +0.053 A 
ATOM     10 CL   UNL     1       5.350  -2.262   6.974  0.00  0.00    -0.083 Cl
BRANCH   9  11
ATOM     11  N   UNL     1       1.335  -1.115   4.017  0.00  0.00    -0.356 N 
ATOM     12  H   UNL     1       0.886  -0.542   3.376  0.00  0.00    +0.142 HD
ATOM     13  H   UNL     1       0.853  -1.847   4.434  0.00  0.00    +0.142 HD
ENDBRANCH   9  11
ENDBRANCH   1   4
BRANCH   1  14
ATOM     14  N   UNL     1       2.320  -0.126   1.106  0.00  0.00    -0.176 NA
ATOM     15  C   UNL     1       3.364  -0.504   0.150  0.00  0.00    +0.132 C 
BRANCH  14  22
ATOM     16  C   UNL     1       0.309   1.159  -0.535  0.00  0.00    +0.009 C 
ATOM     17  C   UNL     1       0.392  -0.360  -0.380  0.00  0.00    +0.005 C 
ATOM     18  C   UNL     1      -1.010  -0.962  -0.499  0.00  0.00    +0.005 C 
ATOM     19  C   UNL     1      -0.928  -2.482  -0.344  0.00  0.00    +0.000 C 
ATOM     20  C   UNL     1      -0.341  -2.823   1.027  0.00  0.00    +0.002 C 
ATOM     21  C   UNL     1       1.061  -2.222   1.147  0.00  0.00    +0.021 C 
ATOM     22  C   UNL     1       0.978  -0.702   0.992  0.00  0.00    +0.082 C 
ENDBRANCH  14  22
ENDBRANCH   1  14
TORSDOF 4
