REMARK  Name = ZINC11128490
REMARK  7 active torsions:
REMARK  status: ('A' for Active; 'I' for Inactive)
REMARK    1  A    between atoms: C_1  and  C_2
REMARK    2  A    between atoms: C_2  and  C_3
REMARK    3  A    between atoms: C_2  and  C_4
REMARK    4  A    between atoms: C_4  and  C_6
REMARK    5  A    between atoms: C_4  and  N_21
REMARK    6  A    between atoms: N_8  and  C_9
REMARK    7  A    between atoms: C_9  and  C_10
REMARK                            x       y       z     vdW  Elec       q    Type
REMARK                         _______ _______ _______ _____ _____    ______ ____
ROOT
ATOM      1  C   UNL     1      -2.889  -1.778  -1.588  0.00  0.00    +0.234 C 
ATOM      2  O   UNL     1      -3.404  -2.498  -0.759  0.00  0.00    -0.274 OA
ATOM      3  N   UNL     1      -1.915  -0.920  -1.224  0.00  0.00    -0.310 N 
ATOM      4  H   UNL     1      -1.454  -0.396  -1.897  0.00  0.00    +0.149 HD
ENDROOT
BRANCH   1   5
ATOM      5  C   UNL     1      -3.339  -1.841  -3.025  0.00  0.00    +0.163 C 
BRANCH   5   6
ATOM      6  N   UNL     1      -4.679  -2.430  -3.092  0.00  0.00    -0.288 N 
ATOM      7  C   UNL     1      -5.487  -2.149  -4.132  0.00  0.00    +0.298 C 
ATOM      8  O   UNL     1      -5.106  -1.406  -5.016  0.00  0.00    -0.253 OA
ATOM      9  N   UNL     1      -6.720  -2.692  -4.194  0.00  0.00    -0.313 N 
ATOM     10  H   UNL     1      -4.983  -3.023  -2.387  0.00  0.00    +0.151 HD
ATOM     11  H   UNL     1      -7.024  -3.284  -3.489  0.00  0.00    +0.146 HD
ATOM     12  H   UNL     1      -7.302  -2.489  -4.943  0.00  0.00    +0.146 HD
ENDBRANCH   5   6
BRANCH   5  14
ATOM     13  C   UNL     1      -2.431  -4.147  -3.332  0.00  0.00    +0.009 C 
ATOM     14  C   UNL     1      -2.362  -2.702  -3.828  0.00  0.00    +0.012 C 
ATOM     15  C   UNL     1      -2.738  -2.652  -5.310  0.00  0.00    +0.009 C 
ENDBRANCH   5  14
ENDBRANCH   1   5
BRANCH   3  16
ATOM     16  C   UNL     1      -1.554  -0.779   0.189  0.00  0.00    +0.141 C 
BRANCH  16  17
ATOM     17  C   UNL     1      -0.447   0.234   0.326  0.00  0.00    -0.014 A 
ATOM     18  C   UNL     1      -0.745   1.578   0.511  0.00  0.00    +0.010 A 
ATOM     19  C   UNL     1       0.300   2.476   0.631  0.00  0.00    +0.042 A 
ATOM     20  C   UNL     1       1.607   2.005   0.564  0.00  0.00    +0.099 A 
ATOM     21  C   UNL     1       0.873  -0.164   0.268  0.00  0.00    +0.089 A 
ATOM     22  N   UNL     1       2.668   2.896   0.683  0.00  0.00    -0.312 N 
ATOM     23  C   UNL     1       2.575   3.962  -0.324  0.00  0.00    +0.134 C 
ATOM     24  C   UNL     1       3.725   4.952  -0.120  0.00  0.00    +0.178 C 
ATOM     25  O   UNL     1       4.969   4.249  -0.188  0.00  0.00    -0.377 OA
ATOM     26  C   UNL     1       5.094   3.203   0.779  0.00  0.00    +0.178 C 
ATOM     27  C   UNL     1       3.957   2.196   0.583  0.00  0.00    +0.134 C 
ATOM     28  N   UNL     1       1.926   0.690   0.383  0.00  0.00    -0.349 N 
ATOM     29  H   UNL     1       2.899   0.366   0.336  0.00  0.00    +0.167 HD
ENDBRANCH  16  17
ENDBRANCH   3  16
TORSDOF 5
