REMARK  Name = ZINC36994795
REMARK  10 active torsions:
REMARK  status: ('A' for Active; 'I' for Inactive)
REMARK    1  A    between atoms: C_1  and  C_2
REMARK    2  A    between atoms: C_5  and  N_13
REMARK    3  A    between atoms: C_7  and  C_12
REMARK    4  A    between atoms: N_10  and  C_11
REMARK    5  A    between atoms: N_13  and  C_14
REMARK    6  A    between atoms: C_14  and  C_16
REMARK    7  A    between atoms: C_14  and  C_22
REMARK    8  A    between atoms: C_22  and  C_23
REMARK    9  A    between atoms: C_22  and  C_24
REMARK   10  A    between atoms: C_22  and  C_25
REMARK                            x       y       z     vdW  Elec       q    Type
REMARK                         _______ _______ _______ _____ _____    ______ ____
ROOT
ATOM      1  N   UNL     1      -3.497  -0.604   1.313  0.00  0.00    +0.386 N 
ATOM      2  H   UNL     1      -3.378  -1.585   1.109  0.00  0.00    -0.085 HD
ATOM      3  H   UNL     1      -3.946  -0.499   2.210  0.00  0.00    -0.085 HD
ENDROOT
BRANCH   1   7
ATOM      4  C   UNL     1      -0.154   1.878   0.286  0.00  0.00    -0.013 C 
ATOM      5  C   UNL     1      -0.029   0.362   0.120  0.00  0.00    -0.074 C 
ATOM      6  C   UNL     1      -1.425  -0.260   0.049  0.00  0.00    -0.031 C 
ATOM      7  C   UNL     1      -2.183   0.052   1.343  0.00  0.00    -0.071 C 
ATOM      8  C   UNL     1      -1.375  -0.469   2.535  0.00  0.00    -0.045 C 
ATOM      9  C   UNL     1       0.019   0.160   2.513  0.00  0.00    -0.077 C 
ATOM     10  N   UNL     1       0.702  -0.196   1.264  0.00  0.00    +0.380 N 
ATOM     11  C   UNL     1       2.067   0.345   1.283  0.00  0.00    -0.096 C 
ATOM     12  C   UNL     1      -2.086  -0.095   3.837  0.00  0.00    +0.004 C 
ATOM     13  H   UNL     1       0.741  -1.201   1.179  0.00  0.00    -0.082 HD
ENDBRANCH   1   7
BRANCH   1  14
ATOM     14  C   UNL     1      -4.330   0.014   0.273  0.00  0.00    -0.035 C 
BRANCH  14  15
ATOM     15  C   UNL     1      -3.871  -0.456  -1.083  0.00  0.00    -0.061 A 
ATOM     16  C   UNL     1      -3.505  -1.776  -1.270  0.00  0.00    +0.002 A 
ATOM     17  C   UNL     1      -3.084  -2.207  -2.514  0.00  0.00    +0.000 A 
ATOM     18  C   UNL     1      -3.029  -1.318  -3.572  0.00  0.00    +0.000 A 
ATOM     19  C   UNL     1      -3.396   0.002  -3.385  0.00  0.00    +0.000 A 
ATOM     20  C   UNL     1      -3.821   0.432  -2.142  0.00  0.00    +0.002 A 
ENDBRANCH  14  15
BRANCH  14  21
ATOM     21  C   UNL     1      -5.791  -0.387   0.484  0.00  0.00    -0.046 C 
ATOM     22  C   UNL     1      -6.299   0.210   1.798  0.00  0.00    +0.009 C 
ATOM     23  C   UNL     1      -6.637   0.140  -0.676  0.00  0.00    +0.009 C 
ATOM     24  C   UNL     1      -5.898  -1.912   0.542  0.00  0.00    +0.009 C 
ENDBRANCH  14  21
ENDBRANCH   1  14
TORSDOF 4
