REMARK  Name = ZINC08097862
REMARK  4 active torsions:
REMARK  status: ('A' for Active; 'I' for Inactive)
REMARK    1  A    between atoms: C_4  and  C_7
REMARK    2  A    between atoms: N_9  and  C_10
REMARK    3  A    between atoms: C_10  and  C_11
REMARK    4  A    between atoms: N_16  and  C_19
REMARK                            x       y       z     vdW  Elec       q    Type
REMARK                         _______ _______ _______ _____ _____    ______ ____
ROOT
ATOM      1  C   UNL     1      -1.095   0.734  -2.164  0.00  0.00    +0.233 C 
ATOM      2  O   UNL     1      -0.829  -0.447  -2.082  0.00  0.00    -0.274 OA
ATOM      3  N   UNL     1      -0.732   1.577  -1.178  0.00  0.00    -0.297 N 
ATOM      4  C   UNL     1      -0.013   1.086   0.008  0.00  0.00    +0.126 C 
ATOM      5  C   UNL     1      -0.738   1.584   1.263  0.00  0.00    +0.124 C 
ATOM      6  N   UNL     1      -0.895   3.043   1.186  0.00  0.00    -0.327 N 
ATOM      7  C   UNL     1      -1.732   3.434   0.044  0.00  0.00    +0.124 C 
ATOM      8  C   UNL     1      -1.043   3.012  -1.258  0.00  0.00    +0.126 C 
ENDROOT
BRANCH   6   9
ATOM      9  C   UNL     1      -1.406   3.552   2.377  0.00  0.00    +0.033 A 
ATOM     10  C   UNL     1      -2.565   4.328   2.384  0.00  0.00    +0.040 A 
ATOM     11  C   UNL     1      -3.042   4.809   3.585  0.00  0.00    +0.084 A 
ATOM     12  C   UNL     1      -1.308   3.826   4.750  0.00  0.00    +0.084 A 
ATOM     13  C   UNL     1      -0.769   3.304   3.593  0.00  0.00    +0.040 A 
ATOM     14  N   UNL     1      -2.440   4.582   4.785  0.00  0.00    -0.367 N 
ATOM     15  H   UNL     1      -2.817   4.957   5.663  0.00  0.00    +0.165 HD
ENDBRANCH   6   9
BRANCH   1  16
ATOM     16  C   UNL     1      -1.831   1.258  -3.371  0.00  0.00    +0.200 C 
BRANCH  16  19
ATOM     17  C   UNL     1      -2.764   0.387  -5.446  0.00  0.00    +0.244 C 
ATOM     18  O   UNL     1      -3.122   1.515  -5.724  0.00  0.00    -0.270 OA
ATOM     19  N   UNL     1      -2.110   0.153  -4.291  0.00  0.00    -0.303 N 
ATOM     20  H   UNL     1      -1.823  -0.747  -4.069  0.00  0.00    +0.150 HD
BRANCH  17  24
ATOM     21  C   UNL     1      -3.572  -2.817  -8.115  0.00  0.00    +0.000 A 
ATOM     22  C   UNL     1      -3.982  -1.534  -8.434  0.00  0.00    +0.001 A 
ATOM     23  C   UNL     1      -3.723  -0.489  -7.572  0.00  0.00    +0.013 A 
ATOM     24  C   UNL     1      -3.045  -0.728  -6.375  0.00  0.00    +0.037 A 
ATOM     25  C   UNL     1      -2.630  -2.023  -6.062  0.00  0.00    +0.013 A 
ATOM     26  C   UNL     1      -2.900  -3.060  -6.930  0.00  0.00    +0.001 A 
ENDBRANCH  17  24
ENDBRANCH  16  19
ENDBRANCH   1  16
TORSDOF 4
