REMARK  Name = ZINC63952589
REMARK  6 active torsions:
REMARK  status: ('A' for Active; 'I' for Inactive)
REMARK    1  A    between atoms: C_1  and  C_2
REMARK    2  A    between atoms: C_8  and  C_11
REMARK    3  A    between atoms: C_11  and  C_12
REMARK    4  A    between atoms: C_12  and  N_13
REMARK    5  A    between atoms: C_17  and  C_22
REMARK    6  A    between atoms: N_20  and  N_21
REMARK                            x       y       z     vdW  Elec       q    Type
REMARK                         _______ _______ _______ _____ _____    ______ ____
ROOT
ATOM      1  N   UNL     1      -1.377  -2.596   5.612  0.00  0.00    -0.312 N 
ATOM      2  C   UNL     1      -2.555  -2.598   6.309  0.00  0.00    +0.235 A 
ATOM      3  N   UNL     1      -3.689  -2.795   5.663  0.00  0.00    -0.113 NA
ATOM      4  N   UNL     1      -4.831  -2.811   6.250  0.00  0.00    -0.140 NA
ATOM      5  C   UNL     1      -4.934  -2.626   7.554  0.00  0.00    +0.159 A 
ATOM      6  C   UNL     1      -3.709  -2.400   8.329  0.00  0.00    +0.298 A 
ATOM      7  O   UNL     1      -3.747  -2.224   9.535  0.00  0.00    -0.264 OA
ATOM      8  N   UNL     1      -2.534  -2.401   7.657  0.00  0.00    -0.199 N 
ATOM      9  H   UNL     1      -0.538  -2.455   6.078  0.00  0.00    +0.149 HD
ENDROOT
BRANCH   5  10
ATOM     10  C   UNL     1      -6.256  -2.645   8.219  0.00  0.00    +0.008 A 
ATOM     11  C   UNL     1      -6.457  -1.928   9.399  0.00  0.00    +0.011 A 
ATOM     12  C   UNL     1      -7.692  -1.949  10.014  0.00  0.00    +0.020 A 
ATOM     13  C   UNL     1      -8.730  -2.681   9.463  0.00  0.00    +0.041 A 
ATOM     14  C   UNL     1      -8.537  -3.394   8.293  0.00  0.00    +0.020 A 
ATOM     15  C   UNL     1      -7.308  -3.375   7.666  0.00  0.00    +0.011 A 
ATOM     16 CL   UNL     1     -10.281  -2.704  10.243  0.00  0.00    -0.084 Cl
ENDBRANCH   5  10
BRANCH   8  17
ATOM     17  N   UNL     1      -1.353  -2.203   8.314  0.00  0.00    -0.293 N 
ATOM     18  H   UNL     1      -1.507  -2.073   9.303  0.00  0.00    +0.163 HD
ATOM     19  H   UNL     1      -0.713  -2.964   8.145  0.00  0.00    +0.163 HD
ENDBRANCH   8  17
BRANCH   1  20
ATOM     20  C   UNL     1      -1.384  -2.806   4.163  0.00  0.00    +0.109 C 
BRANCH  20  21
ATOM     21  C   UNL     1       0.051  -2.757   3.634  0.00  0.00    +0.052 C 
BRANCH  21  29
ATOM     22  C   UNL     1       0.041   1.652   0.134  0.00  0.00    +0.044 C 
ATOM     23  C   UNL     1       0.039   0.146   0.080  0.00  0.00    -0.050 A 
ATOM     24  C   UNL     1       0.032  -0.493  -1.167  0.00  0.00    +0.005 A 
ATOM     25  C   UNL     1       0.030  -1.837  -1.299  0.00  0.00    +0.026 A 
ATOM     26  C   UNL     1       0.034  -2.671  -0.147  0.00  0.00    +0.043 A 
ATOM     27  N   UNL     1       0.032  -3.976  -0.015  0.00  0.00    -0.380 N 
ATOM     28  C   UNL     1       0.038  -4.300   1.416  0.00  0.00    +0.144 C 
ATOM     29  C   UNL     1       0.044  -2.974   2.143  0.00  0.00    -0.040 C 
ATOM     30  C   UNL     1       0.042  -2.021   1.183  0.00  0.00    -0.001 A 
ATOM     31  C   UNL     1       0.050  -0.554   1.238  0.00  0.00    +0.013 A 
ATOM     32  H   UNL     1       0.027  -4.619  -0.741  0.00  0.00    +0.160 HD
ENDBRANCH  21  29
ENDBRANCH  20  21
ENDBRANCH   1  20
TORSDOF 5
