REMARK  Name = ZINC32792034
REMARK  10 active torsions:
REMARK  status: ('A' for Active; 'I' for Inactive)
REMARK    1  A    between atoms: C_1  and  C_2
REMARK    2  A    between atoms: C_2  and  C_4
REMARK    3  A    between atoms: C_2  and  N_12
REMARK    4  A    between atoms: N_12  and  C_13
REMARK    5  A    between atoms: C_13  and  C_15
REMARK    6  A    between atoms: C_13  and  C_16
REMARK    7  A    between atoms: C_16  and  C_18
REMARK    8  A    between atoms: C_19  and  N_28
REMARK    9  A    between atoms: N_20  and  C_27
REMARK   10  A    between atoms: N_23  and  C_26
REMARK                            x       y       z     vdW  Elec       q    Type
REMARK                         _______ _______ _______ _____ _____    ______ ____
ROOT
ATOM      1  C   UNL     1       3.381   6.294   0.883  0.00  0.00    -0.001 C 
ATOM      2  C   UNL     1       3.846   7.434  -0.025  0.00  0.00    -0.006 C 
ENDROOT
BRANCH   1   3
ATOM      3  N   UNL     1       2.236   5.612   0.264  0.00  0.00    +0.390 N 
ATOM      4  H   UNL     1       2.397   5.569  -0.824  0.00  0.00    -0.084 HD
ATOM      5  H   UNL     1       1.324   6.188   0.477  0.00  0.00    -0.084 HD
BRANCH   3   7
ATOM      6  C   UNL     1       2.970   3.292  -0.013  0.00  0.00    -0.009 C 
ATOM      7  C   UNL     1       2.088   4.248   0.791  0.00  0.00    -0.040 C 
BRANCH   7   8
ATOM      8  C   UNL     1       0.648   3.820   0.677  0.00  0.00    -0.026 A 
ATOM      9  C   UNL     1      -0.171   4.394  -0.278  0.00  0.00    +0.007 A 
ATOM     10  C   UNL     1      -1.492   4.002  -0.383  0.00  0.00    +0.039 A 
ATOM     11  C   UNL     1      -1.995   3.029   0.464  0.00  0.00    +0.126 A 
ATOM     12  C   UNL     1      -1.179   2.457   1.424  0.00  0.00    +0.076 A 
ATOM     13  C   UNL     1       0.145   2.851   1.529  0.00  0.00    +0.128 A 
ATOM     14  F   UNL     1       0.944   2.291   2.462  0.00  0.00    -0.205 F 
ATOM     15  F   UNL     1      -3.285   2.641   0.356  0.00  0.00    -0.205 F 
ENDBRANCH   7   8
ENDBRANCH   3   7
ENDBRANCH   1   3
BRANCH   1  16
ATOM     16  C   UNL     1       2.969   6.853   2.220  0.00  0.00    +0.158 C 
ATOM     17  O   UNL     1       1.791   6.943   2.504  0.00  0.00    -0.294 OA
BRANCH  16  18
ATOM     18  C   UNL     1       3.951   7.271   3.143  0.00  0.00    +0.118 A 
ATOM     19  C   UNL     1       3.595   7.916   4.340  0.00  0.00    +0.116 A 
ATOM     20  N   UNL     1       4.581   8.297   5.204  0.00  0.00    -0.284 N 
ATOM     21  C   UNL     1       5.876   8.076   4.926  0.00  0.00    +0.333 A 
ATOM     22  O   UNL     1       6.716   8.439   5.726  0.00  0.00    -0.246 OA
ATOM     23  N   UNL     1       6.277   7.470   3.797  0.00  0.00    -0.263 N 
ATOM     24  C   UNL     1       5.380   7.050   2.881  0.00  0.00    +0.269 A 
ATOM     25  O   UNL     1       5.746   6.500   1.859  0.00  0.00    -0.267 OA
ATOM     26  C   UNL     1       7.707   7.261   3.557  0.00  0.00    +0.157 C 
ATOM     27  C   UNL     1       4.220   8.965   6.457  0.00  0.00    +0.155 C 
BRANCH  19  28
ATOM     28  N   UNL     1       2.288   8.153   4.635  0.00  0.00    -0.344 N 
ATOM     29  H   UNL     1       2.019   8.658   5.574  0.00  0.00    +0.144 HD
ATOM     30  H   UNL     1       1.500   7.838   3.934  0.00  0.00    +0.144 HD
ENDBRANCH  19  28
ENDBRANCH  16  18
ENDBRANCH   1  16
TORSDOF 6
