REMARK  Name = ZINC63503155
REMARK  3 active torsions:
REMARK  status: ('A' for Active; 'I' for Inactive)
REMARK    1  A    between atoms: C_6  and  S_10
REMARK    2  A    between atoms: S_10  and  C_11
REMARK    3  A    between atoms: C_11  and  C_12
REMARK                            x       y       z     vdW  Elec       q    Type
REMARK                         _______ _______ _______ _____ _____    ______ ____
ROOT
ATOM      1  C   UNL     1      -0.016   1.344   0.009  0.00  0.00    +0.002 A 
ATOM      2  C   UNL     1       1.158   2.118   0.002  0.00  0.00    +0.002 A 
ATOM      3  C   UNL     1       2.389   1.570  -0.013  0.00  0.00    +0.027 A 
ATOM      4  C   UNL     1       2.533   0.108  -0.022  0.00  0.00    +0.061 A 
ATOM      5  N   UNL     1       3.569  -0.680  -0.036  0.00  0.00    -0.355 N 
ATOM      6  C   UNL     1       3.071  -2.062  -0.039  0.00  0.00    +0.236 C 
ATOM      7  N   UNL     1       1.606  -1.974  -0.024  0.00  0.00    -0.355 N 
ATOM      8  C   UNL     1       1.290  -0.712  -0.014  0.00  0.00    +0.061 A 
ATOM      9  C   UNL     1       0.002  -0.004   0.002  0.00  0.00    +0.027 A 
ATOM     10  H   UNL     1       4.499  -0.405  -0.045  0.00  0.00    +0.162 HD
ATOM     11  H   UNL     1       0.987  -2.721  -0.022  0.00  0.00    +0.162 HD
ENDROOT
BRANCH   6  12
ATOM     12  S   UNL     1       3.629  -2.921  -1.536  0.00  0.00    -0.110 S 
BRANCH  12  13
ATOM     13  C   UNL     1       2.921  -1.946  -2.892  0.00  0.00    +0.108 C 
BRANCH  13  14
ATOM     14  C   UNL     1       3.313  -2.560  -4.211  0.00  0.00    -0.037 A 
ATOM     15  C   UNL     1       4.480  -2.165  -4.837  0.00  0.00    +0.005 A 
ATOM     16  C   UNL     1       4.840  -2.728  -6.047  0.00  0.00    +0.014 A 
ATOM     17  C   UNL     1       4.032  -3.687  -6.631  0.00  0.00    +0.013 A 
ATOM     18  C   UNL     1       2.864  -4.082  -6.004  0.00  0.00    +0.014 A 
ATOM     19  C   UNL     1       2.508  -3.522  -4.791  0.00  0.00    +0.005 A 
ATOM     20  I   UNL     1       4.576  -4.540  -8.465  0.00  0.00    -0.044 I 
ENDBRANCH  13  14
ENDBRANCH  12  13
ENDBRANCH   6  12
TORSDOF 3
