REMARK  Name = ZINC43249910
REMARK  8 active torsions:
REMARK  status: ('A' for Active; 'I' for Inactive)
REMARK    1  A    between atoms: C_1  and  C_2
REMARK    2  A    between atoms: C_6  and  C_7
REMARK    3  A    between atoms: C_7  and  C_9
REMARK    4  A    between atoms: C_7  and  O_13
REMARK    5  A    between atoms: C_9  and  C_11
REMARK    6  A    between atoms: C_9  and  N_12
REMARK    7  A    between atoms: O_13  and  C_14
REMARK    8  A    between atoms: C_19  and  C_20
REMARK                            x       y       z     vdW  Elec       q    Type
REMARK                         _______ _______ _______ _____ _____    ______ ____
ROOT
ATOM      1  C   UNL     1       0.039  -0.175   2.572  0.00  0.00    +0.196 C 
ENDROOT
BRANCH   1   7
ATOM      2  C   UNL     1       0.033   1.566   0.041  0.00  0.00    +0.045 C 
ATOM      3  C   UNL     1       0.078   0.060  -0.002  0.00  0.00    -0.037 A 
ATOM      4  C   UNL     1       0.124  -0.606  -1.212  0.00  0.00    +0.011 A 
ATOM      5  C   UNL     1       0.164  -1.961  -1.216  0.00  0.00    +0.046 A 
ATOM      6  S   UNL     1       0.135  -2.336   0.530  0.00  0.00    -0.098 S 
ATOM      7  C   UNL     1       0.078  -0.661   1.146  0.00  0.00    +0.031 A 
ENDBRANCH   1   7
BRANCH   1   8
ATOM      8  C   UNL     1      -1.359  -0.404   3.151  0.00  0.00    -0.032 C 
ATOM      9  C   UNL     1      -1.640  -1.906   3.227  0.00  0.00    -0.010 C 
BRANCH   8  10
ATOM     10  N   UNL     1      -1.432   0.177   4.498  0.00  0.00    +0.382 N 
ATOM     11  H   UNL     1      -2.354   0.026   4.879  0.00  0.00    -0.089 HD
ATOM     12  H   UNL     1      -0.746  -0.264   5.092  0.00  0.00    -0.089 HD
ATOM     13  H   UNL     1      -1.246   1.167   4.447  0.00  0.00    -0.089 HD
ENDBRANCH   8  10
ENDBRANCH   1   8
BRANCH   1  14
ATOM     14  O   UNL     1       0.999  -0.896   3.347  0.00  0.00    -0.485 OA
BRANCH  14  15
ATOM     15  C   UNL     1       1.667  -0.201   4.301  0.00  0.00    +0.133 A 
ATOM     16  C   UNL     1       1.326   1.116   4.571  0.00  0.00    +0.046 A 
ATOM     17  C   UNL     1       2.007   1.822   5.542  0.00  0.00    +0.004 A 
ATOM     18  C   UNL     1       3.034   1.223   6.254  0.00  0.00    +0.001 A 
ATOM     19  C   UNL     1       3.385  -0.084   6.000  0.00  0.00    +0.017 A 
ATOM     20  C   UNL     1       2.701  -0.812   5.024  0.00  0.00    +0.078 A 
BRANCH  20  21
ATOM     21  C   UNL     1       3.068  -2.215   4.750  0.00  0.00    +0.245 C 
ATOM     22  O   UNL     1       2.474  -2.844   3.896  0.00  0.00    -0.270 OA
ATOM     23  N   UNL     1       4.063  -2.799   5.447  0.00  0.00    -0.325 N 
ATOM     24  H   UNL     1       4.537  -2.297   6.128  0.00  0.00    +0.145 HD
ATOM     25  H   UNL     1       4.305  -3.721   5.267  0.00  0.00    +0.145 HD
ENDBRANCH  20  21
ENDBRANCH  14  15
ENDBRANCH   1  14
TORSDOF 6
