REMARK  Name = ZINC65150380
REMARK  9 active torsions:
REMARK  status: ('A' for Active; 'I' for Inactive)
REMARK    1  A    between atoms: C_1  and  C_2
REMARK    2  A    between atoms: C_2  and  N_3
REMARK    3  A    between atoms: N_3  and  C_4
REMARK    4  A    between atoms: N_3  and  C_6
REMARK    5  A    between atoms: C_4  and  C_5
REMARK    6  A    between atoms: C_9  and  N_13
REMARK    7  A    between atoms: C_10  and  C_12
REMARK    8  A    between atoms: C_14  and  C_16
REMARK    9  A    between atoms: C_18  and  O_31
REMARK                            x       y       z     vdW  Elec       q    Type
REMARK                         _______ _______ _______ _____ _____    ______ ____
ROOT
ATOM      1  N   UNL     1       1.810  -6.162   0.872  0.00  0.00    -0.284 N 
ATOM      2  C   UNL     1       0.820  -7.053   0.669  0.00  0.00    +0.237 C 
ATOM      3  O   UNL     1      -0.310  -6.667   0.458  0.00  0.00    -0.274 OA
ATOM      4  H   UNL     1       2.725  -6.468   0.975  0.00  0.00    +0.155 HD
ENDROOT
BRANCH   2   5
ATOM      5  C   UNL     1       1.117  -8.530   0.705  0.00  0.00    +0.228 C 
ATOM      6  C   UNL     1      -0.193  -9.268   0.547  0.00  0.00    +0.125 C 
ATOM      7  C   UNL     1      -0.316 -10.159  -0.519  0.00  0.00    +0.047 A 
ATOM      8  C   UNL     1      -1.484 -10.983  -0.872  0.00  0.00    -0.025 A 
ATOM      9  C   UNL     1      -1.378 -11.774  -1.950  0.00  0.00    -0.005 A 
ATOM     10  S   UNL     1       0.252 -11.511  -2.594  0.00  0.00    -0.076 S 
ATOM     11  C   UNL     1       0.834 -10.316  -1.411  0.00  0.00    +0.105 A 
ATOM     12  N   UNL     1       1.978  -9.674  -1.277  0.00  0.00    -0.172 NA
ATOM     13  C   UNL     1       2.209  -8.806  -0.304  0.00  0.00    +0.257 C 
ATOM     14  O   UNL     1       3.282  -8.239  -0.224  0.00  0.00    -0.272 OA
ATOM     15  C   UNL     1      -2.426 -12.697  -2.502  0.00  0.00    +0.043 C 
ATOM     16  C   UNL     1      -3.515 -12.889  -1.438  0.00  0.00    +0.005 C 
ATOM     17  C   UNL     1      -3.913 -11.515  -0.889  0.00  0.00    +0.005 C 
ATOM     18  C   UNL     1      -2.770 -10.946  -0.049  0.00  0.00    +0.037 C 
BRANCH   6  19
ATOM     19  O   UNL     1      -1.206  -9.073   1.407  0.00  0.00    -0.509 OA
ATOM     20  H   UNL     1      -1.011  -8.435   2.107  0.00  0.00    +0.292 HD
ENDBRANCH   6  19
ENDBRANCH   2   5
BRANCH   1  24
ATOM     21  C   UNL     1       0.942  -2.091   1.056  0.00  0.00    +0.014 A 
ATOM     22  C   UNL     1       0.117  -2.941   0.342  0.00  0.00    +0.023 A 
ATOM     23  C   UNL     1       0.402  -4.291   0.279  0.00  0.00    +0.025 A 
ATOM     24  C   UNL     1       1.519  -4.795   0.933  0.00  0.00    +0.036 A 
ATOM     25  C   UNL     1       2.345  -3.938   1.649  0.00  0.00    -0.028 A 
ATOM     26  C   UNL     1       2.057  -2.589   1.704  0.00  0.00    +0.026 A 
ATOM     27  C   UNL     1       3.558  -4.481   2.361  0.00  0.00    +0.046 C 
BRANCH  21  28
ATOM     28  N   UNL     1       0.650  -0.725   1.118  0.00  0.00    -0.394 NA
ATOM     29  H   UNL     1       1.351  -0.257   1.671  0.00  0.00    +0.126 HD
BRANCH  28  31
ATOM     30  C   UNL     1       2.047  -0.261  -0.839  0.00  0.00    +0.022 C 
ATOM     31  C   UNL     1       0.643  -0.164  -0.240  0.00  0.00    +0.081 C 
ENDBRANCH  28  31
BRANCH  28  32
ATOM     32  C   UNL     1      -0.669  -0.534   1.734  0.00  0.00    +0.081 C 
ATOM     33  C   UNL     1      -0.628  -1.011   3.187  0.00  0.00    +0.022 C 
ENDBRANCH  28  32
ENDBRANCH  21  28
ENDBRANCH   1  24
TORSDOF 6
