REMARK  Name = ZINC23095809
REMARK  10 active torsions:
REMARK  status: ('A' for Active; 'I' for Inactive)
REMARK    1  A    between atoms: C_1  and  C_2
REMARK    2  A    between atoms: C_2  and  O_3
REMARK    3  A    between atoms: O_3  and  C_4
REMARK    4  A    between atoms: C_4  and  C_6
REMARK    5  A    between atoms: C_7  and  C_30
REMARK    6  A    between atoms: C_12  and  C_14
REMARK    7  A    between atoms: C_14  and  N_15
REMARK    8  A    between atoms: N_18  and  C_21
REMARK    9  A    between atoms: C_21  and  C_22
REMARK   10  A    between atoms: C_23  and  C_24
REMARK                            x       y       z     vdW  Elec       q    Type
REMARK                         _______ _______ _______ _____ _____    ______ ____
ROOT
ATOM      1  C   UNL     1       4.490  -1.788  -7.880  0.00  0.00    +0.180 C 
ENDROOT
BRANCH   1   8
ATOM      2  C   UNL     1       1.448  -2.344  -2.514  0.00  0.00    +0.120 A 
ATOM      3  C   UNL     1       1.663  -3.665  -2.882  0.00  0.00    +0.062 A 
ATOM      4  N   UNL     1       2.302  -3.858  -4.008  0.00  0.00    -0.229 NA
ATOM      5  C   UNL     1       2.717  -2.846  -4.748  0.00  0.00    +0.165 A 
ATOM      6  S   UNL     1       2.212  -1.492  -3.885  0.00  0.00    -0.045 S 
ATOM      7  N   UNL     1       3.400  -2.888  -5.950  0.00  0.00    -0.264 N 
ATOM      8  C   UNL     1       3.746  -1.742  -6.570  0.00  0.00    +0.233 C 
ATOM      9  O   UNL     1       3.459  -0.674  -6.073  0.00  0.00    -0.274 OA
ATOM     10  C   UNL     1       1.187  -4.815  -2.032  0.00  0.00    +0.067 C 
ATOM     11  H   UNL     1       3.630  -3.743  -6.348  0.00  0.00    +0.157 HD
BRANCH   2  12
ATOM     12  C   UNL     1       0.776  -1.800  -1.335  0.00  0.00    +0.348 C 
ATOM     13  O   UNL     1       0.312  -2.553  -0.499  0.00  0.00    -0.244 OA
BRANCH  12  14
ATOM     14  O   UNL     1       0.671  -0.465  -1.174  0.00  0.00    -0.461 OA
BRANCH  14  16
ATOM     15  C   UNL     1      -0.019   1.526   0.010  0.00  0.00    +0.048 C 
ATOM     16  C   UNL     1       0.002  -0.004   0.002  0.00  0.00    +0.229 C 
ENDBRANCH  14  16
ENDBRANCH  12  14
ENDBRANCH   2  12
ENDBRANCH   1   8
BRANCH   1  17
ATOM     17  N   UNL     1       4.747  -0.419  -8.345  0.00  0.00    -0.298 NA
ATOM     18  C   UNL     1       3.493   0.266  -8.686  0.00  0.00    +0.066 C 
ATOM     19  C   UNL     1       3.799   1.705  -9.108  0.00  0.00    -0.063 C 
ATOM     20  N   UNL     1       4.701   1.694 -10.267  0.00  0.00    +0.384 N 
ATOM     21  C   UNL     1       5.959   1.028  -9.905  0.00  0.00    -0.063 C 
ATOM     22  C   UNL     1       5.670  -0.417  -9.489  0.00  0.00    +0.066 C 
ATOM     23  H   UNL     1       4.264   1.195 -11.028  0.00  0.00    -0.081 HD
BRANCH  20  24
ATOM     24  C   UNL     1       4.980   3.074 -10.684  0.00  0.00    -0.051 C 
BRANCH  24  25
ATOM     25  C   UNL     1       5.804   3.062 -11.945  0.00  0.00    -0.045 C 
ATOM     26  C   UNL     1       5.385   3.719 -13.017  0.00  0.00    +0.002 C 
BRANCH  26  27
ATOM     27  C   UNL     1       6.194   3.707 -14.255  0.00  0.00    -0.025 A 
ATOM     28  C   UNL     1       7.396   2.999 -14.299  0.00  0.00    +0.008 A 
ATOM     29  C   UNL     1       8.146   2.992 -15.457  0.00  0.00    +0.001 A 
ATOM     30  C   UNL     1       7.709   3.684 -16.573  0.00  0.00    +0.000 A 
ATOM     31  C   UNL     1       6.518   4.387 -16.535  0.00  0.00    +0.001 A 
ATOM     32  C   UNL     1       5.755   4.397 -15.385  0.00  0.00    +0.008 A 
ENDBRANCH  26  27
ENDBRANCH  24  25
ENDBRANCH  20  24
ENDBRANCH   1  17
TORSDOF 8
