REMARK  Name = ZINC40749869
REMARK  5 active torsions:
REMARK  status: ('A' for Active; 'I' for Inactive)
REMARK    1  A    between atoms: C_1  and  O_2
REMARK    2  A    between atoms: O_2  and  C_3
REMARK    3  A    between atoms: C_6  and  S_10
REMARK    4  A    between atoms: S_10  and  N_13
REMARK    5  A    between atoms: C_21  and  N_23
REMARK                            x       y       z     vdW  Elec       q    Type
REMARK                         _______ _______ _______ _____ _____    ______ ____
ROOT
ATOM      1  S   UNL     1       2.551  -2.919  -4.437  0.00  0.00    +0.061 S 
ATOM      2  O   UNL     1       2.027  -4.240  -4.425  0.00  0.00    -0.153 OA
ATOM      3  O   UNL     1       2.454  -2.072  -5.574  0.00  0.00    -0.153 OA
ENDROOT
BRANCH   1   4
ATOM      4  N   UNL     1       4.163  -3.046  -4.078  0.00  0.00    -0.171 NA
ATOM      5  C   UNL     1       5.254  -2.099  -4.411  0.00  0.00    +0.079 C 
ATOM      6  C   UNL     1       6.427  -3.007  -4.847  0.00  0.00    +0.022 C 
ATOM      7  C   UNL     1       6.163  -4.355  -4.143  0.00  0.00    +0.022 C 
ATOM      8  C   UNL     1       4.856  -4.131  -3.341  0.00  0.00    +0.079 C 
ATOM      9  C   UNL     1       5.236  -3.574  -1.960  0.00  0.00    +0.004 C 
ATOM     10  C   UNL     1       6.239  -2.431  -2.146  0.00  0.00    -0.072 C 
ATOM     11  C   UNL     1       5.653  -1.386  -3.109  0.00  0.00    +0.004 C 
BRANCH  10  12
ATOM     12  N   UNL     1       7.495  -2.967  -2.689  0.00  0.00    +0.380 N 
ATOM     13  H   UNL     1       7.316  -3.403  -3.581  0.00  0.00    -0.090 HD
ATOM     14  H   UNL     1       8.157  -2.215  -2.810  0.00  0.00    -0.090 HD
ATOM     15  H   UNL     1       7.873  -3.650  -2.050  0.00  0.00    -0.090 HD
ENDBRANCH  10  12
ENDBRANCH   1   4
BRANCH   1  19
ATOM     16  C   UNL     1       0.584  -0.710  -1.007  0.00  0.00    +0.155 A 
ATOM     17  C   UNL     1       1.092  -0.005  -2.088  0.00  0.00    +0.050 A 
ATOM     18  C   UNL     1       1.692  -0.681  -3.133  0.00  0.00    +0.032 A 
ATOM     19  C   UNL     1       1.786  -2.061  -3.103  0.00  0.00    +0.108 A 
ATOM     20  C   UNL     1       1.280  -2.767  -2.027  0.00  0.00    +0.070 A 
ATOM     21  C   UNL     1       0.684  -2.095  -0.975  0.00  0.00    +0.167 A 
ATOM     22  F   UNL     1       0.196  -2.784   0.079  0.00  0.00    -0.202 F 
BRANCH  16  24
ATOM     23  C   UNL     1      -0.076   1.378  -0.079  0.00  0.00    +0.277 C 
ATOM     24  O   UNL     1      -0.007  -0.046   0.022  0.00  0.00    -0.492 OA
ENDBRANCH  16  24
ENDBRANCH   1  19
TORSDOF 4
