REMARK  Name = ZINC62353909
REMARK  6 active torsions:
REMARK  status: ('A' for Active; 'I' for Inactive)
REMARK    1  A    between atoms: C_1  and  C_2
REMARK    2  A    between atoms: C_7  and  C_25
REMARK    3  A    between atoms: N_9  and  C_10
REMARK    4  A    between atoms: C_10  and  C_11
REMARK    5  A    between atoms: C_11  and  C_13
REMARK    6  A    between atoms: C_11  and  O_24
REMARK                            x       y       z     vdW  Elec       q    Type
REMARK                         _______ _______ _______ _____ _____    ______ ____
ROOT
ATOM      1  C   UNL     1       2.812  -0.431   2.361  0.00  0.00    +0.128 C 
ENDROOT
BRANCH   1   2
ATOM      2  C   UNL     1       4.156   0.248   2.411  0.00  0.00    -0.019 A 
ATOM      3  C   UNL     1       4.283   1.482   3.022  0.00  0.00    +0.010 A 
ATOM      4  C   UNL     1       5.514   2.111   3.072  0.00  0.00    +0.048 A 
ATOM      5  C   UNL     1       6.623   1.504   2.509  0.00  0.00    +0.142 A 
ATOM      6  C   UNL     1       6.494   0.260   1.892  0.00  0.00    +0.076 A 
ATOM      7  C   UNL     1       5.260  -0.367   1.850  0.00  0.00    +0.033 A 
ATOM      8  N   UNL     1       7.625  -0.343   1.323  0.00  0.00    -0.280 N 
ATOM      9  C   UNL     1       8.850   0.123   1.650  0.00  0.00    +0.255 C 
ATOM     10  O   UNL     1       9.841  -0.363   1.146  0.00  0.00    -0.272 OA
ATOM     11  C   UNL     1       8.980   1.249   2.644  0.00  0.00    +0.325 C 
ATOM     12  O   UNL     1       7.840   2.107   2.550  0.00  0.00    -0.481 OA
ATOM     13  H   UNL     1       7.529  -1.084   0.704  0.00  0.00    +0.155 HD
ENDBRANCH   1   2
BRANCH   1  14
ATOM     14  O   UNL     1       2.086  -0.139   3.558  0.00  0.00    -0.389 OA
ATOM     15  H   UNL     1       1.925   0.804   3.699  0.00  0.00    +0.210 HD
ENDBRANCH   1  14
BRANCH   1  16
ATOM     16  C   UNL     1       2.027   0.080   1.151  0.00  0.00    -0.042 C 
BRANCH  16  23
ATOM     17  C   UNL     1       2.101  -2.372  -0.216  0.00  0.00    -0.013 C 
ATOM     18  C   UNL     1       1.123  -2.130   0.936  0.00  0.00    -0.071 C 
ATOM     19  C   UNL     1      -0.152  -2.942   0.701  0.00  0.00    -0.016 C 
ATOM     20  C   UNL     1      -1.127  -2.697   1.856  0.00  0.00    -0.003 C 
ATOM     21  C   UNL     1      -1.407  -1.196   1.965  0.00  0.00    -0.016 C 
ATOM     22  C   UNL     1      -0.086  -0.448   2.153  0.00  0.00    -0.071 C 
ATOM     23  N   UNL     1       0.792  -0.702   1.004  0.00  0.00    +0.385 N 
ATOM     24  C   UNL     1      -0.360   1.053   2.262  0.00  0.00    -0.013 C 
ATOM     25  H   UNL     1       0.321  -0.426   0.155  0.00  0.00    -0.081 HD
ENDBRANCH  16  23
ENDBRANCH   1  16
TORSDOF 4
