REMARK  Name = ZINC51153334
REMARK  4 active torsions:
REMARK  status: ('A' for Active; 'I' for Inactive)
REMARK    1  A    between atoms: C_6  and  C_7
REMARK    2  A    between atoms: C_7  and  C_8
REMARK    3  A    between atoms: C_12  and  N_14
REMARK    4  A    between atoms: N_14  and  N_15
REMARK                            x       y       z     vdW  Elec       q    Type
REMARK                         _______ _______ _______ _____ _____    ______ ____
ROOT
ATOM      1  C   UNL     1      -1.738  -1.024  -1.408  0.00  0.00    +0.136 A 
ATOM      2  N   UNL     1      -2.511  -0.140  -2.001  0.00  0.00    -0.236 NA
ATOM      3  C   UNL     1      -2.927  -0.316  -3.253  0.00  0.00    +0.050 A 
ATOM      4  C   UNL     1      -2.535  -1.443  -3.932  0.00  0.00    +0.015 A 
ATOM      5  C   UNL     1      -1.716  -2.367  -3.272  0.00  0.00    +0.139 A 
ATOM      6  N   UNL     1      -1.339  -2.119  -2.022  0.00  0.00    -0.216 NA
ATOM      7  C   UNL     1      -2.941  -1.724  -5.352  0.00  0.00    +0.040 C 
ATOM      8  C   UNL     1      -4.140  -0.862  -5.745  0.00  0.00    +0.005 C 
ATOM      9  C   UNL     1      -3.828   0.596  -5.389  0.00  0.00    +0.006 C 
ATOM     10  C   UNL     1      -3.815   0.732  -3.868  0.00  0.00    +0.056 C 
ENDROOT
BRANCH   5  11
ATOM     11  N   UNL     1      -1.301  -3.522  -3.914  0.00  0.00    -0.267 N 
ATOM     12  H   UNL     1      -1.577  -3.695  -4.828  0.00  0.00    +0.167 HD
BRANCH  11  13
ATOM     13  N   UNL     1      -0.501  -4.417  -3.262  0.00  0.00    -0.255 NA
ATOM     14  H   UNL     1      -0.282  -5.205  -3.853  0.00  0.00    +0.140 HD
ATOM     15  H   UNL     1       0.339  -3.973  -2.925  0.00  0.00    +0.140 HD
ENDBRANCH  11  13
ENDBRANCH   5  11
BRANCH   1  16
ATOM     16  C   UNL     1      -1.293  -0.775   0.010  0.00  0.00    +0.111 C 
BRANCH  16  22
ATOM     17  C   UNL     1      -0.017   1.378   0.010  0.00  0.00    +0.005 A 
ATOM     18  C   UNL     1       1.171   2.086   0.002  0.00  0.00    +0.015 A 
ATOM     19  C   UNL     1       2.378   1.411  -0.013  0.00  0.00    +0.018 A 
ATOM     20  C   UNL     1       2.396   0.027  -0.021  0.00  0.00    +0.015 A 
ATOM     21  C   UNL     1       1.208  -0.679  -0.013  0.00  0.00    +0.005 A 
ATOM     22  C   UNL     1       0.002  -0.004   0.002  0.00  0.00    -0.040 A 
ATOM     23 BR   UNL     1       4.003   2.378  -0.024  0.00  0.00    -0.050 Br
ENDBRANCH  16  22
ENDBRANCH   1  16
TORSDOF 4
