REMARK  Name = ZINC43686723
REMARK  6 active torsions:
REMARK  status: ('A' for Active; 'I' for Inactive)
REMARK    1  A    between atoms: C_3  and  O_12
REMARK    2  A    between atoms: C_4  and  N_9
REMARK    3  A    between atoms: C_6  and  C_7
REMARK    4  A    between atoms: C_7  and  N_8
REMARK    5  A    between atoms: O_12  and  C_13
REMARK    6  A    between atoms: C_13  and  C_14
REMARK                            x       y       z     vdW  Elec       q    Type
REMARK                         _______ _______ _______ _____ _____    ______ ____
ROOT
ATOM      1  C   UNL     1      -0.017   1.378   0.010  0.00  0.00    +0.005 A 
ATOM      2  C   UNL     1       1.170   2.086   0.002  0.00  0.00    +0.048 A 
ATOM      3  C   UNL     1       2.380   1.409  -0.013  0.00  0.00    +0.151 A 
ATOM      4  C   UNL     1       2.396   0.022  -0.021  0.00  0.00    +0.168 A 
ATOM      5  C   UNL     1       1.208  -0.681  -0.013  0.00  0.00    +0.038 A 
ATOM      6  C   UNL     1       0.002  -0.004   0.002  0.00  0.00    -0.062 A 
ENDROOT
BRANCH   4   7
ATOM      7  N   UNL     1       3.686  -0.704  -0.037  0.00  0.00    +0.060 N 
ATOM      8  O   UNL     1       3.700  -1.913  -0.044  0.00  0.00    -0.126 OA
ATOM      9  O   UNL     1       4.726  -0.088  -0.044  0.00  0.00    -0.126 OA
ENDBRANCH   4   7
BRANCH   6  10
ATOM     10  C   UNL     1      -1.293  -0.774   0.011  0.00  0.00    -0.051 C 
BRANCH  10  11
ATOM     11  N   UNL     1      -1.728  -1.017  -1.371  0.00  0.00    +0.381 N 
ATOM     12  H   UNL     1      -1.864  -0.134  -1.841  0.00  0.00    -0.090 HD
ATOM     13  H   UNL     1      -1.023  -1.550  -1.857  0.00  0.00    -0.090 HD
ATOM     14  H   UNL     1      -2.595  -1.532  -1.366  0.00  0.00    -0.090 HD
ENDBRANCH  10  11
ENDBRANCH   6  10
BRANCH   3  15
ATOM     15  O   UNL     1       3.548   2.104  -0.021  0.00  0.00    -0.485 OA
BRANCH  15  16
ATOM     16  C   UNL     1       3.456   3.530  -0.013  0.00  0.00    +0.271 C 
BRANCH  16  17
ATOM     17  C   UNL     1       4.841   4.123  -0.023  0.00  0.00    +0.028 A 
ATOM     18  C   UNL     1       5.613   4.470  -1.082  0.00  0.00    +0.029 A 
ATOM     19  C   UNL     1       6.867   5.003  -0.851  0.00  0.00    +0.025 A 
ATOM     20  C   UNL     1       7.287   5.165   0.428  0.00  0.00    +0.060 A 
ATOM     21  S   UNL     1       5.887   4.559   1.356  0.00  0.00    -0.097 S 
ATOM     22 BR   UNL     1       7.980   5.501  -2.297  0.00  0.00    -0.050 Br
ENDBRANCH  16  17
ENDBRANCH  15  16
ENDBRANCH   3  15
TORSDOF 6
