REMARK  Name = ZINC63806751
REMARK  8 active torsions:
REMARK  status: ('A' for Active; 'I' for Inactive)
REMARK    1  A    between atoms: C_1  and  C_2
REMARK    2  A    between atoms: C_2  and  C_3
REMARK    3  A    between atoms: C_2  and  C_4
REMARK    4  A    between atoms: C_7  and  N_10
REMARK    5  A    between atoms: C_11  and  C_13
REMARK    6  A    between atoms: C_13  and  N_14
REMARK    7  A    between atoms: C_17  and  C_22
REMARK    8  A    between atoms: C_22  and  C_23
REMARK                            x       y       z     vdW  Elec       q    Type
REMARK                         _______ _______ _______ _____ _____    ______ ____
ROOT
ATOM      1  N   UNL     1      -7.495  -3.822  -2.292  0.00  0.00    -0.216 N 
ATOM      2  C   UNL     1      -7.891  -3.247  -3.444  0.00  0.00    +0.244 C 
ATOM      3  O   UNL     1      -8.092  -2.067  -3.643  0.00  0.00    -0.273 OA
ATOM      4  C   UNL     1      -8.032  -4.380  -4.441  0.00  0.00    +0.165 C 
ATOM      5  N   UNL     1      -7.665  -5.574  -3.662  0.00  0.00    -0.287 N 
ATOM      6  C   UNL     1      -7.363  -5.147  -2.422  0.00  0.00    +0.310 C 
ATOM      7  O   UNL     1      -7.013  -5.883  -1.520  0.00  0.00    -0.252 OA
ATOM      8  H   UNL     1      -7.642  -6.490  -3.981  0.00  0.00    +0.151 HD
ENDROOT
BRANCH   1   9
ATOM      9  C   UNL     1      -7.236  -3.087  -1.052  0.00  0.00    +0.214 C 
BRANCH   9  11
ATOM     10  N   UNL     1      -5.320  -1.968   0.042  0.00  0.00    -0.284 N 
ATOM     11  C   UNL     1      -5.790  -2.663  -1.013  0.00  0.00    +0.235 C 
ATOM     12  O   UNL     1      -5.050  -2.946  -1.931  0.00  0.00    -0.274 OA
ATOM     13  H   UNL     1      -5.891  -1.807   0.810  0.00  0.00    +0.155 HD
BRANCH  10  17
ATOM     14  C   UNL     1      -1.418  -0.509   0.005  0.00  0.00    -0.045 A 
ATOM     15  C   UNL     1      -2.137  -0.586  -1.174  0.00  0.00    +0.006 A 
ATOM     16  C   UNL     1      -3.431  -1.069  -1.165  0.00  0.00    +0.023 A 
ATOM     17  C   UNL     1      -4.010  -1.478   0.030  0.00  0.00    +0.033 A 
ATOM     18  C   UNL     1      -3.284  -1.400   1.212  0.00  0.00    +0.023 A 
ATOM     19  C   UNL     1      -1.989  -0.920   1.195  0.00  0.00    +0.006 A 
BRANCH  14  21
ATOM     20  C   UNL     1       0.857  -0.856  -0.919  0.00  0.00    +0.012 C 
ATOM     21  C   UNL     1      -0.007   0.019  -0.009  0.00  0.00    +0.013 C 
ATOM     22  C   UNL     1      -0.005   1.457  -0.532  0.00  0.00    +0.012 C 
ENDBRANCH  14  21
ENDBRANCH  10  17
ENDBRANCH   9  11
ENDBRANCH   1   9
BRANCH   4  23
ATOM     23  C   UNL     1      -7.073  -4.185  -5.617  0.00  0.00    +0.065 C 
BRANCH  23  24
ATOM     24  C   UNL     1      -7.320  -5.255  -6.649  0.00  0.00    -0.039 C 
ATOM     25  C   UNL     1      -8.104  -5.160  -7.748  0.00  0.00    -0.001 A 
ATOM     26  C   UNL     1      -8.930  -4.075  -8.289  0.00  0.00    +0.010 A 
ATOM     27  C   UNL     1      -9.619  -4.283  -9.434  0.00  0.00    +0.001 A 
ATOM     28  C   UNL     1      -9.563  -5.507 -10.116  0.00  0.00    +0.002 A 
ATOM     29  C   UNL     1      -8.825  -6.551  -9.681  0.00  0.00    +0.026 A 
ATOM     30  C   UNL     1      -8.061  -6.442  -8.486  0.00  0.00    +0.043 A 
ATOM     31  N   UNL     1      -7.281  -7.296  -7.869  0.00  0.00    -0.380 N 
ATOM     32  C   UNL     1      -6.736  -6.650  -6.670  0.00  0.00    +0.144 C 
ATOM     33  H   UNL     1      -7.093  -8.203  -8.158  0.00  0.00    +0.160 HD
ENDBRANCH  23  24
ENDBRANCH   4  23
TORSDOF 6
