REMARK  Name = ZINC61812900
REMARK  6 active torsions:
REMARK  status: ('A' for Active; 'I' for Inactive)
REMARK    1  A    between atoms: C_1  and  C_2
REMARK    2  A    between atoms: C_2  and  C_3
REMARK    3  A    between atoms: C_4  and  C_18
REMARK    4  A    between atoms: N_8  and  C_9
REMARK    5  A    between atoms: C_13  and  C_15
REMARK    6  A    between atoms: C_15  and  N_17
REMARK                            x       y       z     vdW  Elec       q    Type
REMARK                         _______ _______ _______ _____ _____    ______ ____
ROOT
ATOM      1  C   UNL     1       4.409  -1.950  -3.723  0.00  0.00    +0.036 A 
ATOM      2  C   UNL     1       3.815  -1.588  -4.932  0.00  0.00    +0.041 A 
ATOM      3  C   UNL     1       4.280  -2.147  -6.108  0.00  0.00    +0.085 A 
ATOM      4  N   UNL     1       5.271  -3.014  -6.101  0.00  0.00    -0.359 N 
ATOM      5  C   UNL     1       5.867  -3.388  -4.974  0.00  0.00    +0.069 A 
ATOM      6  C   UNL     1       5.460  -2.865  -3.750  0.00  0.00    +0.051 A 
ATOM      7  H   UNL     1       5.575  -3.389  -6.943  0.00  0.00    +0.165 HD
ENDROOT
BRANCH   1  13
ATOM      8  C   UNL     1       0.743  -0.275  -1.323  0.00  0.00    +0.053 A 
ATOM      9  C   UNL     1       0.036  -0.705  -2.397  0.00  0.00    +0.011 A 
ATOM     10  S   UNL     1       1.338  -1.419  -3.388  0.00  0.00    -0.057 S 
ATOM     11  C   UNL     1       2.623  -1.102  -2.349  0.00  0.00    +0.163 A 
ATOM     12  N   UNL     1       2.046  -0.488  -1.337  0.00  0.00    -0.229 NA
ATOM     13  N   UNL     1       3.966  -1.407  -2.520  0.00  0.00    -0.294 N 
ATOM     14  C   UNL     1      -1.441  -0.607  -2.676  0.00  0.00    +0.053 C 
ATOM     15  H   UNL     1       4.596  -1.242  -1.801  0.00  0.00    +0.154 HD
BRANCH   8  17
ATOM     16  C   UNL     1       0.046   1.928  -0.424  0.00  0.00    +0.010 C 
ATOM     17  C   UNL     1       0.072   0.420  -0.167  0.00  0.00    +0.053 C 
ENDBRANCH   8  17
ENDBRANCH   1  13
BRANCH   5  18
ATOM     18  C   UNL     1       6.976  -4.365  -5.021  0.00  0.00    +0.093 C 
ATOM     19  S   UNL     1       8.283  -4.231  -3.923  0.00  0.00    -0.034 S 
BRANCH  18  20
ATOM     20  N   UNL     1       6.958  -5.362  -5.928  0.00  0.00    -0.351 N 
ATOM     21  H   UNL     1       6.218  -5.438  -6.550  0.00  0.00    +0.143 HD
ATOM     22  H   UNL     1       7.686  -6.003  -5.959  0.00  0.00    +0.143 HD
ENDBRANCH  18  20
ENDBRANCH   5  18
TORSDOF 4
