REMARK  Name = ZINC35012034
REMARK  6 active torsions:
REMARK  status: ('A' for Active; 'I' for Inactive)
REMARK    1  A    between atoms: C_1  and  C_2
REMARK    2  A    between atoms: N_8  and  C_9
REMARK    3  A    between atoms: C_9  and  C_10
REMARK    4  A    between atoms: C_10  and  C_11
REMARK    5  A    between atoms: C_11  and  N_12
REMARK    6  A    between atoms: N_12  and  C_13
REMARK                            x       y       z     vdW  Elec       q    Type
REMARK                         _______ _______ _______ _____ _____    ______ ____
ROOT
ATOM      1  N   UNL     1       0.985  -0.178   6.072  0.00  0.00    +0.381 N 
ATOM      2  H   UNL     1       1.026  -1.184   6.134  0.00  0.00    -0.086 HD
ATOM      3  H   UNL     1       1.921   0.193   5.996  0.00  0.00    -0.086 HD
ENDROOT
BRANCH   1   4
ATOM      4  C   UNL     1       0.342   0.362   7.277  0.00  0.00    -0.072 C 
ATOM      5  C   UNL     1       0.392   1.891   7.241  0.00  0.00    -0.015 C 
ATOM      6  C   UNL     1      -0.279   2.452   8.497  0.00  0.00    +0.002 C 
ATOM      7  C   UNL     1       0.459   1.947   9.738  0.00  0.00    -0.008 C 
ATOM      8  C   UNL     1       1.917   2.409   9.688  0.00  0.00    +0.004 C 
ATOM      9  C   UNL     1       2.655   1.903  10.930  0.00  0.00    +0.000 C 
ATOM     10  C   UNL     1       2.605   0.374  10.966  0.00  0.00    +0.000 C 
ATOM     11  C   UNL     1       1.147  -0.087  11.016  0.00  0.00    +0.004 C 
ATOM     12  C   UNL     1       0.409   0.418   9.774  0.00  0.00    -0.009 C 
ATOM     13  C   UNL     1       1.079  -0.144   8.519  0.00  0.00    -0.012 C 
ENDBRANCH   1   4
BRANCH   1  14
ATOM     14  C   UNL     1       0.207   0.209   4.887  0.00  0.00    -0.084 C 
BRANCH  14  15
ATOM     15  C   UNL     1       0.877  -0.353   3.631  0.00  0.00    -0.038 C 
BRANCH  15  16
ATOM     16  C   UNL     1       0.067   0.050   2.397  0.00  0.00    -0.080 C 
BRANCH  16  23
ATOM     17  C   UNL     1      -0.019   1.526   0.010  0.00  0.00    -0.013 C 
ATOM     18  C   UNL     1       0.002  -0.004   0.002  0.00  0.00    -0.072 C 
ATOM     19  C   UNL     1       0.717  -0.497  -1.258  0.00  0.00    -0.016 C 
ATOM     20  C   UNL     1       0.735  -2.028  -1.262  0.00  0.00    -0.003 C 
ATOM     21  C   UNL     1       1.410  -2.524   0.020  0.00  0.00    -0.019 C 
ATOM     22  C   UNL     1       0.669  -1.956   1.232  0.00  0.00    -0.078 C 
ATOM     23  N   UNL     1       0.711  -0.490   1.192  0.00  0.00    +0.381 N 
ATOM     24  H   UNL     1       1.671  -0.182   1.159  0.00  0.00    -0.081 HD
ENDBRANCH  16  23
ENDBRANCH  15  16
ENDBRANCH  14  15
ENDBRANCH   1  14
TORSDOF 5
