REMARK  Name = ZINC29469100
REMARK  9 active torsions:
REMARK  status: ('A' for Active; 'I' for Inactive)
REMARK    1  A    between atoms: C_1  and  C_2
REMARK    2  A    between atoms: C_15  and  C_17
REMARK    3  A    between atoms: C_17  and  S_18
REMARK    4  A    between atoms: S_18  and  C_19
REMARK    5  A    between atoms: N_20  and  C_21
REMARK    6  A    between atoms: C_21  and  C_23
REMARK    7  A    between atoms: C_21  and  C_24
REMARK    8  A    between atoms: C_24  and  O_25
REMARK    9  A    between atoms: O_25  and  C_26
REMARK                            x       y       z     vdW  Elec       q    Type
REMARK                         _______ _______ _______ _____ _____    ______ ____
ROOT
ATOM      1  C   UNL     1       3.935  -3.727   6.267  0.00  0.00    +0.029 C 
ATOM      2  C   UNL     1       2.551  -3.236   6.697  0.00  0.00    +0.087 C 
ATOM      3  C   UNL     1       1.678  -4.435   7.087  0.00  0.00    +0.118 C 
ATOM      4  C   UNL     1       0.227  -4.034   7.122  0.00  0.00    +0.219 C 
ATOM      5  O   UNL     1      -0.326  -3.867   8.188  0.00  0.00    -0.275 OA
ATOM      6  N   UNL     1      -0.463  -3.859   5.974  0.00  0.00    -0.284 N 
ATOM      7  C   UNL     1       0.184  -3.954   4.736  0.00  0.00    +0.055 A 
ATOM      8  C   UNL     1      -0.355  -4.710   3.709  0.00  0.00    +0.025 A 
ATOM      9  C   UNL     1       0.272  -4.743   2.477  0.00  0.00    +0.002 A 
ATOM     10  C   UNL     1       1.436  -4.026   2.268  0.00  0.00    +0.002 A 
ATOM     11  C   UNL     1       1.987  -3.278   3.292  0.00  0.00    +0.025 A 
ATOM     12  C   UNL     1       1.369  -3.246   4.532  0.00  0.00    +0.058 A 
ATOM     13  N   UNL     1       1.925  -2.512   5.589  0.00  0.00    -0.266 N 
ATOM     14  C   UNL     1       1.890  -1.165   5.582  0.00  0.00    +0.230 C 
ATOM     15  O   UNL     1       2.374  -0.541   6.503  0.00  0.00    -0.274 OA
ATOM     16  H   UNL     1      -1.540  -3.641   6.007  0.00  0.00    +0.155 HD
ENDROOT
BRANCH  14  17
ATOM     17  C   UNL     1       1.248  -0.434   4.432  0.00  0.00    +0.173 C 
BRANCH  17  18
ATOM     18  S   UNL     1       1.359   1.351   4.714  0.00  0.00    -0.084 S 
BRANCH  18  19
ATOM     19  C   UNL     1       0.556   1.941   3.261  0.00  0.00    +0.126 C 
ATOM     20  N   UNL     1       0.098   1.095   2.380  0.00  0.00    -0.363 N 
ATOM     21  N   UNL     1       0.412   3.294   3.055  0.00  0.00    -0.339 N 
ATOM     22  H   UNL     1      -0.089   3.662   2.148  0.00  0.00    +0.144 HD
ATOM     23  H   UNL     1       0.799   4.007   3.799  0.00  0.00    +0.144 HD
ATOM     24  H   UNL     1       0.099   0.018   2.600  0.00  0.00    +0.162 HD
BRANCH  20  25
ATOM     25  C   UNL     1      -0.417   1.581   1.097  0.00  0.00    +0.103 C 
ATOM     26  C   UNL     1       0.294   0.853  -0.046  0.00  0.00    +0.032 C 
BRANCH  25  27
ATOM     27  C   UNL     1      -1.921   1.312   1.016  0.00  0.00    +0.183 C 
BRANCH  27  28
ATOM     28  O   UNL     1      -2.152  -0.099   1.007  0.00  0.00    -0.381 OA
ATOM     29  C   UNL     1      -3.533  -0.461   0.933  0.00  0.00    +0.194 C 
ENDBRANCH  27  28
ENDBRANCH  25  27
ENDBRANCH  20  25
ENDBRANCH  18  19
ENDBRANCH  17  18
ENDBRANCH  14  17
TORSDOF 6
