REMARK  Name = ZINC61841900
REMARK  5 active torsions:
REMARK  status: ('A' for Active; 'I' for Inactive)
REMARK    1  A    between atoms: C_6  and  C_7
REMARK    2  A    between atoms: C_7  and  C_9
REMARK    3  A    between atoms: C_7  and  N_11
REMARK    4  A    between atoms: C_9  and  N_10
REMARK    5  A    between atoms: C_14  and  C_16
REMARK                            x       y       z     vdW  Elec       q    Type
REMARK                         _______ _______ _______ _____ _____    ______ ____
ROOT
ATOM      1  C   UNL     1      -1.293  -0.775   0.010  0.00  0.00    +0.121 C 
ENDROOT
BRANCH   1   7
ATOM      2  C   UNL     1       1.203  -0.867   0.177  0.00  0.00    +0.007 A 
ATOM      3  C   UNL     1       2.440  -0.252   0.219  0.00  0.00    +0.015 A 
ATOM      4  C   UNL     1       2.531   1.126   0.140  0.00  0.00    +0.018 A 
ATOM      5  C   UNL     1       1.383   1.888   0.019  0.00  0.00    +0.015 A 
ATOM      6  C   UNL     1       0.146   1.273  -0.023  0.00  0.00    +0.007 A 
ATOM      7  C   UNL     1       0.056  -0.104   0.056  0.00  0.00    -0.025 A 
ATOM      8 BR   UNL     1       4.223   1.967   0.198  0.00  0.00    -0.050 Br
ENDBRANCH   1   7
BRANCH   1   9
ATOM      9  N   UNL     1      -1.426  -1.520  -1.244  0.00  0.00    -0.245 N 
ATOM     10  C   UNL     1      -0.448  -2.175  -1.899  0.00  0.00    +0.221 A 
ATOM     11  N   UNL     1      -0.961  -2.711  -2.973  0.00  0.00    -0.206 NA
ATOM     12  C   UNL     1      -2.270  -2.422  -3.045  0.00  0.00    +0.252 A 
ATOM     13  N   UNL     1      -2.599  -1.695  -1.997  0.00  0.00    -0.138 NA
BRANCH  12  14
ATOM     14  C   UNL     1      -3.162  -2.839  -4.085  0.00  0.00    +0.142 C 
ATOM     15  N   UNL     1      -3.869  -3.170  -4.910  0.00  0.00    -0.188 NA
ENDBRANCH  12  14
ENDBRANCH   1   9
BRANCH   1  16
ATOM     16  C   UNL     1      -1.424  -1.738   1.192  0.00  0.00    -0.054 C 
BRANCH  16  17
ATOM     17  N   UNL     1      -1.410  -0.978   2.448  0.00  0.00    +0.380 N 
ATOM     18  H   UNL     1      -1.496  -1.613   3.227  0.00  0.00    -0.090 HD
ATOM     19  H   UNL     1      -0.542  -0.469   2.524  0.00  0.00    -0.090 HD
ATOM     20  H   UNL     1      -2.183  -0.328   2.456  0.00  0.00    -0.090 HD
ENDBRANCH  16  17
ENDBRANCH   1  16
TORSDOF 5
