REMARK  Name = ZINC05698264
REMARK  7 active torsions:
REMARK  status: ('A' for Active; 'I' for Inactive)
REMARK    1  A    between atoms: C_1  and  C_2
REMARK    2  A    between atoms: C_5  and  C_24
REMARK    3  A    between atoms: C_6  and  O_8
REMARK    4  A    between atoms: O_8  and  C_9
REMARK    5  A    between atoms: C_9  and  C_10
REMARK    6  A    between atoms: N_12  and  C_13
REMARK    7  A    between atoms: C_14  and  C_21
REMARK                            x       y       z     vdW  Elec       q    Type
REMARK                         _______ _______ _______ _____ _____    ______ ____
ROOT
ATOM      1  C   UNL     1       0.063  -2.932   4.751  0.00  0.00    +0.255 C 
ATOM      2  O   UNL     1       0.078  -4.133   4.584  0.00  0.00    -0.272 OA
ATOM      3  N   UNL     1       0.062  -2.425   6.000  0.00  0.00    -0.277 N 
ATOM      4  H   UNL     1       0.050  -1.465   6.134  0.00  0.00    +0.155 HD
ENDROOT
BRANCH   3   5
ATOM      5  C   UNL     1       0.078  -3.277   7.094  0.00  0.00    +0.084 A 
ATOM      6  C   UNL     1       0.074  -2.940   8.434  0.00  0.00    +0.068 A 
ATOM      7  C   UNL     1       0.094  -4.037   9.401  0.00  0.00    -0.023 A 
ATOM      8  C   UNL     1       0.115  -5.260   8.843  0.00  0.00    -0.004 A 
ATOM      9  S   UNL     1       0.100  -4.954   7.094  0.00  0.00    -0.077 S 
ATOM     10  C   UNL     1       0.139  -6.350   9.880  0.00  0.00    +0.043 C 
ATOM     11  C   UNL     1       0.562  -5.638  11.184  0.00  0.00    +0.010 C 
ATOM     12  C   UNL     1       0.094  -4.193  10.921  0.00  0.00    +0.037 C 
BRANCH   6  13
ATOM     13  C   UNL     1       0.052  -1.540   8.869  0.00  0.00    +0.244 C 
ATOM     14  O   UNL     1      -1.012  -0.976   9.051  0.00  0.00    -0.270 OA
ATOM     15  N   UNL     1       1.208  -0.877   9.067  0.00  0.00    -0.325 N 
ATOM     16  H   UNL     1       2.056  -1.326   8.922  0.00  0.00    +0.145 HD
ATOM     17  H   UNL     1       1.193   0.049   9.354  0.00  0.00    +0.145 HD
ENDBRANCH   6  13
ENDBRANCH   3   5
BRANCH   1  18
ATOM     18  C   UNL     1       0.045  -2.006   3.562  0.00  0.00    +0.324 C 
BRANCH  18  19
ATOM     19  O   UNL     1       0.050  -2.776   2.358  0.00  0.00    -0.482 OA
BRANCH  19  25
ATOM     20  C   UNL     1      -0.018   1.503   0.010  0.00  0.00    +0.044 C 
ATOM     21  C   UNL     1       0.002  -0.004   0.002  0.00  0.00    -0.047 A 
ATOM     22  C   UNL     1       0.006  -0.688  -1.200  0.00  0.00    +0.004 A 
ATOM     23  C   UNL     1       0.024  -2.071  -1.211  0.00  0.00    +0.007 A 
ATOM     24  C   UNL     1       0.039  -2.772  -0.020  0.00  0.00    -0.009 A 
ATOM     25  C   UNL     1       0.035  -2.088   1.186  0.00  0.00    +0.124 A 
ATOM     26  C   UNL     1       0.023  -0.700   1.195  0.00  0.00    +0.049 A 
ATOM     27  C   UNL     1       0.059  -4.279  -0.033  0.00  0.00    +0.047 C 
ENDBRANCH  19  25
ENDBRANCH  18  19
ENDBRANCH   1  18
TORSDOF 5
