REMARK  Name = ZINC51145843
REMARK  8 active torsions:
REMARK  status: ('A' for Active; 'I' for Inactive)
REMARK    1  A    between atoms: C_1  and  N_2
REMARK    2  A    between atoms: N_2  and  C_3
REMARK    3  A    between atoms: N_2  and  C_10
REMARK    4  A    between atoms: C_3  and  C_4
REMARK    5  A    between atoms: C_10  and  C_11
REMARK    6  A    between atoms: C_13  and  N_19
REMARK    7  A    between atoms: C_16  and  N_17
REMARK    8  A    between atoms: N_17  and  N_18
REMARK                            x       y       z     vdW  Elec       q    Type
REMARK                         _______ _______ _______ _____ _____    ______ ____
ROOT
ATOM      1  C   UNL     1      -0.252   0.021  -2.413  0.00  0.00    -0.040 A 
ATOM      2  C   UNL     1       0.250   0.987  -3.262  0.00  0.00    +0.036 A 
ATOM      3  C   UNL     1      -0.512   1.442  -4.322  0.00  0.00    +0.126 A 
ATOM      4  C   UNL     1      -1.779   0.931  -4.536  0.00  0.00    +0.034 A 
ATOM      5  C   UNL     1      -2.287  -0.035  -3.691  0.00  0.00    +0.026 A 
ATOM      6  C   UNL     1      -1.522  -0.499  -2.628  0.00  0.00    +0.042 A 
ENDROOT
BRANCH   3   7
ATOM      7  N   UNL     1       0.029   2.478  -5.230  0.00  0.00    +0.056 N 
ATOM      8  O   UNL     1       1.137   2.926  -5.044  0.00  0.00    -0.126 OA
ATOM      9  O   UNL     1      -0.636   2.877  -6.157  0.00  0.00    -0.126 OA
ENDBRANCH   3   7
BRANCH   6  10
ATOM     10  N   UNL     1      -2.031  -1.480  -1.775  0.00  0.00    -0.283 N 
ATOM     11  H   UNL     1      -1.470  -1.854  -1.077  0.00  0.00    +0.166 HD
BRANCH  10  12
ATOM     12  N   UNL     1      -3.317  -1.915  -1.924  0.00  0.00    -0.257 NA
ATOM     13  H   UNL     1      -3.478  -2.254  -2.860  0.00  0.00    +0.140 HD
ATOM     14  H   UNL     1      -3.542  -2.621  -1.239  0.00  0.00    +0.140 HD
ENDBRANCH  10  12
ENDBRANCH   6  10
BRANCH   1  15
ATOM     15  C   UNL     1       0.580  -0.474  -1.258  0.00  0.00    -0.041 C 
BRANCH  15  17
ATOM     16  C   UNL     1       0.254   1.546  -0.006  0.00  0.00    -0.095 C 
ATOM     17  N   UNL     1       0.061   0.089  -0.004  0.00  0.00    +0.383 N 
ATOM     18  H   UNL     1      -0.923  -0.120   0.077  0.00  0.00    -0.081 HD
BRANCH  17  19
ATOM     19  C   UNL     1       0.782  -0.499   1.132  0.00  0.00    -0.042 C 
BRANCH  19  20
ATOM     20  C   UNL     1       0.170  -0.014   2.421  0.00  0.00    -0.056 A 
ATOM     21  C   UNL     1       0.628   1.142   3.025  0.00  0.00    +0.024 A 
ATOM     22  C   UNL     1       0.054   1.550   4.184  0.00  0.00    +0.055 A 
ATOM     23  S   UNL     1      -1.173   0.282   4.455  0.00  0.00    -0.090 S 
ATOM     24  C   UNL     1      -0.842  -0.703   3.003  0.00  0.00    +0.048 A 
ATOM     25 BR   UNL     1       0.452   3.068   5.240  0.00  0.00    -0.043 Br
ENDBRANCH  19  20
ENDBRANCH  17  19
ENDBRANCH  15  17
ENDBRANCH   1  15
TORSDOF 7
