REMARK  Name = ZINC67536023
REMARK  11 active torsions:
REMARK  status: ('A' for Active; 'I' for Inactive)
REMARK    1  A    between atoms: C_1  and  C_2
REMARK    2  A    between atoms: C_3  and  C_9
REMARK    3  A    between atoms: C_4  and  C_8
REMARK    4  A    between atoms: N_5  and  C_7
REMARK    5  A    between atoms: C_9  and  C_11
REMARK    6  A    between atoms: C_9  and  N_12
REMARK    7  A    between atoms: N_15  and  C_16
REMARK    8  A    between atoms: C_16  and  C_17
REMARK    9  A    between atoms: C_17  and  N_18
REMARK   10  A    between atoms: N_18  and  C_19
REMARK   11  A    between atoms: C_24  and  N_25
REMARK                            x       y       z     vdW  Elec       q    Type
REMARK                         _______ _______ _______ _____ _____    ______ ____
ROOT
ATOM      1  N   UNL     1      -0.267   1.877  -3.304  0.00  0.00    -0.293 N 
ATOM      2  C   UNL     1       0.442   1.989  -4.445  0.00  0.00    +0.300 C 
ATOM      3  O   UNL     1       0.132   1.332  -5.420  0.00  0.00    -0.253 OA
ATOM      4  N   UNL     1       1.494   2.829  -4.505  0.00  0.00    -0.298 N 
ATOM      5  H   UNL     1      -0.019   2.400  -2.526  0.00  0.00    +0.151 HD
ATOM      6  H   UNL     1       1.741   3.353  -3.727  0.00  0.00    +0.150 HD
ENDROOT
BRANCH   1   7
ATOM      7  C   UNL     1      -1.410   0.963  -3.239  0.00  0.00    +0.105 C 
ATOM      8  C   UNL     1      -2.659   1.670  -3.771  0.00  0.00    +0.033 C 
BRANCH   7  11
ATOM      9  C   UNL     1      -1.405   2.883  -0.717  0.00  0.00    +0.068 C 
ATOM     10  C   UNL     1      -1.639   1.394  -0.695  0.00  0.00    +0.065 A 
ATOM     11  C   UNL     1      -1.640   0.547  -1.808  0.00  0.00    +0.016 A 
ATOM     12  C   UNL     1      -1.886  -0.711  -1.375  0.00  0.00    +0.041 A 
ATOM     13  N   UNL     1      -2.034  -0.662  -0.034  0.00  0.00    -0.271 N 
ATOM     14  N   UNL     1      -1.869   0.669   0.370  0.00  0.00    -0.176 NA
ATOM     15  C   UNL     1      -2.312  -1.801   0.844  0.00  0.00    +0.172 C 
ATOM     16  C   UNL     1      -1.977  -1.945  -2.234  0.00  0.00    +0.065 C 
ENDBRANCH   7  11
ENDBRANCH   1   7
BRANCH   4  17
ATOM     17  C   UNL     1       2.264   2.951  -5.745  0.00  0.00    +0.124 C 
BRANCH  17  18
ATOM     18  C   UNL     1       3.394   3.962  -5.546  0.00  0.00    +0.120 C 
BRANCH  18  19
ATOM     19  N   UNL     1       4.164   4.085  -6.787  0.00  0.00    -0.341 N 
ATOM     20  H   UNL     1       3.917   3.561  -7.565  0.00  0.00    +0.146 HD
BRANCH  19  21
ATOM     21  C   UNL     1       5.255   4.955  -6.849  0.00  0.00    +0.058 A 
ATOM     22  C   UNL     1       5.537   5.795  -5.779  0.00  0.00    +0.025 A 
ATOM     23  C   UNL     1       6.616   6.654  -5.843  0.00  0.00    +0.002 A 
ATOM     24  C   UNL     1       7.415   6.680  -6.972  0.00  0.00    +0.002 A 
ATOM     25  C   UNL     1       7.137   5.846  -8.039  0.00  0.00    +0.034 A 
ATOM     26  C   UNL     1       6.062   4.980  -7.979  0.00  0.00    +0.147 A 
BRANCH  26  27
ATOM     27  N   UNL     1       5.769   4.083  -9.119  0.00  0.00    +0.058 N 
ATOM     28  O   UNL     1       5.371   2.959  -8.917  0.00  0.00    -0.126 OA
ATOM     29  O   UNL     1       5.926   4.474 -10.252  0.00  0.00    -0.126 OA
ENDBRANCH  26  27
ENDBRANCH  19  21
ENDBRANCH  18  19
ENDBRANCH  17  18
ENDBRANCH   4  17
TORSDOF 7
