REMARK  Name = ZINC31935231
REMARK  7 active torsions:
REMARK  status: ('A' for Active; 'I' for Inactive)
REMARK    1  A    between atoms: C_1  and  C_2
REMARK    2  A    between atoms: C_5  and  C_8
REMARK    3  A    between atoms: C_9  and  C_18
REMARK    4  A    between atoms: C_12  and  C_17
REMARK    5  A    between atoms: C_18  and  C_20
REMARK    6  A    between atoms: C_18  and  C_21
REMARK    7  A    between atoms: C_21  and  N_22
REMARK                            x       y       z     vdW  Elec       q    Type
REMARK                         _______ _______ _______ _____ _____    ______ ____
ROOT
ATOM      1  C   UNL     1       1.242   1.272  -0.530  0.00  0.00    +0.093 A 
ATOM      2  C   UNL     1       1.801   0.523   0.461  0.00  0.00    +0.052 A 
ATOM      3  N   UNL     1       1.202  -0.704   0.422  0.00  0.00    -0.303 N 
ATOM      4  C   UNL     1       1.368  -1.833   1.173  0.00  0.00    +0.096 A 
ATOM      5  C   UNL     1       0.634  -2.938   0.924  0.00  0.00    -0.034 A 
ATOM      6  C   UNL     1      -0.313  -2.941  -0.114  0.00  0.00    +0.008 A 
ATOM      7  C   UNL     1      -0.488  -1.824  -0.869  0.00  0.00    +0.047 A 
ATOM      8  C   UNL     1       0.286  -0.677  -0.598  0.00  0.00    +0.138 A 
ATOM      9  N   UNL     1       0.325   0.522  -1.160  0.00  0.00    -0.228 NA
ATOM     10  C   UNL     1       0.831  -4.174   1.764  0.00  0.00    +0.045 C 
ENDROOT
BRANCH   1  15
ATOM     11  C   UNL     1       2.588   6.726  -1.804  0.00  0.00    +0.044 C 
ATOM     12  C   UNL     1       2.236   5.299  -1.471  0.00  0.00    -0.050 A 
ATOM     13  C   UNL     1       2.979   4.263  -2.007  0.00  0.00    +0.004 A 
ATOM     14  C   UNL     1       2.661   2.954  -1.705  0.00  0.00    +0.010 A 
ATOM     15  C   UNL     1       1.589   2.678  -0.859  0.00  0.00    +0.002 A 
ATOM     16  C   UNL     1       0.841   3.725  -0.326  0.00  0.00    +0.010 A 
ATOM     17  C   UNL     1       1.171   5.030  -0.630  0.00  0.00    +0.004 A 
ENDBRANCH   1  15
BRANCH   2  18
ATOM     18  C   UNL     1       2.877   0.966   1.419  0.00  0.00    +0.018 C 
ATOM     19  C   UNL     1       2.338   2.089   2.307  0.00  0.00    +0.012 C 
BRANCH  18  20
ATOM     20  C   UNL     1       4.085   1.474   0.631  0.00  0.00    -0.077 C 
BRANCH  20  21
ATOM     21  N   UNL     1       4.590   0.401  -0.237  0.00  0.00    +0.379 N 
ATOM     22  H   UNL     1       5.459   0.767  -0.804  0.00  0.00    -0.090 HD
ATOM     23  H   UNL     1       3.799   0.093  -0.937  0.00  0.00    -0.090 HD
ATOM     24  H   UNL     1       4.889  -0.459   0.379  0.00  0.00    -0.090 HD
ENDBRANCH  20  21
ENDBRANCH  18  20
ENDBRANCH   2  18
TORSDOF 4
