REMARK  Name = ZINC38598631
REMARK  2 active torsions:
REMARK  status: ('A' for Active; 'I' for Inactive)
REMARK    1  A    between atoms: C_1  and  C_2
REMARK    2  A    between atoms: C_4  and  C_25
REMARK                            x       y       z     vdW  Elec       q    Type
REMARK                         _______ _______ _______ _____ _____    ______ ____
ROOT
ATOM      1  C   UNL     1      -0.048   1.522  -0.126  0.00  0.00    +0.062 C 
ATOM      2  C   UNL     1      -0.017   0.016  -0.139  0.00  0.00    +0.023 C 
ATOM      3  C   UNL     1      -1.088  -0.749   0.019  0.00  0.00    +0.005 C 
ATOM      4  C   UNL     1      -2.474  -0.248   0.223  0.00  0.00    +0.109 C 
ATOM      5  S   UNL     1      -3.552  -0.610  -1.175  0.00  0.00    -0.139 S 
ATOM      6  C   UNL     1      -3.756  -2.399  -1.188  0.00  0.00    +0.165 C 
ATOM      7  C   UNL     1      -2.474  -3.104  -1.463  0.00  0.00    +0.225 C 
ATOM      8  O   UNL     1      -2.604  -4.026  -2.240  0.00  0.00    -0.275 OA
ATOM      9  N   UNL     1      -1.267  -2.958  -1.067  0.00  0.00    -0.291 N 
ATOM     10  C   UNL     1      -0.622  -2.176  -0.056  0.00  0.00    +0.210 C 
ATOM     11  N   UNL     1       0.830  -2.099  -0.283  0.00  0.00    -0.213 N 
ATOM     12  N   UNL     1       1.130  -0.730  -0.321  0.00  0.00    -0.265 N 
ATOM     13  C   UNL     1       1.690  -3.127  -0.429  0.00  0.00    +0.150 C 
ATOM     14  N   UNL     1       1.274  -4.380  -0.382  0.00  0.00    -0.221 NA
ATOM     15  C   UNL     1       2.084  -5.432  -0.455  0.00  0.00    +0.225 C 
ATOM     16  N   UNL     1       3.394  -5.336  -0.262  0.00  0.00    -0.218 NA
ATOM     17  C   UNL     1       3.865  -4.110  -0.058  0.00  0.00    +0.164 C 
ATOM     18  N   UNL     1       4.850  -3.618   0.632  0.00  0.00    -0.219 NA
ATOM     19  C   UNL     1       4.705  -2.299   0.815  0.00  0.00    +0.218 C 
ATOM     20  N   UNL     1       3.719  -1.791   0.130  0.00  0.00    -0.253 NA
ATOM     21  C   UNL     1       3.159  -2.892  -0.657  0.00  0.00    +0.239 C 
ATOM     22  H   UNL     1      -0.643  -3.506  -1.568  0.00  0.00    +0.151 HD
ATOM     23  H   UNL     1       2.017  -0.360  -0.453  0.00  0.00    +0.170 HD
ENDROOT
BRANCH   4  24
ATOM     24  C   UNL     1      -2.428   1.245   0.426  0.00  0.00    -0.012 A 
ATOM     25  C   UNL     1      -2.251   1.776   1.695  0.00  0.00    +0.008 A 
ATOM     26  C   UNL     1      -2.215   3.154   1.834  0.00  0.00    +0.020 A 
ATOM     27  C   UNL     1      -2.355   3.949   0.712  0.00  0.00    +0.111 A 
ATOM     28  N   UNL     1      -2.522   3.409  -0.479  0.00  0.00    -0.263 NA
ATOM     29  C   UNL     1      -2.555   2.102  -0.650  0.00  0.00    +0.115 A 
ENDBRANCH   4  24
TORSDOF 1
