REMARK  Name = ZINC42627768
REMARK  6 active torsions:
REMARK  status: ('A' for Active; 'I' for Inactive)
REMARK    1  A    between atoms: C_4  and  N_24
REMARK    2  A    between atoms: C_5  and  N_7
REMARK    3  A    between atoms: N_7  and  N_8
REMARK    4  A    between atoms: C_9  and  C_11
REMARK    5  A    between atoms: C_11  and  O_12
REMARK    6  A    between atoms: O_12  and  C_13
REMARK                            x       y       z     vdW  Elec       q    Type
REMARK                         _______ _______ _______ _____ _____    ______ ____
ROOT
ATOM      1  N   UNL     1      -0.138  -2.675   0.636  0.00  0.00    -0.234 N 
ATOM      2  C   UNL     1      -0.184  -4.002   0.867  0.00  0.00    +0.267 C 
ATOM      3  O   UNL     1       0.844  -4.642   0.934  0.00  0.00    -0.271 OA
ATOM      4  H   UNL     1      -0.960  -2.163   0.582  0.00  0.00    +0.173 HD
ENDROOT
BRANCH   1   5
ATOM      5  N   UNL     1       1.098  -2.035   0.472  0.00  0.00    -0.262 N 
ATOM      6  H   UNL     1       1.920  -2.547   0.526  0.00  0.00    +0.170 HD
BRANCH   5  11
ATOM      7  C   UNL     1       0.030   1.454   0.031  0.00  0.00    +0.002 A 
ATOM      8  C   UNL     1       1.240   2.065  -0.243  0.00  0.00    +0.002 A 
ATOM      9  C   UNL     1       2.403   1.317  -0.280  0.00  0.00    +0.034 A 
ATOM     10  C   UNL     1       2.359  -0.043  -0.043  0.00  0.00    +0.148 A 
ATOM     11  C   UNL     1       1.145  -0.659   0.233  0.00  0.00    +0.075 A 
ATOM     12  C   UNL     1      -0.021   0.095   0.269  0.00  0.00    +0.027 A 
BRANCH  10  13
ATOM     13  N   UNL     1       3.604  -0.842  -0.083  0.00  0.00    +0.058 N 
ATOM     14  O   UNL     1       4.636  -0.375   0.339  0.00  0.00    -0.126 OA
ATOM     15  O   UNL     1       3.589  -1.962  -0.537  0.00  0.00    -0.126 OA
ENDBRANCH  10  13
ENDBRANCH   5  11
ENDBRANCH   1   5
BRANCH   2  16
ATOM     16  C   UNL     1      -1.513  -4.690   1.043  0.00  0.00    +0.326 C 
BRANCH  16  17
ATOM     17  O   UNL     1      -1.300  -6.084   1.274  0.00  0.00    -0.483 OA
BRANCH  17  18
ATOM     18  C   UNL     1      -2.405  -6.856   1.455  0.00  0.00    +0.122 A 
ATOM     19  C   UNL     1      -3.668  -6.282   1.404  0.00  0.00    +0.047 A 
ATOM     20  C   UNL     1      -4.790  -7.064   1.587  0.00  0.00    +0.027 A 
ATOM     21  C   UNL     1      -4.656  -8.426   1.822  0.00  0.00    +0.037 A 
ATOM     22  C   UNL     1      -3.393  -8.999   1.873  0.00  0.00    -0.022 A 
ATOM     23  C   UNL     1      -2.271  -8.217   1.684  0.00  0.00    +0.051 A 
ATOM     24  C   UNL     1      -3.250 -10.477   2.127  0.00  0.00    +0.046 C 
ATOM     25  C   UNL     1      -4.359 -10.943   3.072  0.00  0.00    +0.101 C 
ATOM     26  C   UNL     1      -5.690 -10.431   2.592  0.00  0.00    +0.218 C 
ATOM     27  O   UNL     1      -6.682 -11.115   2.732  0.00  0.00    -0.275 OA
ATOM     28  N   UNL     1      -5.793  -9.222   2.008  0.00  0.00    -0.285 N 
ATOM     29  H   UNL     1      -6.660  -8.901   1.715  0.00  0.00    +0.155 HD
ENDBRANCH  17  18
ENDBRANCH  16  17
ENDBRANCH   2  16
TORSDOF 6
