REMARK  Name = ZINC66592624
REMARK  10 active torsions:
REMARK  status: ('A' for Active; 'I' for Inactive)
REMARK    1  A    between atoms: C_1  and  C_2
REMARK    2  A    between atoms: C_5  and  C_12
REMARK    3  A    between atoms: C_8  and  C_10
REMARK    4  A    between atoms: C_8  and  C_11
REMARK    5  A    between atoms: C_12  and  C_13
REMARK    6  A    between atoms: N_15  and  C_16
REMARK    7  A    between atoms: C_16  and  C_18
REMARK    8  A    between atoms: C_16  and  C_19
REMARK    9  A    between atoms: C_22  and  S_25
REMARK   10  A    between atoms: S_25  and  N_28
REMARK                            x       y       z     vdW  Elec       q    Type
REMARK                         _______ _______ _______ _____ _____    ______ ____
ROOT
ATOM      1  C   UNL     1      -4.342  -0.151   0.136  0.00  0.00    +0.214 C 
ATOM      2  O   UNL     1      -3.824   0.803  -0.404  0.00  0.00    -0.276 OA
ATOM      3  N   UNL     1      -5.622  -0.469  -0.141  0.00  0.00    -0.309 N 
ATOM      4  H   UNL     1      -6.037  -1.232   0.291  0.00  0.00    +0.149 HD
ENDROOT
BRANCH   3   5
ATOM      5  C   UNL     1      -6.388   0.339  -1.093  0.00  0.00    +0.100 C 
ATOM      6  C   UNL     1      -6.113  -0.152  -2.516  0.00  0.00    +0.033 C 
BRANCH   5   7
ATOM      7  C   UNL     1      -7.859   0.210  -0.793  0.00  0.00    -0.027 A 
ATOM      8  C   UNL     1      -8.385  -1.015  -0.429  0.00  0.00    +0.007 A 
ATOM      9  C   UNL     1      -9.735  -1.133  -0.153  0.00  0.00    +0.029 A 
ATOM     10  C   UNL     1     -10.558  -0.026  -0.242  0.00  0.00    +0.105 A 
ATOM     11  C   UNL     1     -10.031   1.200  -0.605  0.00  0.00    +0.029 A 
ATOM     12  C   UNL     1      -8.681   1.319  -0.876  0.00  0.00    +0.007 A 
BRANCH  10  13
ATOM     13  S   UNL     1     -12.278  -0.177   0.108  0.00  0.00    +0.056 S 
ATOM     14  O   UNL     1     -12.927   0.887  -0.576  0.00  0.00    -0.153 OA
ATOM     15  O   UNL     1     -12.618  -1.540  -0.106  0.00  0.00    -0.153 OA
BRANCH  13  16
ATOM     16  N   UNL     1     -12.476   0.111   1.726  0.00  0.00    -0.204 NA
ATOM     17  H   UNL     1     -11.706   0.316   2.280  0.00  0.00    +0.144 HD
ATOM     18  H   UNL     1     -13.361   0.075   2.121  0.00  0.00    +0.144 HD
ENDBRANCH  13  16
ENDBRANCH  10  13
ENDBRANCH   5   7
ENDBRANCH   3   5
BRANCH   1  19
ATOM     19  C   UNL     1      -3.555  -0.983   1.116  0.00  0.00    +0.099 C 
BRANCH  19  23
ATOM     20  C   UNL     1      -0.019   1.524   0.010  0.00  0.00    +0.007 C 
ATOM     21  C   UNL     1       0.002  -0.004   0.002  0.00  0.00    -0.013 C 
ATOM     22  C   UNL     1      -1.412  -0.559  -0.088  0.00  0.00    +0.007 C 
ATOM     23  C   UNL     1      -2.138  -0.411   1.248  0.00  0.00    -0.002 C 
ATOM     24  C   UNL     1      -1.378  -1.199   2.313  0.00  0.00    +0.010 C 
ATOM     25  C   UNL     1       0.034  -0.651   2.488  0.00  0.00    -0.034 C 
ATOM     26  C   UNL     1       0.787  -0.560   1.172  0.00  0.00    +0.009 C 
ATOM     27  C   UNL     1      -0.015   0.710   3.188  0.00  0.00    +0.011 C 
ATOM     28  C   UNL     1       0.803  -1.619   3.413  0.00  0.00    +0.011 C 
ENDBRANCH  19  23
ENDBRANCH   1  19
TORSDOF 6
