REMARK  Name = ZINC66531760
REMARK  10 active torsions:
REMARK  status: ('A' for Active; 'I' for Inactive)
REMARK    1  A    between atoms: C_1  and  C_2
REMARK    2  A    between atoms: C_7  and  C_27
REMARK    3  A    between atoms: N_9  and  C_10
REMARK    4  A    between atoms: C_10  and  C_11
REMARK    5  A    between atoms: C_11  and  C_13
REMARK    6  A    between atoms: C_14  and  N_26
REMARK    7  A    between atoms: N_15  and  C_22
REMARK    8  A    between atoms: C_22  and  C_23
REMARK    9  A    between atoms: C_23  and  C_24
REMARK   10  A    between atoms: C_23  and  C_25
REMARK                            x       y       z     vdW  Elec       q    Type
REMARK                         _______ _______ _______ _____ _____    ______ ____
ROOT
ATOM      1  C   UNL     1       4.495  -0.434   2.759  0.00  0.00    +0.118 A 
ATOM      2  C   UNL     1       5.129  -0.829   3.950  0.00  0.00    +0.116 A 
ATOM      3  N   UNL     1       6.441  -0.498   4.140  0.00  0.00    -0.281 N 
ATOM      4  C   UNL     1       7.128   0.193   3.217  0.00  0.00    +0.331 A 
ATOM      5  O   UNL     1       8.293   0.462   3.434  0.00  0.00    -0.246 OA
ATOM      6  N   UNL     1       6.575   0.597   2.061  0.00  0.00    -0.274 N 
ATOM      7  H   UNL     1       7.109   1.094   1.423  0.00  0.00    +0.173 HD
ATOM      8  C   UNL     1       5.287   0.315   1.775  0.00  0.00    +0.266 A 
ATOM      9  O   UNL     1       4.790   0.678   0.725  0.00  0.00    -0.267 OA
ENDROOT
BRANCH   2  10
ATOM     10  N   UNL     1       4.448  -1.528   4.897  0.00  0.00    -0.344 N 
ATOM     11  H   UNL     1       3.545  -1.833   4.719  0.00  0.00    +0.144 HD
ATOM     12  H   UNL     1       4.866  -1.722   5.751  0.00  0.00    +0.144 HD
ENDBRANCH   2  10
BRANCH   1  13
ATOM     13  C   UNL     1       3.142  -0.751   2.515  0.00  0.00    +0.155 C 
ATOM     14  O   UNL     1       2.538  -1.469   3.287  0.00  0.00    -0.294 OA
BRANCH  13  15
ATOM     15  C   UNL     1       2.446  -0.200   1.298  0.00  0.00    +0.003 C 
BRANCH  15  22
ATOM     16  C   UNL     1       1.700  -2.591   0.030  0.00  0.00    -0.013 C 
ATOM     17  C   UNL     1       0.958  -2.079   1.265  0.00  0.00    -0.071 C 
ATOM     18  C   UNL     1      -0.508  -2.512   1.195  0.00  0.00    -0.016 C 
ATOM     19  C   UNL     1      -1.247  -1.997   2.434  0.00  0.00    -0.003 C 
ATOM     20  C   UNL     1      -1.095  -0.475   2.510  0.00  0.00    -0.016 C 
ATOM     21  C   UNL     1       0.393  -0.117   2.532  0.00  0.00    -0.071 C 
ATOM     22  N   UNL     1       1.036  -0.614   1.310  0.00  0.00    +0.388 N 
ATOM     23  C   UNL     1       0.550   1.403   2.608  0.00  0.00    -0.013 C 
ATOM     24  H   UNL     1       0.568  -0.228   0.503  0.00  0.00    -0.080 HD
ENDBRANCH  15  22
ENDBRANCH  13  15
ENDBRANCH   1  13
BRANCH   3  25
ATOM     25  C   UNL     1       7.111  -0.905   5.378  0.00  0.00    +0.131 C 
BRANCH  25  26
ATOM     26  C   UNL     1       7.747  -2.283   5.183  0.00  0.00    +0.003 C 
ATOM     27  C   UNL     1       8.552  -2.654   6.431  0.00  0.00    +0.009 C 
ATOM     28  C   UNL     1       6.649  -3.324   4.957  0.00  0.00    +0.009 C 
ENDBRANCH  25  26
ENDBRANCH   3  25
TORSDOF 6
