REMARK  Name = ZINC43671026
REMARK  8 active torsions:
REMARK  status: ('A' for Active; 'I' for Inactive)
REMARK    1  A    between atoms: C_1  and  C_2
REMARK    2  A    between atoms: C_2  and  C_3
REMARK    3  A    between atoms: C_6  and  C_8
REMARK    4  A    between atoms: C_8  and  C_10
REMARK    5  A    between atoms: C_8  and  N_11
REMARK    6  A    between atoms: C_12  and  N_20
REMARK    7  A    between atoms: C_13  and  N_17
REMARK    8  A    between atoms: C_14  and  C_16
REMARK                            x       y       z     vdW  Elec       q    Type
REMARK                         _______ _______ _______ _____ _____    ______ ____
ROOT
ATOM      1  N   UNL     1       0.963  -3.017  -5.320  0.00  0.00    -0.241 N 
ATOM      2  C   UNL     1       1.448  -4.227  -5.679  0.00  0.00    +0.146 A 
ATOM      3  C   UNL     1       0.388  -5.073  -5.808  0.00  0.00    +0.188 A 
ATOM      4  C   UNL     1      -0.772  -4.351  -5.517  0.00  0.00    +0.092 A 
ATOM      5  N   UNL     1      -0.430  -3.123  -5.219  0.00  0.00    -0.172 NA
ATOM      6  C   UNL     1      -2.178  -4.894  -5.535  0.00  0.00    +0.070 C 
ENDROOT
BRANCH   3   7
ATOM      7  N   UNL     1       0.454  -6.502  -6.188  0.00  0.00    +0.062 N 
ATOM      8  O   UNL     1       0.570  -7.350  -5.335  0.00  0.00    -0.126 OA
ATOM      9  O   UNL     1       0.392  -6.821  -7.353  0.00  0.00    -0.126 OA
ENDBRANCH   3   7
BRANCH   2  10
ATOM     10  N   UNL     1       2.787  -4.550  -5.882  0.00  0.00    -0.342 N 
ATOM     11  H   UNL     1       3.472  -3.873  -5.765  0.00  0.00    +0.144 HD
ATOM     12  H   UNL     1       3.035  -5.451  -6.140  0.00  0.00    +0.144 HD
ENDBRANCH   2  10
BRANCH   1  13
ATOM     13  C   UNL     1       1.755  -1.809  -5.073  0.00  0.00    +0.143 C 
ATOM     14  C   UNL     1       1.317  -0.706  -6.038  0.00  0.00    +0.038 C 
BRANCH  13  18
ATOM     15  C   UNL     1       0.707  -0.490  -1.238  0.00  0.00    -0.010 A 
ATOM     16  C   UNL     1       2.023  -0.761  -1.421  0.00  0.00    +0.011 A 
ATOM     17  C   UNL     1       2.451  -1.202  -2.659  0.00  0.00    +0.013 A 
ATOM     18  C   UNL     1       1.542  -1.350  -3.654  0.00  0.00    +0.014 A 
ATOM     19  S   UNL     1       0.026  -0.866  -2.845  0.00  0.00    -0.096 S 
BRANCH  15  21
ATOM     20  C   UNL     1      -0.019   1.526   0.010  0.00  0.00    +0.009 C 
ATOM     21  C   UNL     1       0.002  -0.004   0.002  0.00  0.00    +0.039 C 
ENDBRANCH  15  21
ENDBRANCH  13  18
ENDBRANCH   1  13
TORSDOF 5
