REMARK  Name = ZINC64019819
REMARK  6 active torsions:
REMARK  status: ('A' for Active; 'I' for Inactive)
REMARK    1  A    between atoms: C_1  and  O_2
REMARK    2  A    between atoms: O_2  and  C_3
REMARK    3  A    between atoms: C_10  and  C_18
REMARK    4  A    between atoms: C_20  and  O_35
REMARK    5  A    between atoms: C_22  and  O_34
REMARK    6  A    between atoms: N_24  and  C_27
REMARK                            x       y       z     vdW  Elec       q    Type
REMARK                         _______ _______ _______ _____ _____    ______ ____
ROOT
ATOM      1  C   UNL     1       2.467  -4.997  -6.088  0.00  0.00    +0.179 C 
ATOM      2  C   UNL     1       1.731  -5.829  -7.096  0.00  0.00    +0.200 C 
ATOM      3  N   UNL     1       1.947  -7.077  -7.256  0.00  0.00    -0.204 NA
ATOM      4  C   UNL     1       2.916  -7.843  -6.491  0.00  0.00    +0.339 C 
ATOM      5  N   UNL     1       3.925  -6.993  -5.876  0.00  0.00    -0.222 N 
ATOM      6  C   UNL     1       3.736  -5.686  -5.673  0.00  0.00    +0.237 C 
ATOM      7  O   UNL     1       4.614  -5.042  -5.139  0.00  0.00    -0.274 OA
ENDROOT
BRANCH   1  14
ATOM      8  C   UNL     1       0.325  -0.487  -1.279  0.00  0.00    +0.121 A 
ATOM      9  C   UNL     1       0.816   0.299  -2.337  0.00  0.00    +0.047 A 
ATOM     10  C   UNL     1       1.464  -0.233  -3.395  0.00  0.00    +0.029 A 
ATOM     11  C   UNL     1       1.677  -1.681  -3.469  0.00  0.00    +0.043 A 
ATOM     12  N   UNL     1       2.244  -2.438  -4.379  0.00  0.00    -0.376 N 
ATOM     13  C   UNL     1       2.258  -3.813  -3.892  0.00  0.00    +0.124 C 
ATOM     14  C   UNL     1       1.580  -4.788  -4.859  0.00  0.00    +0.101 C 
ATOM     15  N   UNL     1       1.385  -6.070  -4.163  0.00  0.00    -0.310 NA
ATOM     16  C   UNL     1       0.422  -5.989  -3.061  0.00  0.00    +0.085 C 
ATOM     17  C   UNL     1       0.967  -5.073  -1.950  0.00  0.00    +0.048 C 
ATOM     18  C   UNL     1       1.430  -3.797  -2.617  0.00  0.00    -0.036 C 
ATOM     19  C   UNL     1       1.151  -2.514  -2.357  0.00  0.00    +0.003 A 
ATOM     20  C   UNL     1       0.470  -1.832  -1.250  0.00  0.00    +0.055 A 
ATOM     21  H   UNL     1       1.131  -6.799  -4.813  0.00  0.00    +0.122 HD
ATOM     22  H   UNL     1       2.594  -2.134  -5.231  0.00  0.00    +0.160 HD
BRANCH   8  24
ATOM     23  C   UNL     1      -0.443   1.548  -0.318  0.00  0.00    +0.277 C 
ATOM     24  O   UNL     1      -0.312   0.127  -0.247  0.00  0.00    -0.495 OA
ENDBRANCH   8  24
ENDBRANCH   1  14
BRANCH   5  25
ATOM     25  C   UNL     1       5.140  -7.568  -5.483  0.00  0.00    +0.076 A 
ATOM     26  C   UNL     1       6.207  -7.613  -6.369  0.00  0.00    +0.026 A 
ATOM     27  C   UNL     1       7.405  -8.181  -5.978  0.00  0.00    +0.002 A 
ATOM     28  C   UNL     1       7.542  -8.704  -4.705  0.00  0.00    +0.003 A 
ATOM     29  C   UNL     1       6.481  -8.661  -3.819  0.00  0.00    +0.040 A 
ATOM     30  C   UNL     1       5.281  -8.089  -4.201  0.00  0.00    +0.145 A 
ATOM     31  F   UNL     1       4.247  -8.042  -3.334  0.00  0.00    -0.204 F 
ENDBRANCH   5  25
BRANCH   4  32
ATOM     32  O   UNL     1       2.232  -8.564  -5.465  0.00  0.00    -0.356 OA
ATOM     33  H   UNL     1       1.568  -9.185  -5.796  0.00  0.00    +0.214 HD
ENDBRANCH   4  32
BRANCH   2  34
ATOM     34  O   UNL     1       0.800  -5.231  -7.869  0.00  0.00    -0.495 OA
ATOM     35  H   UNL     1       0.366  -5.828  -8.495  0.00  0.00    +0.293 HD
ENDBRANCH   2  34
TORSDOF 5
