REMARK  Name = ZINC36789988
REMARK  14 active torsions:
REMARK  status: ('A' for Active; 'I' for Inactive)
REMARK    1  A    between atoms: C_1  and  C_2
REMARK    2  A    between atoms: C_2  and  C_3
REMARK    3  A    between atoms: C_3  and  C_4
REMARK    4  A    between atoms: C_4  and  C_6
REMARK    5  A    between atoms: C_4  and  N_7
REMARK    6  A    between atoms: N_7  and  C_8
REMARK    7  A    between atoms: N_7  and  C_9
REMARK    8  A    between atoms: C_12  and  C_20
REMARK    9  A    between atoms: C_16  and  C_18
REMARK   10  A    between atoms: C_18  and  N_19
REMARK   11  A    between atoms: C_20  and  C_21
REMARK   12  A    between atoms: C_20  and  C_22
REMARK   13  A    between atoms: C_20  and  C_23
REMARK   14  A    between atoms: C_23  and  C_24
REMARK                            x       y       z     vdW  Elec       q    Type
REMARK                         _______ _______ _______ _____ _____    ______ ____
ROOT
ATOM      1  C   UNL     1      -0.418  -4.067  -1.071  0.00  0.00    -0.067 C 
ATOM      2  C   UNL     1       0.452  -4.582  -2.219  0.00  0.00    -0.011 C 
ATOM      3  C   UNL     1       0.733  -6.073  -2.015  0.00  0.00    -0.007 C 
ATOM      4  C   UNL     1      -0.589  -6.843  -1.992  0.00  0.00    +0.004 C 
ATOM      5  C   UNL     1      -1.459  -6.327  -0.844  0.00  0.00    +0.000 C 
ATOM      6  C   UNL     1      -1.740  -4.837  -1.047  0.00  0.00    -0.042 C 
ENDROOT
BRANCH   1   7
ATOM      7  N   UNL     1      -0.689  -2.636  -1.266  0.00  0.00    +0.382 N 
ATOM      8  C   UNL     1       0.558  -1.876  -1.104  0.00  0.00    -0.095 C 
ATOM      9  H   UNL     1      -1.056  -2.486  -2.194  0.00  0.00    -0.081 HD
BRANCH   7  10
ATOM     10  C   UNL     1      -1.671  -2.183  -0.272  0.00  0.00    -0.072 C 
ATOM     11  C   UNL     1      -2.304  -0.872  -0.741  0.00  0.00    -0.013 C 
BRANCH  10  12
ATOM     12  C   UNL     1      -0.972  -1.960   1.071  0.00  0.00    -0.016 C 
BRANCH  12  14
ATOM     13  C   UNL     1      -0.231  -3.068   3.184  0.00  0.00    +0.004 C 
ATOM     14  C   UNL     1      -0.779  -3.304   1.776  0.00  0.00    -0.005 C 
ENDBRANCH  12  14
ENDBRANCH  10  12
ENDBRANCH   7  10
ENDBRANCH   1   7
BRANCH   3  15
ATOM     15  C   UNL     1       1.603  -6.588  -3.163  0.00  0.00    -0.032 C 
ATOM     16  C   UNL     1       0.871  -6.384  -4.491  0.00  0.00    +0.011 C 
ATOM     17  C   UNL     1       2.925  -5.818  -3.187  0.00  0.00    +0.011 C 
BRANCH  15  18
ATOM     18  C   UNL     1       1.885  -8.079  -2.960  0.00  0.00    +0.003 C 
ATOM     19  C   UNL     1       2.755  -8.594  -4.108  0.00  0.00    +0.004 C 
ENDBRANCH  15  18
ENDBRANCH   3  15
BRANCH   6  20
ATOM     20  C   UNL     1      -2.473  -4.632  -2.374  0.00  0.00    -0.085 C 
BRANCH  20  21
ATOM     21  N   UNL     1      -3.794  -5.272  -2.308  0.00  0.00    +0.378 N 
ATOM     22  H   UNL     1      -3.681  -6.259  -2.134  0.00  0.00    -0.090 HD
ATOM     23  H   UNL     1      -4.331  -4.858  -1.560  0.00  0.00    -0.090 HD
ATOM     24  H   UNL     1      -4.277  -5.137  -3.183  0.00  0.00    -0.090 HD
ENDBRANCH  20  21
ENDBRANCH   6  20
TORSDOF 8
