REMARK  Name = ZINC14076305
REMARK  9 active torsions:
REMARK  status: ('A' for Active; 'I' for Inactive)
REMARK    1  A    between atoms: C_1  and  C_2
REMARK    2  A    between atoms: C_2  and  C_4
REMARK    3  A    between atoms: C_2  and  O_17
REMARK    4  A    between atoms: C_4  and  C_6
REMARK    5  A    between atoms: C_7  and  N_16
REMARK    6  A    between atoms: N_8  and  C_15
REMARK    7  A    between atoms: N_11  and  C_14
REMARK    8  A    between atoms: O_17  and  C_18
REMARK    9  A    between atoms: C_18  and  C_20
REMARK                            x       y       z     vdW  Elec       q    Type
REMARK                         _______ _______ _______ _____ _____    ______ ____
ROOT
ATOM      1  C   UNL     1       4.446   1.163  -1.550  0.00  0.00    +0.123 A 
ATOM      2  C   UNL     1       5.537   1.918  -2.015  0.00  0.00    +0.116 A 
ATOM      3  N   UNL     1       6.740   1.298  -2.196  0.00  0.00    -0.284 N 
ATOM      4  C   UNL     1       6.894  -0.012  -1.950  0.00  0.00    +0.333 A 
ATOM      5  O   UNL     1       7.985  -0.517  -2.132  0.00  0.00    -0.246 OA
ATOM      6  N   UNL     1       5.888  -0.785  -1.510  0.00  0.00    -0.263 N 
ATOM      7  C   UNL     1       4.661  -0.267  -1.294  0.00  0.00    +0.269 A 
ATOM      8  O   UNL     1       3.752  -0.971  -0.894  0.00  0.00    -0.267 OA
ATOM      9  C   UNL     1       6.126  -2.209  -1.262  0.00  0.00    +0.157 C 
ATOM     10  C   UNL     1       7.884   2.078  -2.675  0.00  0.00    +0.155 C 
ENDROOT
BRANCH   2  11
ATOM     11  N   UNL     1       5.397   3.246  -2.275  0.00  0.00    -0.344 N 
ATOM     12  H   UNL     1       4.669   3.745  -1.872  0.00  0.00    +0.144 HD
ATOM     13  H   UNL     1       6.024   3.694  -2.864  0.00  0.00    +0.144 HD
ENDBRANCH   2  11
BRANCH   1  14
ATOM     14  C   UNL     1       3.184   1.758  -1.341  0.00  0.00    +0.212 C 
ATOM     15  O   UNL     1       2.994   2.911  -1.673  0.00  0.00    -0.288 OA
BRANCH  14  17
ATOM     16  C   UNL     1       2.267   0.935   0.811  0.00  0.00    +0.061 C 
ATOM     17  C   UNL     1       2.072   0.963  -0.707  0.00  0.00    +0.244 C 
BRANCH  17  18
ATOM     18  O   UNL     1       0.796   1.582  -1.019  0.00  0.00    -0.450 OA
BRANCH  18  19
ATOM     19  C   UNL     1      -0.276   0.767  -1.103  0.00  0.00    +0.347 C 
ATOM     20  O   UNL     1      -0.146  -0.429  -0.919  0.00  0.00    -0.244 OA
BRANCH  19  21
ATOM     21  C   UNL     1      -1.593   1.320  -1.420  0.00  0.00    +0.096 A 
ATOM     22  C   UNL     1      -2.808   0.663  -1.557  0.00  0.00    +0.022 A 
ATOM     23  C   UNL     1      -3.902   1.432  -1.862  0.00  0.00    +0.008 A 
ATOM     24  C   UNL     1      -3.750   2.774  -2.013  0.00  0.00    +0.046 A 
ATOM     25  S   UNL     1      -2.058   3.015  -1.724  0.00  0.00    -0.090 S 
ENDBRANCH  19  21
ENDBRANCH  18  19
ENDBRANCH  17  18
ENDBRANCH  14  17
ENDBRANCH   1  14
TORSDOF 6
