REMARK  Name = ZINC26441636
REMARK  9 active torsions:
REMARK  status: ('A' for Active; 'I' for Inactive)
REMARK    1  A    between atoms: C_1  and  C_2
REMARK    2  A    between atoms: C_5  and  N_13
REMARK    3  A    between atoms: C_6  and  C_7
REMARK    4  A    between atoms: C_6  and  C_8
REMARK    5  A    between atoms: C_14  and  O_16
REMARK    6  A    between atoms: O_16  and  C_17
REMARK    7  A    between atoms: C_17  and  C_18
REMARK    8  A    between atoms: C_17  and  C_19
REMARK    9  A    between atoms: C_17  and  C_20
REMARK                            x       y       z     vdW  Elec       q    Type
REMARK                         _______ _______ _______ _____ _____    ______ ____
ROOT
ATOM      1  C   UNL     1      -0.019   1.526   0.010  0.00  0.00    +0.020 C 
ATOM      2  C   UNL     1       0.002  -0.004   0.002  0.00  0.00    +0.041 C 
ATOM      3  C   UNL     1       0.741  -0.671  -1.199  0.00  0.00    +0.018 C 
ATOM      4  C   UNL     1       1.039  -2.110  -0.716  0.00  0.00    +0.035 C 
ATOM      5  C   UNL     1       0.450  -2.165   0.727  0.00  0.00    +0.109 C 
ATOM      6  C   UNL     1       0.727  -0.697   1.210  0.00  0.00    +0.006 C 
ATOM      7  C   UNL     1       2.225  -0.390   1.237  0.00  0.00    +0.014 C 
ATOM      8  C   UNL     1       0.056  -0.375   2.547  0.00  0.00    +0.014 C 
ATOM      9  C   UNL     1      -1.071  -2.107   0.521  0.00  0.00    +0.222 C 
ATOM     10  O   UNL     1      -1.867  -2.998   0.699  0.00  0.00    -0.287 OA
ATOM     11  C   UNL     1      -1.367  -0.697   0.065  0.00  0.00    +0.207 C 
ATOM     12  O   UNL     1      -2.441  -0.218  -0.210  0.00  0.00    -0.288 OA
ENDROOT
BRANCH   5  13
ATOM     13  N   UNL     1       0.956  -3.238   1.587  0.00  0.00    -0.268 N 
ATOM     14  C   UNL     1       0.775  -4.526   1.234  0.00  0.00    +0.402 C 
ATOM     15  O   UNL     1       0.192  -4.798   0.203  0.00  0.00    -0.226 OA
ATOM     16  H   UNL     1       1.421  -3.021   2.410  0.00  0.00    +0.153 HD
BRANCH  14  17
ATOM     17  O   UNL     1       1.240  -5.512   2.024  0.00  0.00    -0.445 OA
BRANCH  17  18
ATOM     18  C   UNL     1       1.013  -6.854   1.589  0.00  0.00    +0.107 C 
ATOM     19  C   UNL     1       1.680  -7.068   0.228  0.00  0.00    +0.055 C 
ATOM     20  C   UNL     1       1.607  -7.829   2.607  0.00  0.00    +0.055 C 
ATOM     21  C   UNL     1      -0.492  -7.102   1.464  0.00  0.00    +0.055 C 
ENDBRANCH  17  18
ENDBRANCH  14  17
ENDBRANCH   5  13
TORSDOF 3
