REMARK  Name = ZINC62199134
REMARK  5 active torsions:
REMARK  status: ('A' for Active; 'I' for Inactive)
REMARK    1  A    between atoms: C_1  and  C_2
REMARK    2  A    between atoms: C_6  and  N_9
REMARK    3  A    between atoms: C_7  and  C_8
REMARK    4  A    between atoms: C_13  and  C_16
REMARK    5  A    between atoms: C_16  and  N_17
REMARK                            x       y       z     vdW  Elec       q    Type
REMARK                         _______ _______ _______ _____ _____    ______ ____
ROOT
ATOM      1  N   UNL     1       0.051  -2.798   2.393  0.00  0.00    -0.281 N 
ATOM      2  C   UNL     1      -1.125  -3.161   2.979  0.00  0.00    +0.030 A 
ATOM      3  C   UNL     1      -1.134  -3.841   4.135  0.00  0.00    -0.027 A 
ATOM      4  C   UNL     1       0.071  -4.190   4.763  0.00  0.00    +0.012 A 
ATOM      5  C   UNL     1       1.250  -3.827   4.179  0.00  0.00    +0.000 A 
ATOM      6  C   UNL     1       1.227  -3.121   2.965  0.00  0.00    +0.257 A 
ATOM      7  O   UNL     1       2.274  -2.796   2.429  0.00  0.00    -0.267 OA
ATOM      8  C   UNL     1      -2.447  -4.241   4.774  0.00  0.00    +0.037 C 
ATOM      9  C   UNL     1      -3.123  -2.985   5.327  0.00  0.00    +0.005 C 
ATOM     10  C   UNL     1      -3.938  -2.292   4.252  0.00  0.00    +0.001 C 
ATOM     11  C   UNL     1      -3.106  -1.690   3.135  0.00  0.00    +0.006 C 
ATOM     12  C   UNL     1      -2.430  -2.785   2.308  0.00  0.00    +0.054 C 
ENDROOT
BRANCH   1  18
ATOM     13  C   UNL     1      -0.018   1.503   0.010  0.00  0.00    +0.044 C 
ATOM     14  C   UNL     1       0.002  -0.004   0.002  0.00  0.00    -0.046 A 
ATOM     15  C   UNL     1       0.006  -0.688  -1.200  0.00  0.00    +0.004 A 
ATOM     16  C   UNL     1       0.024  -2.071  -1.212  0.00  0.00    +0.002 A 
ATOM     17  C   UNL     1       0.040  -2.773  -0.022  0.00  0.00    +0.026 A 
ATOM     18  C   UNL     1       0.036  -2.089   1.186  0.00  0.00    +0.053 A 
ATOM     19  C   UNL     1       0.023  -0.700   1.194  0.00  0.00    -0.024 A 
ATOM     20  C   UNL     1       0.025   0.046   2.504  0.00  0.00    +0.046 C 
ENDBRANCH   1  18
BRANCH   5  21
ATOM     21  C   UNL     1       2.563  -4.185   4.826  0.00  0.00    -0.045 C 
BRANCH  21  22
ATOM     22  N   UNL     1       3.069  -5.437   4.248  0.00  0.00    +0.381 N 
ATOM     23  H   UNL     1       3.948  -5.677   4.681  0.00  0.00    -0.090 HD
ATOM     24  H   UNL     1       2.402  -6.176   4.410  0.00  0.00    -0.090 HD
ATOM     25  H   UNL     1       3.205  -5.318   3.255  0.00  0.00    -0.090 HD
ENDBRANCH  21  22
ENDBRANCH   5  21
TORSDOF 3
