REMARK  Name = ZINC44320747
REMARK  7 active torsions:
REMARK  status: ('A' for Active; 'I' for Inactive)
REMARK    1  A    between atoms: C_13  and  C_14
REMARK    2  A    between atoms: C_14  and  O_15
REMARK    3  A    between atoms: O_15  and  C_16
REMARK    4  A    between atoms: N_18  and  CA_19
REMARK    5  A    between atoms: CA_19  and  C_21
REMARK    6  A    between atoms: CA_19  and  C_28
REMARK    7  A    between atoms: C_21  and  C_22
REMARK                            x       y       z     vdW  Elec       q    Type
REMARK                         _______ _______ _______ _____ _____    ______ ____
ROOT
ATOM      1  O   UNL     1       5.553  -1.635   1.122  0.00  0.00    -0.449 OA
ENDROOT
BRANCH   1   2
ATOM      2  C   UNL     1       6.424  -1.603   2.148  0.00  0.00    +0.401 C 
ATOM      3  O   UNL     1       6.225  -0.862   3.091  0.00  0.00    -0.226 OA
ATOM      4  N   UNL     1       7.517  -2.391   2.129  0.00  0.00    -0.267 N 
ATOM      5  H   UNL     1       7.676  -2.982   1.376  0.00  0.00    +0.153 HD
BRANCH   4   6
ATOM      6  CA  UNL     1       8.466  -2.355   3.245  0.00  0.00    +0.196 C 
BRANCH   6   7
ATOM      7  C   UNL     1       9.449  -1.233   3.033  0.00  0.00    +0.376 C 
ATOM      8  O   UNL     1       9.365  -0.528   2.041  0.00  0.00    -0.244 OA
ATOM      9  OXT UNL     1      10.328  -1.030   3.853  0.00  0.00    -0.244 OA
ENDBRANCH   6   7
BRANCH   6  10
ATOM     10  C   UNL     1       9.218  -3.686   3.317  0.00  0.00    +0.108 C 
BRANCH  10  11
ATOM     11  C   UNL     1       8.251  -4.792   3.651  0.00  0.00    +0.108 A 
ATOM     12  C   UNL     1       7.567  -5.534   2.761  0.00  0.00    +0.060 A 
ATOM     13  C   UNL     1       6.784  -6.447   3.505  0.00  0.00    +0.056 A 
ATOM     14  C   UNL     1       7.036  -6.208   4.805  0.00  0.00    +0.210 A 
ATOM     15  O   UNL     1       7.929  -5.208   4.887  0.00  0.00    -0.467 OA
ATOM     16 BR   UNL     1       5.608  -7.753   2.807  0.00  0.00    -0.047 Br
ENDBRANCH  10  11
ENDBRANCH   6  10
ENDBRANCH   4   6
ENDBRANCH   1   2
BRANCH   1  17
ATOM     17  C   UNL     1       4.416  -0.773   1.209  0.00  0.00    +0.246 C 
BRANCH  17  30
ATOM     18  C   UNL     1      -0.017   1.375   0.010  0.00  0.00    +0.001 A 
ATOM     19  C   UNL     1       1.169   2.088   0.002  0.00  0.00    +0.000 A 
ATOM     20  C   UNL     1       2.380   1.420  -0.013  0.00  0.00    +0.005 A 
ATOM     21  C   UNL     1       2.408   0.042  -0.021  0.00  0.00    -0.029 A 
ATOM     22  C   UNL     1       1.221  -0.685  -0.013  0.00  0.00    -0.014 A 
ATOM     23  C   UNL     1       0.002  -0.004   0.002  0.00  0.00    +0.009 A 
ATOM     24  C   UNL     1       1.530  -2.136  -0.025  0.00  0.00    -0.014 A 
ATOM     25  C   UNL     1       0.694  -3.254  -0.023  0.00  0.00    +0.009 A 
ATOM     26  C   UNL     1       1.238  -4.521  -0.035  0.00  0.00    +0.001 A 
ATOM     27  C   UNL     1       2.611  -4.690  -0.050  0.00  0.00    +0.000 A 
ATOM     28  C   UNL     1       3.445  -3.587  -0.052  0.00  0.00    +0.005 A 
ATOM     29  C   UNL     1       2.910  -2.316  -0.040  0.00  0.00    -0.029 A 
ATOM     30  C   UNL     1       3.547  -0.948  -0.038  0.00  0.00    +0.088 C 
ENDBRANCH  17  30
ENDBRANCH   1  17
TORSDOF 7
