REMARK  Name = ZINC38642754
REMARK  9 active torsions:
REMARK  status: ('A' for Active; 'I' for Inactive)
REMARK    1  A    between atoms: C_1  and  C_2
REMARK    2  A    between atoms: C_2  and  N_3
REMARK    3  A    between atoms: C_13  and  C_15
REMARK    4  A    between atoms: C_15  and  N_16
REMARK    5  A    between atoms: C_17  and  C_19
REMARK    6  A    between atoms: C_21  and  S_27
REMARK    7  A    between atoms: C_24  and  O_25
REMARK    8  A    between atoms: O_25  and  C_26
REMARK    9  A    between atoms: S_27  and  N_30
REMARK                            x       y       z     vdW  Elec       q    Type
REMARK                         _______ _______ _______ _____ _____    ______ ____
ROOT
ATOM      1  N   UNL     1       2.986  -1.763  -0.029  0.00  0.00    -0.313 N 
ATOM      2  C   UNL     1       4.301  -1.979  -0.233  0.00  0.00    +0.248 C 
ATOM      3  O   UNL     1       4.932  -2.665   0.546  0.00  0.00    -0.270 OA
ATOM      4  H   UNL     1       2.482  -1.216  -0.651  0.00  0.00    +0.149 HD
ENDROOT
BRANCH   2   5
ATOM      5  C   UNL     1       4.973  -1.381  -1.403  0.00  0.00    +0.080 A 
ATOM      6  C   UNL     1       4.252  -0.587  -2.298  0.00  0.00    +0.045 A 
ATOM      7  C   UNL     1       4.886  -0.032  -3.388  0.00  0.00    +0.106 A 
ATOM      8  C   UNL     1       6.237  -0.257  -3.601  0.00  0.00    +0.032 A 
ATOM      9  C   UNL     1       6.961  -1.040  -2.724  0.00  0.00    +0.048 A 
ATOM     10  C   UNL     1       6.340  -1.603  -1.619  0.00  0.00    +0.132 A 
BRANCH   7  11
ATOM     11  S   UNL     1       3.975   0.969  -4.516  0.00  0.00    +0.056 S 
ATOM     12  O   UNL     1       4.674   0.925  -5.753  0.00  0.00    -0.153 OA
ATOM     13  O   UNL     1       2.614   0.580  -4.397  0.00  0.00    -0.153 OA
BRANCH  11  14
ATOM     14  N   UNL     1       4.071   2.530  -3.973  0.00  0.00    -0.204 NA
ATOM     15  H   UNL     1       4.569   2.733  -3.166  0.00  0.00    +0.144 HD
ATOM     16  H   UNL     1       3.630   3.242  -4.463  0.00  0.00    +0.144 HD
ENDBRANCH  11  14
ENDBRANCH   7  11
BRANCH  10  17
ATOM     17  O   UNL     1       7.051  -2.368  -0.753  0.00  0.00    -0.494 OA
ATOM     18  C   UNL     1       8.440  -2.549  -1.038  0.00  0.00    +0.277 C 
ENDBRANCH  10  17
ENDBRANCH   2   5
BRANCH   1  19
ATOM     19  C   UNL     1       2.318  -2.356   1.132  0.00  0.00    +0.089 C 
BRANCH  19  28
ATOM     20  N   UNL     1       0.713  -0.490   1.164  0.00  0.00    +0.383 N 
ATOM     21  C   UNL     1      -0.047  -0.112   2.380  0.00  0.00    -0.075 C 
ATOM     22  C   UNL     1      -0.855  -1.376   2.723  0.00  0.00    -0.026 C 
ATOM     23  C   UNL     1      -1.344  -1.393   4.149  0.00  0.00    +0.002 C 
ATOM     24  C   UNL     1      -0.185  -1.463   5.143  0.00  0.00    +0.000 C 
ATOM     25  C   UNL     1       0.618  -2.736   4.850  0.00  0.00    +0.000 C 
ATOM     26  C   UNL     1       1.226  -2.613   3.456  0.00  0.00    +0.002 C 
ATOM     27  C   UNL     1       0.141  -2.506   2.404  0.00  0.00    -0.022 C 
ATOM     28  C   UNL     1       0.840  -1.960   1.128  0.00  0.00    -0.048 C 
ATOM     29  H   UNL     1       1.630  -0.070   1.196  0.00  0.00    -0.081 HD
BRANCH  20  31
ATOM     30  C   UNL     1      -0.025   1.504  -0.052  0.00  0.00    -0.017 C 
ATOM     31  C   UNL     1      -0.004  -0.026  -0.031  0.00  0.00    -0.082 C 
ENDBRANCH  20  31
ENDBRANCH  19  28
ENDBRANCH   1  19
TORSDOF 7
