REMARK  Name = ZINC44334354
REMARK  9 active torsions:
REMARK  status: ('A' for Active; 'I' for Inactive)
REMARK    1  A    between atoms: C_1  and  C_2
REMARK    2  A    between atoms: C_5  and  C_8
REMARK    3  A    between atoms: C_9  and  C_18
REMARK    4  A    between atoms: C_12  and  C_17
REMARK    5  A    between atoms: C_18  and  C_19
REMARK    6  A    between atoms: C_19  and  C_21
REMARK    7  A    between atoms: C_19  and  N_25
REMARK    8  A    between atoms: C_21  and  O_23
REMARK    9  A    between atoms: O_23  and  C_24
REMARK                            x       y       z     vdW  Elec       q    Type
REMARK                         _______ _______ _______ _____ _____    ______ ____
ROOT
ATOM      1  C   UNL     1       0.072  -4.486  -0.041  0.00  0.00    +0.068 A 
ATOM      2  C   UNL     1      -0.657  -5.196   0.865  0.00  0.00    +0.051 A 
ATOM      3  N   UNL     1      -0.407  -6.519   0.633  0.00  0.00    -0.304 N 
ATOM      4  C   UNL     1      -0.861  -7.660   1.231  0.00  0.00    +0.096 A 
ATOM      5  C   UNL     1      -0.450  -8.871   0.801  0.00  0.00    -0.034 A 
ATOM      6  C   UNL     1       0.452  -8.975  -0.271  0.00  0.00    +0.008 A 
ATOM      7  C   UNL     1       0.912  -7.847  -0.876  0.00  0.00    +0.045 A 
ATOM      8  C   UNL     1       0.474  -6.588  -0.415  0.00  0.00    +0.116 A 
ATOM      9  N   UNL     1       0.747  -5.354  -0.812  0.00  0.00    -0.339 N 
ATOM     10  C   UNL     1      -0.962 -10.119   1.474  0.00  0.00    +0.045 C 
ATOM     11  H   UNL     1       1.341  -5.115  -1.540  0.00  0.00    +0.167 HD
ENDROOT
BRANCH   1  16
ATOM     12  C   UNL     1       0.216   1.253  -0.501  0.00  0.00    +0.044 C 
ATOM     13  C   UNL     1       0.178  -0.248  -0.381  0.00  0.00    -0.050 A 
ATOM     14  C   UNL     1      -0.007  -1.026  -1.510  0.00  0.00    +0.004 A 
ATOM     15  C   UNL     1      -0.043  -2.402  -1.405  0.00  0.00    +0.010 A 
ATOM     16  C   UNL     1       0.110  -3.007  -0.160  0.00  0.00    +0.000 A 
ATOM     17  C   UNL     1       0.297  -2.219   0.974  0.00  0.00    +0.010 A 
ATOM     18  C   UNL     1       0.335  -0.845   0.858  0.00  0.00    +0.004 A 
ENDBRANCH   1  16
BRANCH   2  19
ATOM     19  C   UNL     1      -1.567  -4.628   1.923  0.00  0.00    +0.085 C 
BRANCH  19  20
ATOM     20  C   UNL     1      -3.006  -4.609   1.402  0.00  0.00    +0.167 C 
BRANCH  20  21
ATOM     21  N   UNL     1      -3.106  -3.672   0.275  0.00  0.00    -0.318 NA
ATOM     22  H   UNL     1      -2.852  -2.738   0.558  0.00  0.00    +0.119 HD
ATOM     23  H   UNL     1      -2.542  -3.981  -0.503  0.00  0.00    +0.119 HD
ENDBRANCH  20  21
BRANCH  20  24
ATOM     24  C   UNL     1      -3.934  -4.170   2.505  0.00  0.00    +0.324 C 
ATOM     25  O   UNL     1      -4.329  -3.029   2.543  0.00  0.00    -0.249 OA
BRANCH  24  26
ATOM     26  O   UNL     1      -4.321  -5.046   3.445  0.00  0.00    -0.467 OA
ATOM     27  C   UNL     1      -5.202  -4.561   4.461  0.00  0.00    +0.280 C 
ENDBRANCH  24  26
ENDBRANCH  20  24
ENDBRANCH  19  20
ENDBRANCH   2  19
TORSDOF 6
