REMARK  Name = ZINC49972714
REMARK  9 active torsions:
REMARK  status: ('A' for Active; 'I' for Inactive)
REMARK    1  A    between atoms: C_1  and  C_2
REMARK    2  A    between atoms: C_7  and  C_26
REMARK    3  A    between atoms: C_10  and  C_12
REMARK    4  A    between atoms: C_12  and  N_13
REMARK    5  A    between atoms: N_16  and  C_19
REMARK    6  A    between atoms: C_19  and  C_20
REMARK    7  A    between atoms: N_22  and  C_23
REMARK    8  A    between atoms: C_23  and  C_24
REMARK    9  A    between atoms: C_23  and  C_25
REMARK                            x       y       z     vdW  Elec       q    Type
REMARK                         _______ _______ _______ _____ _____    ______ ____
ROOT
ATOM      1  N   UNL     1       2.371   1.033   4.301  0.00  0.00    +0.387 N 
ATOM      2  C   UNL     1       3.110   1.997   3.474  0.00  0.00    -0.063 C 
ATOM      3  C   UNL     1       3.571   3.167   4.346  0.00  0.00    +0.066 C 
ATOM      4  N   UNL     1       4.430   2.662   5.426  0.00  0.00    -0.298 NA
ATOM      5  C   UNL     1       3.711   1.677   6.246  0.00  0.00    +0.066 C 
ATOM      6  C   UNL     1       3.249   0.519   5.360  0.00  0.00    -0.063 C 
ATOM      7  H   UNL     1       1.573   1.489   4.717  0.00  0.00    -0.081 HD
ENDROOT
BRANCH   1   8
ATOM      8  C   UNL     1       1.913  -0.082   3.461  0.00  0.00    +0.019 C 
BRANCH   8  16
ATOM      9  C   UNL     1      -0.338   1.746   0.474  0.00  0.00    +0.028 C 
ATOM     10  C   UNL     1      -0.019   0.276   0.194  0.00  0.00    +0.073 C 
ATOM     11  C   UNL     1      -1.312  -0.476  -0.137  0.00  0.00    +0.022 C 
ATOM     12  C   UNL     1      -1.006  -1.969  -0.280  0.00  0.00    +0.004 C 
ATOM     13  C   UNL     1      -0.459  -2.508   1.044  0.00  0.00    +0.022 C 
ATOM     14  C   UNL     1       0.844  -1.779   1.388  0.00  0.00    +0.073 C 
ATOM     15  N   UNL     1       0.594  -0.331   1.383  0.00  0.00    -0.297 N 
ATOM     16  C   UNL     1       0.917   0.426   2.451  0.00  0.00    +0.199 C 
ATOM     17  O   UNL     1       0.405   1.516   2.599  0.00  0.00    -0.278 OA
ATOM     18  C   UNL     1       1.326  -2.215   2.773  0.00  0.00    +0.028 C 
ENDBRANCH   8  16
ENDBRANCH   1   8
BRANCH   4  19
ATOM     19  C   UNL     1       4.939   3.764   6.252  0.00  0.00    +0.180 C 
BRANCH  19  20
ATOM     20  C   UNL     1       6.000   3.243   7.186  0.00  0.00    +0.227 C 
ATOM     21  O   UNL     1       6.302   2.068   7.166  0.00  0.00    -0.274 OA
ATOM     22  N   UNL     1       6.614   4.081   8.045  0.00  0.00    -0.312 N 
ATOM     23  H   UNL     1       6.372   5.021   8.061  0.00  0.00    +0.149 HD
BRANCH  22  24
ATOM     24  C   UNL     1       7.645   3.574   8.953  0.00  0.00    +0.067 C 
ATOM     25  C   UNL     1       8.995   3.558   8.234  0.00  0.00    +0.027 C 
ATOM     26  C   UNL     1       7.733   4.481  10.182  0.00  0.00    +0.027 C 
ENDBRANCH  22  24
ENDBRANCH  19  20
ENDBRANCH   4  19
TORSDOF 5
