REMARK  Name = ZINC36762445
REMARK  4 active torsions:
REMARK  status: ('A' for Active; 'I' for Inactive)
REMARK    1  A    between atoms: C_1  and  C_2
REMARK    2  A    between atoms: C_4  and  C_7
REMARK    3  A    between atoms: C_7  and  C_9
REMARK    4  A    between atoms: C_7  and  N_21
REMARK                            x       y       z     vdW  Elec       q    Type
REMARK                         _______ _______ _______ _____ _____    ______ ____
ROOT
ATOM      1  C   UNL     1      -1.599  -3.884   1.361  0.00  0.00    -0.050 A 
ATOM      2  C   UNL     1      -2.642  -3.621   2.232  0.00  0.00    +0.052 A 
ATOM      3  C   UNL     1      -2.649  -4.202   3.489  0.00  0.00    +0.163 A 
ATOM      4  C   UNL     1      -1.615  -5.043   3.873  0.00  0.00    +0.176 A 
ATOM      5  C   UNL     1      -0.572  -5.304   2.999  0.00  0.00    +0.063 A 
ATOM      6  C   UNL     1      -0.571  -4.726   1.740  0.00  0.00    +0.021 A 
ATOM      7 BR   UNL     1       0.839  -6.450   3.519  0.00  0.00    -0.046 Br
ATOM      8  O   UNL     1      -1.632  -5.611   5.114  0.00  0.00    -0.487 OA
ATOM      9  C   UNL     1      -1.451  -4.716   6.213  0.00  0.00    +0.232 C 
ATOM     10  C   UNL     1      -2.772  -4.076   6.609  0.00  0.00    +0.082 C 
ATOM     11  C   UNL     1      -3.335  -3.183   5.514  0.00  0.00    +0.232 C 
ATOM     12  O   UNL     1      -3.672  -3.951   4.357  0.00  0.00    -0.488 OA
ENDROOT
BRANCH   1  13
ATOM     13  C   UNL     1      -1.588  -3.254  -0.008  0.00  0.00    +0.029 C 
BRANCH  13  17
ATOM     14  C   UNL     1      -0.018   1.503   0.010  0.00  0.00    +0.112 C 
ATOM     15  C   UNL     1       0.002  -0.004   0.002  0.00  0.00    +0.224 A 
ATOM     16  N   UNL     1      -1.044  -0.783   0.003  0.00  0.00    -0.198 NA
ATOM     17  C   UNL     1      -0.663  -2.065  -0.006  0.00  0.00    +0.162 A 
ATOM     18  N   UNL     1       0.638  -2.118  -0.012  0.00  0.00    -0.063 NA
ATOM     19  O   UNL     1       1.097  -0.774  -0.013  0.00  0.00    -0.338 OA
ENDBRANCH  13  17
BRANCH  13  20
ATOM     20  N   UNL     1      -1.120  -4.237  -0.995  0.00  0.00    +0.387 N 
ATOM     21  H   UNL     1      -1.113  -3.815  -1.911  0.00  0.00    -0.089 HD
ATOM     22  H   UNL     1      -0.187  -4.537  -0.755  0.00  0.00    -0.089 HD
ATOM     23  H   UNL     1      -1.740  -5.033  -0.996  0.00  0.00    -0.089 HD
ENDBRANCH  13  20
ENDBRANCH   1  13
TORSDOF 3
