REMARK  Name = ZINC33637989
REMARK  4 active torsions:
REMARK  status: ('A' for Active; 'I' for Inactive)
REMARK    1  A    between atoms: C_6  and  C_7
REMARK    2  A    between atoms: C_18  and  C_20
REMARK    3  A    between atoms: C_18  and  C_27
REMARK    4  A    between atoms: C_20  and  C_21
REMARK                            x       y       z     vdW  Elec       q    Type
REMARK                         _______ _______ _______ _____ _____    ______ ____
ROOT
ATOM      1  C   UNL     1       3.498  -0.552  -0.516  0.00  0.00    -0.025 C 
ATOM      2  C   UNL     1       4.307  -0.829  -1.771  0.00  0.00    +0.078 C 
ATOM      3  C   UNL     1       3.672  -2.221  -2.155  0.00  0.00    +0.087 C 
ATOM      4  C   UNL     1       4.113  -2.360  -3.528  0.00  0.00    +0.242 C 
ATOM      5  O   UNL     1       4.408  -3.387  -4.101  0.00  0.00    -0.273 OA
ATOM      6  N   UNL     1       4.137  -1.084  -4.035  0.00  0.00    -0.145 NA
ATOM      7  C   UNL     1       4.027  -0.129  -3.062  0.00  0.00    +0.242 C 
ATOM      8  O   UNL     1       3.757   1.043  -3.216  0.00  0.00    -0.273 OA
ATOM      9  C   UNL     1       3.728  -2.938  -0.867  0.00  0.00    +0.048 C 
ATOM     10  N   UNL     1       3.253  -1.891   0.103  0.00  0.00    +0.396 N 
ATOM     11  H   UNL     1       3.811  -1.965   1.048  0.00  0.00    -0.083 HD
ATOM     12  H   UNL     1       2.178  -2.013   0.301  0.00  0.00    -0.083 HD
ENDROOT
BRANCH   1  18
ATOM     13  C   UNL     1       1.031  -0.649  -0.928  0.00  0.00    +0.023 A 
ATOM     14  C   UNL     1      -0.171  -0.047  -1.256  0.00  0.00    +0.043 A 
ATOM     15  C   UNL     1      -0.215   1.309  -1.528  0.00  0.00    +0.041 A 
ATOM     16  C   UNL     1       0.944   2.062  -1.473  0.00  0.00    +0.061 A 
ATOM     17  C   UNL     1       2.146   1.460  -1.145  0.00  0.00    +0.061 A 
ATOM     18  C   UNL     1       2.189   0.104  -0.873  0.00  0.00    -0.039 A 
ATOM     19 CL   UNL     1       3.601   2.405  -1.075  0.00  0.00    -0.082 Cl
ATOM     20 CL   UNL     1       0.890   3.764  -1.815  0.00  0.00    -0.082 Cl
ATOM     21 CL   UNL     1      -1.625  -0.993  -1.326  0.00  0.00    -0.083 Cl
ENDBRANCH   1  18
BRANCH   9  22
ATOM     22  C   UNL     1       5.139  -3.361  -0.550  0.00  0.00    +0.346 C 
ATOM     23  O   UNL     1       5.926  -3.560  -1.445  0.00  0.00    -0.248 OA
ATOM     24  O   UNL     1       5.522  -3.519   0.727  0.00  0.00    -0.248 OA
ENDBRANCH   9  22
BRANCH   9  25
ATOM     25  C   UNL     1       2.784  -4.142  -0.873  0.00  0.00    +0.003 C 
BRANCH  25  26
ATOM     26  C   UNL     1       2.951  -4.926   0.431  0.00  0.00    -0.012 C 
ATOM     27  C   UNL     1       2.161  -6.234   0.343  0.00  0.00    +0.003 C 
ATOM     28  C   UNL     1       2.327  -7.018   1.647  0.00  0.00    +0.000 C 
ATOM     29  C   UNL     1       1.802  -6.182   2.815  0.00  0.00    +0.000 C 
ATOM     30  C   UNL     1       2.591  -4.874   2.903  0.00  0.00    +0.000 C 
ATOM     31  C   UNL     1       2.425  -4.090   1.599  0.00  0.00    +0.003 C 
ENDBRANCH  25  26
ENDBRANCH   9  25
TORSDOF 4
