REMARK  Name = ZINC13895892
REMARK  4 active torsions:
REMARK  status: ('A' for Active; 'I' for Inactive)
REMARK    1  A    between atoms: C_3  and  N_8
REMARK    2  A    between atoms: N_8  and  N_9
REMARK    3  A    between atoms: C_10  and  C_11
REMARK    4  A    between atoms: C_16  and  O_17
REMARK                            x       y       z     vdW  Elec       q    Type
REMARK                         _______ _______ _______ _____ _____    ______ ____
ROOT
ATOM      1  N   UNL     1       4.791   1.273  -0.037  0.00  0.00    -0.189 NA
ATOM      2  C   UNL     1       5.929   1.897  -0.044  0.00  0.00    +0.142 C 
ENDROOT
BRANCH   2   3
ATOM      3  C   UNL     1       7.189   1.132  -0.060  0.00  0.00    +0.037 A 
ATOM      4  C   UNL     1       8.416   1.800  -0.063  0.00  0.00    +0.028 A 
ATOM      5  C   UNL     1       9.591   1.077  -0.078  0.00  0.00    +0.019 A 
ATOM      6  C   UNL     1       9.559  -0.308  -0.091  0.00  0.00    +0.019 A 
ATOM      7  C   UNL     1       8.351  -0.979  -0.089  0.00  0.00    +0.047 A 
ATOM      8  C   UNL     1       7.162  -0.269  -0.068  0.00  0.00    +0.126 A 
ATOM      9 BR   UNL     1      11.252   1.981  -0.082  0.00  0.00    -0.050 Br
BRANCH   8  10
ATOM     10  O   UNL     1       5.974  -0.928  -0.059  0.00  0.00    -0.506 OA
ATOM     11  H   UNL     1       5.622  -1.115  -0.940  0.00  0.00    +0.292 HD
ENDBRANCH   8  10
ENDBRANCH   2   3
BRANCH   1  12
ATOM     12  N   UNL     1       3.593   2.000  -0.021  0.00  0.00    -0.221 N 
ATOM     13  H   UNL     1       3.615   2.970  -0.017  0.00  0.00    +0.176 HD
BRANCH  12  16
ATOM     14  C   UNL     1      -0.017   1.384   0.010  0.00  0.00    +0.006 A 
ATOM     15  C   UNL     1       1.190   2.061   0.002  0.00  0.00    +0.045 A 
ATOM     16  C   UNL     1       2.375   1.333  -0.013  0.00  0.00    +0.140 A 
ATOM     17  N   UNL     1       2.353   0.008  -0.021  0.00  0.00    -0.219 NA
ATOM     18  C   UNL     1       1.217  -0.665  -0.014  0.00  0.00    +0.131 A 
ATOM     19  C   UNL     1       0.002  -0.004   0.002  0.00  0.00    +0.040 A 
ATOM     20 CL   UNL     1       1.248  -2.401  -0.024  0.00  0.00    -0.062 Cl
ENDBRANCH  12  16
ENDBRANCH   1  12
TORSDOF 4
