REMARK  Name = ZINC37487473
REMARK  2 active torsions:
REMARK  status: ('A' for Active; 'I' for Inactive)
REMARK    1  A    between atoms: N_10  and  C_13
REMARK    2  A    between atoms: C_20  and  O_22
REMARK                            x       y       z     vdW  Elec       q    Type
REMARK                         _______ _______ _______ _____ _____    ______ ____
ROOT
ATOM      1  C   UNL     1      -0.017   1.379  -0.013  0.00  0.00    +0.005 A 
ATOM      2  C   UNL     1       1.195   2.058   0.002  0.00  0.00    +0.018 A 
ATOM      3  C   UNL     1       2.373   1.339   0.009  0.00  0.00    +0.084 A 
ATOM      4  N   UNL     1       2.361   0.020   0.001  0.00  0.00    -0.350 N 
ATOM      5  C   UNL     1       1.227  -0.664  -0.014  0.00  0.00    +0.099 A 
ATOM      6  C   UNL     1       0.002  -0.004  -0.021  0.00  0.00    +0.042 A 
ATOM      7  N   UNL     1       1.260  -2.054  -0.022  0.00  0.00    -0.314 N 
ATOM      8  C   UNL     1       2.535  -2.777  -0.142  0.00  0.00    +0.122 C 
ATOM      9  C   UNL     1       2.407  -3.805  -1.271  0.00  0.00    +0.104 C 
ATOM     10  N   UNL     1       1.232  -4.653  -1.026  0.00  0.00    -0.292 NA
ATOM     11  C   UNL     1      -0.007  -3.865  -1.049  0.00  0.00    +0.104 C 
ATOM     12  C   UNL     1       0.023  -2.839   0.095  0.00  0.00    +0.122 C 
ATOM     13  H   UNL     1       3.203  -0.461   0.006  0.00  0.00    +0.166 HD
ENDROOT
BRANCH  10  14
ATOM     14  C   UNL     1       1.171  -5.759  -1.990  0.00  0.00    +0.108 C 
ATOM     15  C   UNL     1       0.989  -5.169  -3.407  0.00  0.00    +0.187 C 
ATOM     16  S   UNL     1      -0.131  -6.418  -4.176  0.00  0.00    -0.027 S 
ATOM     17  O   UNL     1       0.638  -7.522  -4.633  0.00  0.00    -0.174 OA
ATOM     18  O   UNL     1      -1.024  -5.764  -5.067  0.00  0.00    -0.174 OA
ATOM     19  C   UNL     1      -1.038  -6.899  -2.642  0.00  0.00    +0.198 C 
ATOM     20  C   UNL     1       0.056  -6.706  -1.573  0.00  0.00    +0.154 C 
BRANCH  20  21
ATOM     21  O   UNL     1       0.628  -7.981  -1.276  0.00  0.00    -0.389 OA
ATOM     22  H   UNL     1      -0.017  -8.647  -1.000  0.00  0.00    +0.210 HD
ENDBRANCH  20  21
ENDBRANCH  10  14
TORSDOF 2
