REMARK  Name = ZINC36737998
REMARK  7 active torsions:
REMARK  status: ('A' for Active; 'I' for Inactive)
REMARK    1  A    between atoms: C_1  and  O_2
REMARK    2  A    between atoms: O_2  and  C_3
REMARK    3  A    between atoms: C_5  and  N_20
REMARK    4  A    between atoms: C_6  and  N_11
REMARK    5  A    between atoms: C_8  and  O_9
REMARK    6  A    between atoms: O_9  and  C_10
REMARK    7  A    between atoms: C_12  and  C_14
REMARK                            x       y       z     vdW  Elec       q    Type
REMARK                         _______ _______ _______ _____ _____    ______ ____
ROOT
ATOM      1  C   UNL     1       0.630  -0.620  -1.037  0.00  0.00    +0.163 A 
ATOM      2  C   UNL     1       1.188   0.152  -2.043  0.00  0.00    +0.074 A 
ATOM      3  C   UNL     1       1.797  -0.458  -3.129  0.00  0.00    +0.050 A 
ATOM      4  C   UNL     1       1.847  -1.849  -3.208  0.00  0.00    +0.058 A 
ATOM      5  C   UNL     1       1.287  -2.620  -2.199  0.00  0.00    +0.074 A 
ATOM      6  C   UNL     1       0.684  -2.008  -1.113  0.00  0.00    +0.163 A 
ENDROOT
BRANCH   4   7
ATOM      7  N   UNL     1       2.462  -2.469  -4.305  0.00  0.00    -0.279 N 
ATOM      8  C   UNL     1       2.104  -3.718  -4.662  0.00  0.00    +0.255 C 
ATOM      9  O   UNL     1       1.178  -4.271  -4.096  0.00  0.00    -0.269 OA
ATOM     10  H   UNL     1       3.145  -1.998  -4.808  0.00  0.00    +0.155 HD
BRANCH   8  11
ATOM     11  C   UNL     1       2.828  -4.411  -5.730  0.00  0.00    +0.075 A 
ATOM     12  C   UNL     1       2.619  -5.681  -6.247  0.00  0.00    +0.022 A 
ATOM     13  C   UNL     1       3.468  -6.061  -7.258  0.00  0.00    +0.024 A 
ATOM     14  C   UNL     1       4.427  -5.196  -7.673  0.00  0.00    +0.056 A 
ATOM     15  S   UNL     1       4.203  -3.838  -6.710  0.00  0.00    -0.077 S 
ATOM     16 BR   UNL     1       5.718  -5.457  -9.031  0.00  0.00    -0.043 Br
ENDBRANCH   8  11
ENDBRANCH   4   7
BRANCH   3  17
ATOM     17  N   UNL     1       2.362   0.322  -4.147  0.00  0.00    -0.356 N 
ATOM     18  H   UNL     1       2.327   1.290  -4.092  0.00  0.00    +0.142 HD
ATOM     19  H   UNL     1       2.787  -0.105  -4.906  0.00  0.00    +0.142 HD
ENDBRANCH   3  17
BRANCH   1  21
ATOM     20  C   UNL     1       0.013   1.408   0.042  0.00  0.00    +0.277 C 
ATOM     21  O   UNL     1       0.033  -0.020   0.029  0.00  0.00    -0.491 OA
ENDBRANCH   1  21
BRANCH   6  22
ATOM     22  O   UNL     1       0.139  -2.765  -0.121  0.00  0.00    -0.491 OA
ATOM     23  C   UNL     1       0.231  -4.184  -0.264  0.00  0.00    +0.277 C 
ENDBRANCH   6  22
TORSDOF 5
