REMARK  Name = ZINC04019747
REMARK  8 active torsions:
REMARK  status: ('A' for Active; 'I' for Inactive)
REMARK    1  A    between atoms: C_1  and  C_2
REMARK    2  A    between atoms: C_2  and  O_3
REMARK    3  A    between atoms: O_3  and  C_4
REMARK    4  A    between atoms: C_11  and  C_12
REMARK    5  A    between atoms: C_11  and  N_51
REMARK    6  A    between atoms: N_16  and  C_17
REMARK    7  A    between atoms: C_17  and  C_18
REMARK    8  A    between atoms: N_27  and  C_28
REMARK                            x       y       z     vdW  Elec       q    Type
REMARK                         _______ _______ _______ _____ _____    ______ ____
ROOT
ATOM      1  C   UNL     1      -1.010   3.470  -0.939  0.00  0.00    +0.096 A 
ATOM      2  N   UNL     1      -0.211   4.399  -1.396  0.00  0.00    -0.216 NA
ATOM      3  C   UNL     1      -0.683   5.604  -1.067  0.00  0.00    +0.168 A 
ATOM      4  C   UNL     1      -1.859   5.405  -0.355  0.00  0.00    +0.152 A 
ATOM      5  N   UNL     1      -2.047   4.038  -0.293  0.00  0.00    -0.315 N 
ATOM      6  C   UNL     1      -2.574   6.525   0.120  0.00  0.00    +0.280 A 
ATOM      7  O   UNL     1      -3.608   6.376   0.747  0.00  0.00    -0.265 OA
ATOM      8  N   UNL     1      -2.099   7.764  -0.129  0.00  0.00    -0.273 N 
ATOM      9  H   UNL     1      -2.603   8.561   0.205  0.00  0.00    +0.173 HD
ATOM     10  C   UNL     1      -0.960   7.942  -0.819  0.00  0.00    +0.331 A 
ATOM     11  O   UNL     1      -0.562   9.073  -1.024  0.00  0.00    -0.246 OA
ATOM     12  N   UNL     1      -0.247   6.901  -1.289  0.00  0.00    -0.280 N 
ATOM     13  C   UNL     1       0.990   7.138  -2.036  0.00  0.00    +0.155 C 
ENDROOT
BRANCH   1  14
ATOM     14  C   UNL     1      -0.806   1.987  -1.115  0.00  0.00    -0.003 C 
BRANCH  14  22
ATOM     15  C   UNL     1       3.103  -0.606   1.613  0.00  0.00    +0.403 C 
ATOM     16  O   UNL     1       3.021  -1.815   1.710  0.00  0.00    -0.226 OA
ATOM     17  N   UNL     1       1.995   0.130   1.400  0.00  0.00    -0.271 N 
ATOM     18  C   UNL     1       0.675  -0.509   1.282  0.00  0.00    +0.092 C 
ATOM     19  C   UNL     1       0.002  -0.004   0.002  0.00  0.00    -0.059 C 
ATOM     20  C   UNL     1       1.344   2.016   0.000  0.00  0.00    -0.059 C 
ATOM     21  C   UNL     1       2.072   1.594   1.280  0.00  0.00    +0.092 C 
ATOM     22  N   UNL     1      -0.032   1.474   0.035  0.00  0.00    +0.386 N 
ATOM     23  H   UNL     1      -0.487   1.777   0.905  0.00  0.00    -0.081 HD
BRANCH  15  24
ATOM     24  O   UNL     1       4.302  -0.003   1.718  0.00  0.00    -0.451 OA
BRANCH  24  26
ATOM     25  C   UNL     1       6.716   0.000   2.038  0.00  0.00    +0.048 C 
ATOM     26  C   UNL     1       5.453  -0.858   1.947  0.00  0.00    +0.230 C 
ENDBRANCH  24  26
ENDBRANCH  15  24
ENDBRANCH  14  22
ENDBRANCH   1  14
BRANCH   5  27
ATOM     27  C   UNL     1      -3.160   3.340   0.354  0.00  0.00    +0.219 C 
BRANCH  27  28
ATOM     28  C   UNL     1      -2.808   3.057   1.791  0.00  0.00    +0.230 C 
ATOM     29  O   UNL     1      -1.733   3.405   2.232  0.00  0.00    -0.274 OA
ATOM     30  N   UNL     1      -3.687   2.417   2.587  0.00  0.00    -0.328 N 
ATOM     31  H   UNL     1      -4.547   2.139   2.235  0.00  0.00    +0.145 HD
ATOM     32  H   UNL     1      -3.461   2.236   3.513  0.00  0.00    +0.145 HD
ENDBRANCH  27  28
ENDBRANCH   5  27
TORSDOF 6
