REMARK  Name = ZINC62958809
REMARK  8 active torsions:
REMARK  status: ('A' for Active; 'I' for Inactive)
REMARK    1  A    between atoms: C_1  and  C_2
REMARK    2  A    between atoms: C_2  and  C_3
REMARK    3  A    between atoms: C_3  and  C_20
REMARK    4  A    between atoms: N_6  and  C_9
REMARK    5  A    between atoms: C_9  and  C_11
REMARK    6  A    between atoms: C_9  and  C_12
REMARK    7  A    between atoms: C_12  and  N_13
REMARK    8  A    between atoms: N_13  and  C_14
REMARK                            x       y       z     vdW  Elec       q    Type
REMARK                         _______ _______ _______ _____ _____    ______ ____
ROOT
ATOM      1  C   UNL     1      -4.844  -2.680   1.448  0.00  0.00    -0.089 C 
ATOM      2  C   UNL     1      -4.678  -4.199   1.377  0.00  0.00    -0.015 C 
ENDROOT
BRANCH   1   6
ATOM      3  C   UNL     1      -0.697  -2.055   0.697  0.00  0.00    -0.036 C 
ATOM      4  C   UNL     1      -1.729  -1.562  -0.321  0.00  0.00    -0.012 C 
ATOM      5  C   UNL     1      -3.051  -2.299  -0.096  0.00  0.00    -0.078 C 
ATOM      6  N   UNL     1      -3.538  -2.035   1.263  0.00  0.00    +0.380 N 
ATOM      7  C   UNL     1      -2.587  -2.569   2.245  0.00  0.00    -0.078 C 
ATOM      8  C   UNL     1      -1.246  -1.842   2.111  0.00  0.00    -0.012 C 
ATOM      9  C   UNL     1      -0.424  -3.544   0.473  0.00  0.00    +0.011 C 
ATOM     10  H   UNL     1      -3.634  -1.039   1.397  0.00  0.00    -0.082 HD
BRANCH   3  12
ATOM     11  C   UNL     1       1.152  -1.480  -0.882  0.00  0.00    +0.004 C 
ATOM     12  C   UNL     1       0.604  -1.266   0.530  0.00  0.00    +0.003 C 
ENDBRANCH   3  12
ENDBRANCH   1   6
BRANCH   1  13
ATOM     13  C   UNL     1      -5.415  -2.293   2.814  0.00  0.00    -0.098 C 
BRANCH  13  14
ATOM     14  N   UNL     1      -5.489  -0.830   2.917  0.00  0.00    +0.380 N 
ATOM     15  H   UNL     1      -4.575  -0.435   2.752  0.00  0.00    -0.086 HD
ATOM     16  H   UNL     1      -6.137  -0.476   2.230  0.00  0.00    -0.086 HD
BRANCH  14  17
ATOM     17  C   UNL     1      -5.949  -0.456   4.261  0.00  0.00    -0.072 C 
ATOM     18  C   UNL     1      -7.383  -0.949   4.465  0.00  0.00    -0.016 C 
ATOM     19  C   UNL     1      -7.862  -0.560   5.865  0.00  0.00    -0.002 C 
ATOM     20  C   UNL     1      -7.819   0.962   6.014  0.00  0.00    -0.000 C 
ATOM     21  C   UNL     1      -6.385   1.455   5.811  0.00  0.00    -0.002 C 
ATOM     22  C   UNL     1      -5.906   1.066   4.410  0.00  0.00    -0.016 C 
ENDBRANCH  14  17
ENDBRANCH  13  14
ENDBRANCH   1  13
TORSDOF 5
