REMARK  Name = ZINC63526251
REMARK  8 active torsions:
REMARK  status: ('A' for Active; 'I' for Inactive)
REMARK    1  A    between atoms: C_1  and  C_2
REMARK    2  A    between atoms: C_3  and  C_7
REMARK    3  A    between atoms: C_11  and  S_13
REMARK    4  A    between atoms: S_13  and  C_14
REMARK    5  A    between atoms: C_14  and  C_15
REMARK    6  A    between atoms: N_17  and  C_18
REMARK    7  A    between atoms: C_18  and  C_19
REMARK    8  A    between atoms: C_19  and  C_20
REMARK                            x       y       z     vdW  Elec       q    Type
REMARK                         _______ _______ _______ _____ _____    ______ ____
ROOT
ATOM      1  C   UNL     1      -6.765  -1.970  -4.498  0.00  0.00    +0.223 C 
ATOM      2  O   UNL     1      -6.516  -1.151  -5.357  0.00  0.00    -0.275 OA
ATOM      3  N   UNL     1      -7.741  -2.879  -4.696  0.00  0.00    -0.314 N 
ATOM      4  H   UNL     1      -7.940  -3.534  -4.009  0.00  0.00    +0.149 HD
ENDROOT
BRANCH   1   5
ATOM      5  C   UNL     1      -5.984  -1.972  -3.209  0.00  0.00    +0.174 C 
BRANCH   5   6
ATOM      6  S   UNL     1      -4.753  -0.640  -3.247  0.00  0.00    -0.057 S 
BRANCH   6  10
ATOM      7  C   UNL     1      -2.521  -0.369   0.012  0.00  0.00    +0.313 C 
ATOM      8  N   UNL     1      -3.402  -1.507   0.324  0.00  0.00    -0.223 N 
ATOM      9  N   UNL     1      -4.226  -1.657  -0.801  0.00  0.00    -0.139 NA
ATOM     10  C   UNL     1      -3.935  -0.772  -1.692  0.00  0.00    +0.269 C 
ATOM     11  O   UNL     1      -2.929   0.047  -1.299  0.00  0.00    -0.443 OA
ATOM     12  H   UNL     1      -3.411  -2.040   1.134  0.00  0.00    +0.172 HD
BRANCH   7  15
ATOM     13  C   UNL     1      -0.018   1.503   0.010  0.00  0.00    +0.086 C 
ATOM     14  C   UNL     1       0.002  -0.004   0.002  0.00  0.00    +0.110 A 
ATOM     15  C   UNL     1      -1.078  -0.805   0.003  0.00  0.00    +0.053 A 
ATOM     16  C   UNL     1      -0.601  -2.136  -0.007  0.00  0.00    +0.050 A 
ATOM     17  C   UNL     1       0.742  -2.069  -0.013  0.00  0.00    +0.195 A 
ATOM     18  O   UNL     1       1.102  -0.775  -0.013  0.00  0.00    -0.468 OA
ENDBRANCH   7  15
ENDBRANCH   6  10
ENDBRANCH   5   6
ENDBRANCH   1   5
BRANCH   3  19
ATOM     19  C   UNL     1      -8.500  -2.878  -5.949  0.00  0.00    +0.108 C 
BRANCH  19  20
ATOM     20  C   UNL     1      -9.538  -4.001  -5.917  0.00  0.00    +0.065 C 
BRANCH  20  21
ATOM     21  C   UNL     1     -10.331  -4.000  -7.226  0.00  0.00    +0.175 C 
ATOM     22  N   UNL     1     -11.076  -2.742  -7.363  0.00  0.00    -0.363 N 
ATOM     23  C   UNL     1     -12.341  -3.042  -7.419  0.00  0.00    +0.060 A 
ATOM     24  C   UNL     1     -13.556  -2.225  -7.552  0.00  0.00    +0.027 A 
ATOM     25  C   UNL     1     -14.761  -2.828  -7.583  0.00  0.00    +0.002 A 
ATOM     26  C   UNL     1     -14.915  -4.223  -7.491  0.00  0.00    +0.002 A 
ATOM     27  C   UNL     1     -13.868  -5.062  -7.365  0.00  0.00    +0.027 A 
ATOM     28  C   UNL     1     -12.503  -4.518  -7.322  0.00  0.00    +0.060 A 
ATOM     29  N   UNL     1     -11.332  -5.074  -7.210  0.00  0.00    -0.363 N 
ATOM     30  H   UNL     1     -10.694  -1.851  -7.403  0.00  0.00    +0.162 HD
ATOM     31  H   UNL     1     -11.153  -6.024  -7.130  0.00  0.00    +0.162 HD
ENDBRANCH  20  21
ENDBRANCH  19  20
ENDBRANCH   3  19
TORSDOF 7
