REMARK  Name = ZINC38028568
REMARK  7 active torsions:
REMARK  status: ('A' for Active; 'I' for Inactive)
REMARK    1  A    between atoms: C_1  and  C_2
REMARK    2  A    between atoms: C_2  and  C_4
REMARK    3  A    between atoms: C_2  and  N_18
REMARK    4  A    between atoms: C_4  and  N_5
REMARK    5  A    between atoms: N_5  and  C_6
REMARK    6  A    between atoms: C_6  and  C_8
REMARK    7  A    between atoms: C_6  and  C_9
REMARK                            x       y       z     vdW  Elec       q    Type
REMARK                         _______ _______ _______ _____ _____    ______ ____
ROOT
ATOM      1  N   UNL     1      -1.668  -1.815  -0.282  0.00  0.00    +0.384 N 
ATOM      2  H   UNL     1      -1.191  -2.051  -1.139  0.00  0.00    -0.085 HD
ATOM      3  H   UNL     1      -1.274  -2.346   0.480  0.00  0.00    -0.085 HD
ENDROOT
BRANCH   1   4
ATOM      4  C   UNL     1      -3.096  -2.131  -0.412  0.00  0.00    -0.044 C 
ATOM      5  C   UNL     1      -3.797  -1.889   0.926  0.00  0.00    -0.009 C 
BRANCH   4   6
ATOM      6  C   UNL     1      -3.256  -3.576  -0.809  0.00  0.00    -0.058 A 
ATOM      7  C   UNL     1      -2.444  -4.541  -0.242  0.00  0.00    +0.006 A 
ATOM      8  C   UNL     1      -2.587  -5.868  -0.603  0.00  0.00    +0.050 A 
ATOM      9  C   UNL     1      -3.546  -6.234  -1.534  0.00  0.00    +0.166 A 
ATOM     10  C   UNL     1      -4.363  -5.262  -2.105  0.00  0.00    +0.166 A 
ATOM     11  C   UNL     1      -4.218  -3.935  -1.735  0.00  0.00    +0.051 A 
ATOM     12  O   UNL     1      -5.215  -5.869  -2.983  0.00  0.00    -0.453 OA
ATOM     13  C   UNL     1      -4.638  -7.161  -3.247  0.00  0.00    +0.466 C 
ATOM     14  O   UNL     1      -3.885  -7.450  -2.054  0.00  0.00    -0.453 OA
ENDBRANCH   4   6
ENDBRANCH   1   4
BRANCH   1  15
ATOM     15  C   UNL     1      -1.507  -0.379  -0.012  0.00  0.00    -0.063 C 
BRANCH  15  17
ATOM     16  C   UNL     1       0.147   1.482   0.196  0.00  0.00    +0.022 C 
ATOM     17  C   UNL     1      -0.018  -0.026  -0.005  0.00  0.00    +0.037 C 
BRANCH  17  18
ATOM     18  N   UNL     1       0.585  -0.418  -1.286  0.00  0.00    -0.301 NA
ATOM     19  C   UNL     1       2.051  -0.365  -1.215  0.00  0.00    +0.084 C 
ATOM     20  C   UNL     1       2.645  -0.917  -2.513  0.00  0.00    +0.015 C 
ATOM     21  C   UNL     1       2.142  -0.084  -3.694  0.00  0.00    +0.002 C 
ATOM     22  C   UNL     1       0.612  -0.116  -3.716  0.00  0.00    +0.015 C 
ATOM     23  C   UNL     1       0.076   0.413  -2.384  0.00  0.00    +0.084 C 
ENDBRANCH  17  18
ENDBRANCH  15  17
ENDBRANCH   1  15
TORSDOF 5
