REMARK  Name = ZINC50092898
REMARK  7 active torsions:
REMARK  status: ('A' for Active; 'I' for Inactive)
REMARK    1  A    between atoms: C_1  and  C_2
REMARK    2  A    between atoms: C_7  and  C_9
REMARK    3  A    between atoms: C_7  and  N_11
REMARK    4  A    between atoms: C_9  and  N_10
REMARK    5  A    between atoms: N_11  and  C_12
REMARK    6  A    between atoms: N_11  and  S_13
REMARK    7  A    between atoms: S_13  and  N_16
REMARK                            x       y       z     vdW  Elec       q    Type
REMARK                         _______ _______ _______ _____ _____    ______ ____
ROOT
ATOM      1  C   UNL     1       0.564   0.924  -1.166  0.00  0.00    +0.007 C 
ATOM      2  C   UNL     1       0.510  -0.542  -0.734  0.00  0.00    -0.012 C 
ATOM      3  C   UNL     1       1.241  -1.405  -1.765  0.00  0.00    +0.003 C 
ATOM      4  C   UNL     1       1.188  -2.872  -1.334  0.00  0.00    +0.002 C 
ATOM      5  C   UNL     1       1.862  -3.027   0.031  0.00  0.00    +0.022 C 
ATOM      6  C   UNL     1       1.131  -2.165   1.062  0.00  0.00    +0.029 C 
ATOM      7  C   UNL     1       1.185  -0.698   0.630  0.00  0.00    +0.025 C 
ENDROOT
BRANCH   6   8
ATOM      8  N   UNL     1      -0.266  -2.595   1.156  0.00  0.00    -0.165 NA
ATOM      9  C   UNL     1      -1.340  -1.599   1.170  0.00  0.00    +0.133 C 
BRANCH   8  10
ATOM     10  S   UNL     1      -0.632  -4.208   1.246  0.00  0.00    +0.100 S 
ATOM     11  O   UNL     1      -1.643  -4.450   0.277  0.00  0.00    -0.141 OA
ATOM     12  O   UNL     1       0.606  -4.905   1.245  0.00  0.00    -0.141 OA
BRANCH  10  13
ATOM     13  N   UNL     1      -1.323  -4.471   2.727  0.00  0.00    -0.166 NA
ATOM     14  C   UNL     1      -0.595  -4.724   3.980  0.00  0.00    +0.110 C 
ATOM     15  C   UNL     1      -1.649  -4.936   5.087  0.00  0.00    +0.018 C 
ATOM     16  C   UNL     1      -2.913  -5.351   4.289  0.00  0.00    +0.018 C 
ATOM     17  C   UNL     1      -2.770  -4.485   3.010  0.00  0.00    +0.110 C 
ENDBRANCH  10  13
ENDBRANCH   8  10
ENDBRANCH   6   8
BRANCH   6  18
ATOM     18  C   UNL     1       1.805  -2.320   2.426  0.00  0.00    -0.062 C 
BRANCH  18  19
ATOM     19  N   UNL     1       1.875  -3.744   2.779  0.00  0.00    +0.379 N 
ATOM     20  H   UNL     1       2.389  -3.853   3.640  0.00  0.00    -0.090 HD
ATOM     21  H   UNL     1       0.942  -4.108   2.896  0.00  0.00    -0.090 HD
ATOM     22  H   UNL     1       2.343  -4.250   2.042  0.00  0.00    -0.090 HD
ENDBRANCH  18  19
ENDBRANCH   6  18
TORSDOF 5
