REMARK  Name = ZINC48974169
REMARK  6 active torsions:
REMARK  status: ('A' for Active; 'I' for Inactive)
REMARK    1  A    between atoms: C_1  and  C_2
REMARK    2  A    between atoms: C_5  and  C_7
REMARK    3  A    between atoms: C_7  and  C_9
REMARK    4  A    between atoms: C_7  and  N_10
REMARK    5  A    between atoms: C_11  and  C_13
REMARK    6  A    between atoms: N_18  and  C_20
REMARK                            x       y       z     vdW  Elec       q    Type
REMARK                         _______ _______ _______ _____ _____    ______ ____
ROOT
ATOM      1  N   UNL     1       2.210  -4.147   0.855  0.00  0.00    -0.303 N 
ATOM      2  C   UNL     1       2.553  -5.328   1.406  0.00  0.00    +0.265 C 
ATOM      3  O   UNL     1       1.894  -6.323   1.171  0.00  0.00    -0.268 OA
ATOM      4  H   UNL     1       2.735  -3.354   1.042  0.00  0.00    +0.150 HD
ENDROOT
BRANCH   2   5
ATOM      5  C   UNL     1       3.731  -5.415   2.296  0.00  0.00    +0.146 A 
ATOM      6  C   UNL     1       4.092  -6.658   2.869  0.00  0.00    +0.040 A 
ATOM      7  C   UNL     1       5.184  -6.699   3.684  0.00  0.00    +0.074 A 
ATOM      8  C   UNL     1       5.889  -5.495   3.908  0.00  0.00    +0.267 A 
ATOM      9  O   UNL     1       6.872  -5.484   4.629  0.00  0.00    -0.266 OA
ATOM     10  N   UNL     1       5.469  -4.361   3.318  0.00  0.00    -0.232 N 
ATOM     11  N   UNL     1       4.441  -4.339   2.549  0.00  0.00    -0.164 NA
ATOM     12  C   UNL     1       6.207  -3.118   3.556  0.00  0.00    +0.176 C 
ENDBRANCH   2   5
BRANCH   1  13
ATOM     13  C   UNL     1       1.043  -4.062  -0.027  0.00  0.00    +0.107 C 
ATOM     14  C   UNL     1       1.452  -4.441  -1.452  0.00  0.00    +0.033 C 
BRANCH  13  19
ATOM     15  C   UNL     1      -0.018   1.503   0.010  0.00  0.00    +0.051 C 
ATOM     16  C   UNL     1       0.002  -0.004   0.002  0.00  0.00    -0.013 A 
ATOM     17  C   UNL     1      -1.039  -0.872   0.002  0.00  0.00    +0.011 A 
ATOM     18  C   UNL     1      -0.780  -2.230  -0.007  0.00  0.00    +0.013 A 
ATOM     19  C   UNL     1       0.507  -2.653  -0.016  0.00  0.00    +0.010 A 
ATOM     20  S   UNL     1       1.404  -1.109  -0.018  0.00  0.00    -0.097 S 
ENDBRANCH  13  19
ENDBRANCH   1  13
TORSDOF 3
