REMARK  Name = ZINC63084076
REMARK  11 active torsions:
REMARK  status: ('A' for Active; 'I' for Inactive)
REMARK    1  A    between atoms: C_1  and  C_2
REMARK    2  A    between atoms: C_2  and  N_3
REMARK    3  A    between atoms: N_3  and  C_4
REMARK    4  A    between atoms: N_3  and  C_17
REMARK    5  A    between atoms: C_4  and  C_5
REMARK    6  A    between atoms: N_11  and  C_14
REMARK    7  A    between atoms: N_15  and  N_16
REMARK    8  A    between atoms: C_17  and  C_19
REMARK    9  A    between atoms: C_17  and  C_20
REMARK   10  A    between atoms: C_20  and  O_21
REMARK   11  A    between atoms: O_21  and  C_22
REMARK                            x       y       z     vdW  Elec       q    Type
REMARK                         _______ _______ _______ _____ _____    ______ ____
ROOT
ATOM      1  C   UNL     1       2.847  -1.140  -0.377  0.00  0.00    +0.117 A 
ATOM      2  N   UNL     1       2.980  -0.761   0.882  0.00  0.00    -0.217 NA
ATOM      3  C   UNL     1       3.621  -1.519   1.765  0.00  0.00    +0.146 A 
ATOM      4  C   UNL     1       4.162  -2.744   1.327  0.00  0.00    +0.079 A 
ATOM      5  C   UNL     1       4.886  -3.787   1.945  0.00  0.00    +0.148 A 
ATOM      6  N   UNL     1       5.137  -4.700   1.051  0.00  0.00    -0.177 NA
ATOM      7  N   UNL     1       4.601  -4.312  -0.183  0.00  0.00    -0.249 N 
ATOM      8  C   UNL     1       3.994  -3.102  -0.024  0.00  0.00    +0.163 A 
ATOM      9  N   UNL     1       3.329  -2.276  -0.831  0.00  0.00    -0.215 NA
ATOM     10  C   UNL     1       4.678  -5.077  -1.431  0.00  0.00    +0.174 C 
ATOM     11  N   UNL     1       3.756  -1.115   3.079  0.00  0.00    -0.267 N 
ATOM     12  H   UNL     1       4.226  -1.678   3.713  0.00  0.00    +0.167 HD
ENDROOT
BRANCH  11  13
ATOM     13  N   UNL     1       3.225   0.076   3.485  0.00  0.00    -0.255 NA
ATOM     14  H   UNL     1       3.401   0.235   4.465  0.00  0.00    +0.140 HD
ATOM     15  H   UNL     1       3.578   0.838   2.926  0.00  0.00    +0.140 HD
ENDBRANCH  11  13
BRANCH   1  16
ATOM     16  C   UNL     1       2.109  -0.236  -1.330  0.00  0.00    -0.001 C 
BRANCH  16  17
ATOM     17  N   UNL     1       0.668  -0.512  -1.250  0.00  0.00    +0.387 N 
ATOM     18  H   UNL     1       0.179   0.050  -1.931  0.00  0.00    -0.081 HD
BRANCH  17  20
ATOM     19  C   UNL     1       0.323   1.320   0.338  0.00  0.00    -0.017 C 
ATOM     20  C   UNL     1       0.181  -0.184   0.097  0.00  0.00    -0.081 C 
ENDBRANCH  17  20
BRANCH  17  21
ATOM     21  C   UNL     1       0.426  -1.935  -1.525  0.00  0.00    -0.045 C 
ATOM     22  C   UNL     1      -1.071  -2.228  -1.419  0.00  0.00    -0.011 C 
BRANCH  21  23
ATOM     23  C   UNL     1       0.913  -2.271  -2.936  0.00  0.00    +0.144 C 
BRANCH  23  24
ATOM     24  O   UNL     1       0.123  -1.563  -3.894  0.00  0.00    -0.385 OA
ATOM     25  C   UNL     1       0.498  -1.809  -5.251  0.00  0.00    +0.193 C 
ENDBRANCH  23  24
ENDBRANCH  21  23
ENDBRANCH  17  21
ENDBRANCH  16  17
ENDBRANCH   1  16
TORSDOF 7
