REMARK  Name = ZINC02570789
REMARK  4 active torsions:
REMARK  status: ('A' for Active; 'I' for Inactive)
REMARK    1  A    between atoms: C_1  and  C_2
REMARK    2  A    between atoms: N_9  and  N_10
REMARK    3  A    between atoms: C_11  and  C_12
REMARK    4  A    between atoms: C_17  and  O_18
REMARK                            x       y       z     vdW  Elec       q    Type
REMARK                         _______ _______ _______ _____ _____    ______ ____
ROOT
ATOM      1  N   UNL     1       4.193  -2.788  -0.167  0.00  0.00    -0.188 NA
ATOM      2  C   UNL     1       5.227  -3.470   0.222  0.00  0.00    +0.141 C 
ENDROOT
BRANCH   1  10
ATOM      3  C   UNL     1      -0.019   1.526   0.010  0.00  0.00    +0.029 C 
ATOM      4  C   UNL     1       0.002  -0.004   0.002  0.00  0.00    +0.139 C 
ATOM      5  C   UNL     1       0.797  -0.543  -1.181  0.00  0.00    +0.251 C 
ATOM      6  O   UNL     1       0.470  -0.337  -2.333  0.00  0.00    -0.272 OA
ATOM      7  N   UNL     1       1.855  -1.242  -0.870  0.00  0.00    -0.157 NA
ATOM      8  C   UNL     1       2.251  -1.494   0.371  0.00  0.00    +0.166 C 
ATOM      9  S   UNL     1       1.025  -0.671   1.382  0.00  0.00    -0.079 S 
ATOM     10  N   UNL     1       3.337  -2.211   0.780  0.00  0.00    -0.217 N 
ATOM     11  H   UNL     1       3.517  -2.321   1.727  0.00  0.00    +0.176 HD
ENDBRANCH   1  10
BRANCH   2  12
ATOM     12  C   UNL     1       6.127  -4.077  -0.774  0.00  0.00    +0.036 A 
ATOM     13  C   UNL     1       7.237  -4.817  -0.360  0.00  0.00    +0.013 A 
ATOM     14  C   UNL     1       8.075  -5.382  -1.297  0.00  0.00    +0.001 A 
ATOM     15  C   UNL     1       7.822  -5.219  -2.649  0.00  0.00    +0.004 A 
ATOM     16  C   UNL     1       6.728  -4.489  -3.072  0.00  0.00    +0.046 A 
ATOM     17  C   UNL     1       5.871  -3.920  -2.143  0.00  0.00    +0.125 A 
BRANCH  17  18
ATOM     18  O   UNL     1       4.792  -3.208  -2.558  0.00  0.00    -0.506 OA
ATOM     19  H   UNL     1       4.967  -2.265  -2.685  0.00  0.00    +0.292 HD
ENDBRANCH  17  18
ENDBRANCH   2  12
TORSDOF 3
