REMARK  Name = ZINC51698407
REMARK  7 active torsions:
REMARK  status: ('A' for Active; 'I' for Inactive)
REMARK    1  A    between atoms: C_1  and  C_2
REMARK    2  A    between atoms: C_2  and  C_3
REMARK    3  A    between atoms: C_3  and  N_4
REMARK    4  A    between atoms: N_4  and  C_5
REMARK    5  A    between atoms: C_7  and  C_19
REMARK    6  A    between atoms: C_19  and  O_20
REMARK    7  A    between atoms: O_20  and  C_21
REMARK                            x       y       z     vdW  Elec       q    Type
REMARK                         _______ _______ _______ _____ _____    ______ ____
ROOT
ATOM      1  C   UNL     1       1.338  -2.642  -2.314  0.00  0.00    +0.038 A 
ATOM      2  C   UNL     1       1.931  -1.958  -3.365  0.00  0.00    +0.047 A 
ATOM      3  C   UNL     1       2.523  -2.668  -4.399  0.00  0.00    +0.044 A 
ATOM      4  N   UNL     1       2.541  -3.981  -4.419  0.00  0.00    -0.356 N 
ATOM      5  C   UNL     1       1.987  -4.704  -3.439  0.00  0.00    +0.052 A 
ATOM      6  C   UNL     1       1.370  -4.056  -2.346  0.00  0.00    +0.019 A 
ATOM      7  C   UNL     1       0.802  -4.825  -1.321  0.00  0.00    +0.012 A 
ATOM      8  C   UNL     1       0.860  -6.181  -1.395  0.00  0.00    +0.004 A 
ATOM      9  C   UNL     1       1.472  -6.832  -2.473  0.00  0.00    -0.042 A 
ATOM     10  C   UNL     1       2.016  -6.116  -3.488  0.00  0.00    -0.020 A 
ATOM     11  C   UNL     1       2.670  -6.756  -4.685  0.00  0.00    +0.037 C 
ATOM     12  C   UNL     1       3.005  -8.218  -4.400  0.00  0.00    +0.005 C 
ATOM     13  C   UNL     1       1.746  -8.901  -3.850  0.00  0.00    +0.005 C 
ATOM     14  C   UNL     1       1.486  -8.340  -2.447  0.00  0.00    +0.035 C 
ATOM     15  H   UNL     1       2.966  -4.437  -5.162  0.00  0.00    +0.166 HD
ENDROOT
BRANCH   1  16
ATOM     16  N   UNL     1       0.738  -1.962  -1.265  0.00  0.00    -0.343 N 
ATOM     17  H   UNL     1       0.332  -2.457  -0.536  0.00  0.00    +0.146 HD
BRANCH  16  18
ATOM     18  C   UNL     1       0.718  -0.497  -1.257  0.00  0.00    +0.101 C 
BRANCH  18  20
ATOM     19  C   UNL     1      -0.019   1.526   0.010  0.00  0.00    +0.005 C 
ATOM     20  C   UNL     1       0.002  -0.004   0.002  0.00  0.00    +0.015 C 
ENDBRANCH  18  20
ENDBRANCH  16  18
ENDBRANCH   1  16
BRANCH   3  21
ATOM     21  C   UNL     1       3.164  -1.910  -5.534  0.00  0.00    +0.212 C 
BRANCH  21  22
ATOM     22  O   UNL     1       3.027  -0.506  -5.306  0.00  0.00    -0.377 OA
ATOM     23  C   UNL     1       3.604   0.308  -6.329  0.00  0.00    +0.194 C 
ENDBRANCH  21  22
ENDBRANCH   3  21
TORSDOF 5
