REMARK  Name = ZINC15637071
REMARK  3 active torsions:
REMARK  status: ('A' for Active; 'I' for Inactive)
REMARK    1  A    between atoms: C_3  and  N_19
REMARK    2  A    between atoms: C_6  and  C_7
REMARK    3  A    between atoms: C_15  and  O_18
REMARK                            x       y       z     vdW  Elec       q    Type
REMARK                         _______ _______ _______ _____ _____    ______ ____
ROOT
ATOM      1  C   UNL     1      -0.743   1.579   1.258  0.00  0.00    -0.035 C 
ATOM      2  C   UNL     1       0.130   1.086   0.103  0.00  0.00    +0.011 C 
ATOM      3  C   UNL     1       1.556   1.614   0.262  0.00  0.00    +0.005 C 
ATOM      4  C   UNL     1       2.415   1.106  -0.898  0.00  0.00    +0.000 C 
ATOM      5  C   UNL     1       1.831   1.595  -2.224  0.00  0.00    +0.003 C 
ATOM      6  C   UNL     1       0.399   1.077  -2.379  0.00  0.00    +0.035 C 
ATOM      7  C   UNL     1      -0.453   1.596  -1.219  0.00  0.00    +0.066 C 
ATOM      8  C   UNL     1      -1.890   1.092  -1.359  0.00  0.00    +0.016 C 
ATOM      9  C   UNL     1      -2.710   1.577  -0.161  0.00  0.00    -0.079 C 
ATOM     10  N   UNL     1      -2.118   1.068   1.091  0.00  0.00    +0.384 N 
ATOM     11  H   UNL     1      -2.691   1.377   1.886  0.00  0.00    -0.085 HD
ATOM     12  H   UNL     1      -2.096   0.042   1.063  0.00  0.00    -0.085 HD
ENDROOT
BRANCH   1  18
ATOM     13  C   UNL     1       0.427   3.787   1.391  0.00  0.00    +0.004 A 
ATOM     14  C   UNL     1       0.414   5.170   1.397  0.00  0.00    +0.033 A 
ATOM     15  C   UNL     1      -0.785   5.850   1.294  0.00  0.00    +0.126 A 
ATOM     16  C   UNL     1      -1.970   5.148   1.180  0.00  0.00    +0.033 A 
ATOM     17  C   UNL     1      -1.956   3.766   1.168  0.00  0.00    +0.004 A 
ATOM     18  C   UNL     1      -0.758   3.086   1.271  0.00  0.00    -0.061 A 
BRANCH  15  19
ATOM     19  N   UNL     1      -0.799   7.330   1.306  0.00  0.00    +0.056 N 
ATOM     20  O   UNL     1      -1.855   7.929   1.216  0.00  0.00    -0.126 OA
ATOM     21  O   UNL     1       0.245   7.948   1.407  0.00  0.00    -0.126 OA
ENDBRANCH  15  19
ENDBRANCH   1  18
BRANCH   7  22
ATOM     22  O   UNL     1      -0.445   3.025  -1.224  0.00  0.00    -0.388 OA
ATOM     23  H   UNL     1      -0.800   3.417  -2.033  0.00  0.00    +0.210 HD
ENDBRANCH   7  22
TORSDOF 3
