REMARK  Name = ZINC38788193
REMARK  5 active torsions:
REMARK  status: ('A' for Active; 'I' for Inactive)
REMARK    1  A    between atoms: C_1  and  C_2
REMARK    2  A    between atoms: C_7  and  C_14
REMARK    3  A    between atoms: C_14  and  N_15
REMARK    4  A    between atoms: N_15  and  C_16
REMARK    5  A    between atoms: C_19  and  C_23
REMARK                            x       y       z     vdW  Elec       q    Type
REMARK                         _______ _______ _______ _____ _____    ______ ____
ROOT
ATOM      1  C   UNL     1      -0.018   1.503   0.010  0.00  0.00    +0.044 C 
ATOM      2  C   UNL     1       0.002  -0.004   0.002  0.00  0.00    -0.049 A 
ATOM      3  C   UNL     1       0.005  -0.667  -1.226  0.00  0.00    +0.004 A 
ATOM      4  C   UNL     1       0.023  -2.023  -1.297  0.00  0.00    +0.010 A 
ATOM      5  C   UNL     1       0.040  -2.795  -0.054  0.00  0.00    -0.007 A 
ATOM      6  C   UNL     1       0.059  -4.158  -0.077  0.00  0.00    -0.003 C 
ATOM      7  C   UNL     1       0.076  -4.876   1.258  0.00  0.00    +0.115 C 
ATOM      8  C   UNL     1       0.071  -4.022   2.506  0.00  0.00    +0.226 C 
ATOM      9  O   UNL     1       0.085  -4.546   3.604  0.00  0.00    -0.275 OA
ATOM     10  N   UNL     1       0.052  -2.704   2.399  0.00  0.00    -0.284 N 
ATOM     11  C   UNL     1       0.037  -2.069   1.228  0.00  0.00    +0.041 A 
ATOM     12  C   UNL     1       0.022  -0.662   1.190  0.00  0.00    +0.027 A 
ATOM     13  H   UNL     1       0.049  -2.175   3.212  0.00  0.00    +0.155 HD
ENDROOT
BRANCH   7  14
ATOM     14  C   UNL     1      -1.146  -5.794   1.313  0.00  0.00    +0.118 C 
BRANCH  14  15
ATOM     15  N   UNL     1      -1.101  -6.594   2.539  0.00  0.00    -0.343 N 
ATOM     16  H   UNL     1      -0.365  -6.487   3.162  0.00  0.00    +0.146 HD
BRANCH  15  17
ATOM     17  C   UNL     1      -2.118  -7.512   2.812  0.00  0.00    +0.029 A 
ATOM     18  C   UNL     1      -3.170  -7.671   1.919  0.00  0.00    +0.023 A 
ATOM     19  C   UNL     1      -4.173  -8.580   2.190  0.00  0.00    +0.006 A 
ATOM     20  C   UNL     1      -4.133  -9.331   3.351  0.00  0.00    -0.032 A 
ATOM     21  C   UNL     1      -3.087  -9.175   4.243  0.00  0.00    +0.046 A 
ATOM     22  C   UNL     1      -2.076  -8.271   3.974  0.00  0.00    +0.043 A 
ATOM     23 CL   UNL     1      -3.041 -10.120   5.699  0.00  0.00    -0.083 Cl
ATOM     24  C   UNL     1      -5.231 -10.321   3.644  0.00  0.00    +0.045 C 
ENDBRANCH  15  17
ENDBRANCH  14  15
ENDBRANCH   7  14
TORSDOF 3
