REMARK  Name = ZINC64403882
REMARK  8 active torsions:
REMARK  status: ('A' for Active; 'I' for Inactive)
REMARK    1  A    between atoms: C_1  and  C_2
REMARK    2  A    between atoms: C_2  and  O_3
REMARK    3  A    between atoms: O_3  and  C_4
REMARK    4  A    between atoms: N_6  and  C_7
REMARK    5  A    between atoms: C_13  and  C_14
REMARK    6  A    between atoms: N_16  and  C_17
REMARK    7  A    between atoms: C_17  and  C_18
REMARK    8  A    between atoms: C_18  and  C_19
REMARK                            x       y       z     vdW  Elec       q    Type
REMARK                         _______ _______ _______ _____ _____    ______ ____
ROOT
ATOM      1  C   UNL     1       2.322  -5.419   6.313  0.00  0.00    +0.238 C 
ATOM      2  O   UNL     1       1.616  -4.429   6.260  0.00  0.00    -0.271 OA
ATOM      3  N   UNL     1       2.520  -6.045   7.490  0.00  0.00    -0.311 N 
ATOM      4  H   UNL     1       3.082  -6.834   7.532  0.00  0.00    +0.149 HD
ENDROOT
BRANCH   1  10
ATOM      5  C   UNL     1       1.730  -3.556   2.638  0.00  0.00    +0.222 C 
ATOM      6  N   UNL     1       2.278  -3.996   3.940  0.00  0.00    -0.320 N 
ATOM      7  C   UNL     1       2.836  -5.224   3.983  0.00  0.00    +0.021 C 
ATOM      8  C   UNL     1       3.347  -5.793   2.670  0.00  0.00    +0.123 C 
ATOM      9  S   UNL     1       2.834  -4.478   1.482  0.00  0.00    -0.113 S 
ATOM     10  C   UNL     1       2.935  -5.914   5.138  0.00  0.00    +0.086 C 
ATOM     11  H   UNL     1       2.238  -3.429   4.726  0.00  0.00    +0.148 HD
BRANCH   5  14
ATOM     12  C   UNL     1       1.236  -1.485   1.454  0.00  0.00    +0.402 C 
ATOM     13  O   UNL     1       0.545  -2.124   0.685  0.00  0.00    -0.226 OA
ATOM     14  N   UNL     1       1.872  -2.108   2.465  0.00  0.00    -0.254 N 
ATOM     15  H   UNL     1       2.423  -1.598   3.079  0.00  0.00    +0.155 HD
BRANCH  12  16
ATOM     16  O   UNL     1       1.366  -0.154   1.295  0.00  0.00    -0.451 OA
BRANCH  16  18
ATOM     17  C   UNL     1       0.931   1.947   0.183  0.00  0.00    +0.048 C 
ATOM     18  C   UNL     1       0.664   0.441   0.201  0.00  0.00    +0.230 C 
ENDBRANCH  16  18
ENDBRANCH  12  16
ENDBRANCH   5  14
ENDBRANCH   1  10
BRANCH   3  19
ATOM     19  C   UNL     1       1.885  -5.532   8.707  0.00  0.00    +0.109 C 
BRANCH  19  20
ATOM     20  C   UNL     1       2.268  -6.418   9.895  0.00  0.00    +0.052 C 
BRANCH  20  21
ATOM     21  C   UNL     1       1.615  -5.891  11.146  0.00  0.00    -0.040 C 
ATOM     22  C   UNL     1       0.446  -6.301  11.688  0.00  0.00    -0.001 A 
ATOM     23  C   UNL     1      -0.530  -7.322  11.289  0.00  0.00    +0.010 A 
ATOM     24  C   UNL     1      -1.632  -7.508  12.051  0.00  0.00    +0.001 A 
ATOM     25  C   UNL     1      -1.865  -6.753  13.208  0.00  0.00    +0.002 A 
ATOM     26  C   UNL     1      -1.014  -5.798  13.639  0.00  0.00    +0.026 A 
ATOM     27  C   UNL     1       0.178  -5.518  12.915  0.00  0.00    +0.043 A 
ATOM     28  N   UNL     1       1.143  -4.656  13.123  0.00  0.00    -0.380 N 
ATOM     29  C   UNL     1       2.138  -4.800  12.054  0.00  0.00    +0.144 C 
ATOM     30  H   UNL     1       1.194  -4.030  13.863  0.00  0.00    +0.160 HD
ENDBRANCH  20  21
ENDBRANCH  19  20
ENDBRANCH   3  19
TORSDOF 7
