REMARK  Name = ZINC43115759
REMARK  5 active torsions:
REMARK  status: ('A' for Active; 'I' for Inactive)
REMARK    1  A    between atoms: C_5  and  C_6
REMARK    2  A    between atoms: C_6  and  C_8
REMARK    3  A    between atoms: C_6  and  N_10
REMARK    4  A    between atoms: C_8  and  N_9
REMARK    5  A    between atoms: C_13  and  C_16
REMARK                            x       y       z     vdW  Elec       q    Type
REMARK                         _______ _______ _______ _____ _____    ______ ____
ROOT
ATOM      1  C   UNL     1      -1.323  -0.822  -0.022  0.00  0.00    +0.070 C 
ENDROOT
BRANCH   1   2
ATOM      2  N   UNL     1      -1.010  -1.985   0.818  0.00  0.00    -0.297 NA
ATOM      3  C   UNL     1      -2.041  -3.022   0.685  0.00  0.00    +0.085 C 
ATOM      4  C   UNL     1      -1.612  -4.272   1.457  0.00  0.00    +0.028 C 
ATOM      5  C   UNL     1      -1.413  -3.911   2.932  0.00  0.00    +0.077 C 
ATOM      6  C   UNL     1      -0.370  -2.796   3.039  0.00  0.00    +0.028 C 
ATOM      7  C   UNL     1      -0.835  -1.589   2.221  0.00  0.00    +0.085 C 
BRANCH   5   8
ATOM      8  C   UNL     1      -0.932  -5.124   3.686  0.00  0.00    +0.214 C 
ATOM      9  O   UNL     1      -0.766  -6.175   3.103  0.00  0.00    -0.276 OA
ATOM     10  N   UNL     1      -0.688  -5.042   5.009  0.00  0.00    -0.329 N 
ATOM     11  H   UNL     1      -0.822  -4.202   5.476  0.00  0.00    +0.145 HD
ATOM     12  H   UNL     1      -0.379  -5.823   5.495  0.00  0.00    +0.145 HD
ENDBRANCH   5   8
ENDBRANCH   1   2
BRANCH   1  17
ATOM     13  C   UNL     1      -0.505   1.544   0.159  0.00  0.00    +0.012 A 
ATOM     14  C   UNL     1       0.514   2.431   0.264  0.00  0.00    +0.045 A 
ATOM     15  S   UNL     1       1.939   1.356   0.275  0.00  0.00    -0.105 S 
ATOM     16  C   UNL     1       1.080  -0.203   0.139  0.00  0.00    +0.050 A 
ATOM     17  C   UNL     1      -0.215   0.194   0.095  0.00  0.00    -0.025 A 
ENDBRANCH   1  17
BRANCH   1  18
ATOM     18  C   UNL     1      -1.454  -1.266  -1.480  0.00  0.00    -0.063 C 
BRANCH  18  19
ATOM     19  N   UNL     1      -1.834  -0.116  -2.311  0.00  0.00    +0.379 N 
ATOM     20  H   UNL     1      -2.664   0.315  -1.930  0.00  0.00    -0.090 HD
ATOM     21  H   UNL     1      -1.081   0.555  -2.320  0.00  0.00    -0.090 HD
ATOM     22  H   UNL     1      -2.019  -0.427  -3.253  0.00  0.00    -0.090 HD
ENDBRANCH  18  19
ENDBRANCH   1  18
TORSDOF 5
