REMARK  Name = ZINC65773720
REMARK  7 active torsions:
REMARK  status: ('A' for Active; 'I' for Inactive)
REMARK    1  A    between atoms: C_1  and  C_2
REMARK    2  A    between atoms: C_5  and  O_9
REMARK    3  A    between atoms: C_7  and  C_8
REMARK    4  A    between atoms: O_9  and  C_10
REMARK    5  A    between atoms: C_10  and  C_11
REMARK    6  A    between atoms: N_13  and  N_14
REMARK    7  A    between atoms: N_17  and  C_18
REMARK                            x       y       z     vdW  Elec       q    Type
REMARK                         _______ _______ _______ _____ _____    ______ ____
ROOT
ATOM      1  N   UNL     1       0.095  -8.471  -2.006  0.00  0.00    -0.218 N 
ATOM      2  C   UNL     1       0.106  -9.286  -3.079  0.00  0.00    +0.320 C 
ATOM      3  O   UNL     1       0.127 -10.492  -2.926  0.00  0.00    -0.251 OA
ATOM      4  N   UNL     1       0.095  -8.764  -4.322  0.00  0.00    -0.267 N 
ATOM      5  H   UNL     1       0.104  -8.847  -1.111  0.00  0.00    +0.174 HD
ATOM      6  H   UNL     1       0.009  -7.806  -4.444  0.00  0.00    +0.156 HD
ENDROOT
BRANCH   4   7
ATOM      7  C   UNL     1       0.206  -9.606  -5.437  0.00  0.00    +0.051 A 
ATOM      8  C   UNL     1      -0.374 -10.874  -5.424  0.00  0.00    +0.028 A 
ATOM      9  C   UNL     1      -0.239 -11.671  -6.546  0.00  0.00    +0.043 A 
ATOM     10  C   UNL     1       0.465 -11.185  -7.643  0.00  0.00    +0.099 A 
ATOM     11  N   UNL     1       1.002  -9.976  -7.620  0.00  0.00    -0.348 N 
ATOM     12  C   UNL     1       0.888  -9.186  -6.568  0.00  0.00    +0.107 A 
ATOM     13  N   UNL     1       0.606 -11.980  -8.777  0.00  0.00    -0.317 N 
ATOM     14  C   UNL     1       0.061 -13.334  -8.948  0.00  0.00    +0.106 C 
ATOM     15  C   UNL     1       0.489 -13.828 -10.346  0.00  0.00    +0.020 C 
ATOM     16  C   UNL     1       1.727 -12.947 -10.662  0.00  0.00    +0.020 C 
ATOM     17  C   UNL     1       1.321 -11.599 -10.009  0.00  0.00    +0.106 C 
ATOM     18  H   UNL     1       1.488  -9.660  -8.397  0.00  0.00    +0.167 HD
ENDBRANCH   4   7
BRANCH   1  21
ATOM     19  C   UNL     1       0.060  -6.266  -1.108  0.00  0.00    +0.267 C 
ATOM     20  O   UNL     1       0.071  -6.736   0.010  0.00  0.00    -0.271 OA
ATOM     21  N   UNL     1       0.071  -7.081  -2.181  0.00  0.00    -0.230 N 
ATOM     22  H   UNL     1       0.063  -6.706  -3.076  0.00  0.00    +0.173 HD
BRANCH  19  23
ATOM     23  C   UNL     1       0.035  -4.771  -1.297  0.00  0.00    +0.326 C 
BRANCH  23  24
ATOM     24  O   UNL     1       0.027  -4.130  -0.020  0.00  0.00    -0.483 OA
BRANCH  24  29
ATOM     25  C   UNL     1      -0.071   1.502   0.011  0.00  0.00    +0.044 C 
ATOM     26  C   UNL     1      -0.044  -0.005   0.003  0.00  0.00    -0.047 A 
ATOM     27  C   UNL     1      -0.035  -0.689  -1.199  0.00  0.00    +0.007 A 
ATOM     28  C   UNL     1      -0.011  -2.070  -1.210  0.00  0.00    +0.046 A 
ATOM     29  C   UNL     1       0.004  -2.771  -0.013  0.00  0.00    +0.121 A 
ATOM     30  C   UNL     1      -0.005  -2.083   1.192  0.00  0.00    +0.049 A 
ATOM     31  C   UNL     1      -0.024  -0.702   1.197  0.00  0.00    -0.044 A 
ATOM     32  C   UNL     1      -0.028   0.047   2.505  0.00  0.00    +0.044 C 
ENDBRANCH  24  29
ENDBRANCH  23  24
ENDBRANCH  19  23
ENDBRANCH   1  21
TORSDOF 5
