REMARK  Name = ZINC39736067
REMARK  8 active torsions:
REMARK  status: ('A' for Active; 'I' for Inactive)
REMARK    1  A    between atoms: C_1  and  C_2
REMARK    2  A    between atoms: C_2  and  C_4
REMARK    3  A    between atoms: C_2  and  S_16
REMARK    4  A    between atoms: N_6  and  C_7
REMARK    5  A    between atoms: C_11  and  C_13
REMARK    6  A    between atoms: C_13  and  C_15
REMARK    7  A    between atoms: S_16  and  C_17
REMARK    8  A    between atoms: C_21  and  C_23
REMARK                            x       y       z     vdW  Elec       q    Type
REMARK                         _______ _______ _______ _____ _____    ______ ____
ROOT
ATOM      1  S   UNL     1      -1.698  -0.628   0.020  0.00  0.00    -0.084 S 
ENDROOT
BRANCH   1   2
ATOM      2  C   UNL     1      -2.351  -0.079   1.621  0.00  0.00    +0.340 C 
ATOM      3  N   UNL     1      -1.525  -0.606   2.721  0.00  0.00    -0.219 N 
ATOM      4  N   UNL     1      -1.015   0.521   3.381  0.00  0.00    -0.145 NA
ATOM      5  C   UNL     1      -1.441   1.612   2.803  0.00  0.00    +0.238 C 
ATOM      6  O   UNL     1      -2.247   1.346   1.742  0.00  0.00    -0.443 OA
ATOM      7  H   UNL     1      -1.367  -1.537   2.942  0.00  0.00    +0.173 HD
BRANCH   5   8
ATOM      8  C   UNL     1      -1.108   2.906   3.227  0.00  0.00    +0.043 C 
ATOM      9  C   UNL     1      -0.286   3.256   4.300  0.00  0.00    +0.008 A 
ATOM     10  C   UNL     1       0.428   2.489   5.243  0.00  0.00    +0.010 A 
ATOM     11  C   UNL     1       1.164   3.112   6.200  0.00  0.00    +0.001 A 
ATOM     12  C   UNL     1       1.234   4.504   6.278  0.00  0.00    +0.002 A 
ATOM     13  C   UNL     1       0.573   5.303   5.404  0.00  0.00    +0.026 A 
ATOM     14  C   UNL     1      -0.216   4.725   4.377  0.00  0.00    +0.043 A 
ATOM     15  N   UNL     1      -0.941   5.272   3.421  0.00  0.00    -0.380 N 
ATOM     16  C   UNL     1      -1.558   4.214   2.615  0.00  0.00    +0.154 C 
ATOM     17  H   UNL     1      -1.047   6.225   3.272  0.00  0.00    +0.160 HD
ENDBRANCH   5   8
ENDBRANCH   1   2
BRANCH   1  19
ATOM     18  C   UNL     1      -0.020   1.532  -0.003  0.00  0.00    +0.029 C 
ATOM     19  C   UNL     1       0.003   0.002   0.000  0.00  0.00    +0.134 C 
BRANCH  19  20
ATOM     20  C   UNL     1       0.707  -0.492  -1.237  0.00  0.00    +0.230 C 
ATOM     21  O   UNL     1       0.066  -0.792  -2.221  0.00  0.00    -0.274 OA
ATOM     22  N   UNL     1       2.051  -0.601  -1.250  0.00  0.00    -0.285 N 
ATOM     23  H   UNL     1       2.569  -0.298  -0.487  0.00  0.00    +0.155 HD
BRANCH  22  24
ATOM     24  C   UNL     1       2.698  -1.150  -2.362  0.00  0.00    +0.034 A 
ATOM     25  C   UNL     1       3.839  -1.926  -2.189  0.00  0.00    +0.023 A 
ATOM     26  C   UNL     1       4.483  -2.471  -3.284  0.00  0.00    +0.002 A 
ATOM     27  C   UNL     1       3.999  -2.250  -4.557  0.00  0.00    +0.011 A 
ATOM     28  C   UNL     1       2.852  -1.471  -4.743  0.00  0.00    +0.019 A 
ATOM     29  C   UNL     1       2.199  -0.925  -3.635  0.00  0.00    +0.034 A 
BRANCH  28  30
ATOM     30  C   UNL     1       2.333  -1.232  -6.099  0.00  0.00    +0.160 C 
ATOM     31  O   UNL     1       1.339  -0.557  -6.257  0.00  0.00    -0.292 OA
ATOM     32  C   UNL     1       3.037  -1.828  -7.291  0.00  0.00    +0.091 C 
ENDBRANCH  28  30
ENDBRANCH  22  24
ENDBRANCH  19  20
ENDBRANCH   1  19
TORSDOF 6
