REMARK  Name = ZINC63731520
REMARK  7 active torsions:
REMARK  status: ('A' for Active; 'I' for Inactive)
REMARK    1  A    between atoms: C_7  and  C_10
REMARK    2  A    between atoms: C_10  and  C_11
REMARK    3  A    between atoms: C_11  and  O_13
REMARK    4  A    between atoms: O_13  and  C_14
REMARK    5  A    between atoms: C_14  and  C_15
REMARK    6  A    between atoms: N_17  and  C_18
REMARK    7  A    between atoms: C_20  and  C_25
REMARK                            x       y       z     vdW  Elec       q    Type
REMARK                         _______ _______ _______ _____ _____    ______ ____
ROOT
ATOM      1  C   UNL     1      -0.522  -5.071  -3.049  0.00  0.00    +0.327 C 
ENDROOT
BRANCH   1   2
ATOM      2  C   UNL     1      -1.458  -6.251  -3.126  0.00  0.00    +0.252 C 
ATOM      3  O   UNL     1      -1.929  -6.718  -2.111  0.00  0.00    -0.272 OA
ATOM      4  N   UNL     1      -1.769  -6.787  -4.323  0.00  0.00    -0.299 N 
ATOM      5  H   UNL     1      -1.392  -6.413  -5.135  0.00  0.00    +0.150 HD
BRANCH   4   6
ATOM      6  C   UNL     1      -2.678  -7.933  -4.398  0.00  0.00    +0.151 C 
ATOM      7  C   UNL     1      -3.661  -7.803  -5.591  0.00  0.00    +0.128 C 
ATOM      8  C   UNL     1      -3.123  -8.501  -6.799  0.00  0.00    -0.005 C 
ATOM      9  C   UNL     1      -2.166  -9.398  -6.666  0.00  0.00    +0.039 C 
ATOM     10  S   UNL     1      -1.795  -9.463  -4.921  0.00  0.00    -0.110 S 
BRANCH   7  11
ATOM     11  C   UNL     1      -4.985  -8.416  -5.214  0.00  0.00    +0.220 C 
ATOM     12  O   UNL     1      -5.134  -8.906  -4.114  0.00  0.00    -0.275 OA
ATOM     13  N   UNL     1      -6.002  -8.421  -6.098  0.00  0.00    -0.329 N 
ATOM     14  H   UNL     1      -5.882  -8.030  -6.977  0.00  0.00    +0.145 HD
ATOM     15  H   UNL     1      -6.854  -8.816  -5.855  0.00  0.00    +0.145 HD
ENDBRANCH   7  11
ENDBRANCH   4   6
ENDBRANCH   1   2
BRANCH   1  16
ATOM     16  O   UNL     1      -0.350  -4.689  -1.683  0.00  0.00    -0.455 OA
BRANCH  16  17
ATOM     17  C   UNL     1       0.460  -3.646  -1.440  0.00  0.00    +0.312 C 
ATOM     18  O   UNL     1       1.004  -3.077  -2.357  0.00  0.00    -0.250 OA
BRANCH  17  19
ATOM     19  C   UNL     1       0.691  -3.186  -0.024  0.00  0.00    +0.153 C 
BRANCH  19  26
ATOM     20  C   UNL     1      -0.016   1.348   0.009  0.00  0.00    +0.001 A 
ATOM     21  C   UNL     1       1.166   2.101   0.002  0.00  0.00    +0.002 A 
ATOM     22  C   UNL     1       2.391   1.535  -0.013  0.00  0.00    +0.026 A 
ATOM     23  C   UNL     1       2.529   0.120  -0.022  0.00  0.00    +0.043 A 
ATOM     24  N   UNL     1       3.587  -0.654  -0.037  0.00  0.00    -0.380 N 
ATOM     25  C   UNL     1       3.143  -2.053  -0.041  0.00  0.00    +0.145 C 
ATOM     26  C   UNL     1       1.631  -2.008  -0.025  0.00  0.00    -0.031 C 
ATOM     27  C   UNL     1       1.295  -0.698  -0.014  0.00  0.00    -0.001 A 
ATOM     28  C   UNL     1       0.002  -0.004   0.002  0.00  0.00    +0.010 A 
ATOM     29  H   UNL     1       4.509  -0.353  -0.045  0.00  0.00    +0.160 HD
ENDBRANCH  19  26
ENDBRANCH  17  19
ENDBRANCH  16  17
ENDBRANCH   1  16
TORSDOF 7
