REMARK  Name = ZINC66115498
REMARK  10 active torsions:
REMARK  status: ('A' for Active; 'I' for Inactive)
REMARK    1  A    between atoms: C_1  and  O_2
REMARK    2  A    between atoms: O_2  and  C_3
REMARK    3  A    between atoms: C_5  and  C_13
REMARK    4  A    between atoms: C_8  and  O_9
REMARK    5  A    between atoms: O_9  and  C_10
REMARK    6  A    between atoms: C_10  and  C_11
REMARK    7  A    between atoms: C_13  and  N_14
REMARK    8  A    between atoms: C_20  and  C_22
REMARK    9  A    between atoms: C_22  and  C_23
REMARK   10  A    between atoms: N_25  and  N_26
REMARK                            x       y       z     vdW  Elec       q    Type
REMARK                         _______ _______ _______ _____ _____    ______ ____
ROOT
ATOM      1  N   UNL     1       1.750   0.581   5.052  0.00  0.00    +0.391 N 
ATOM      2  C   UNL     1       0.734   1.464   4.456  0.00  0.00    -0.058 C 
ATOM      3  C   UNL     1      -0.563   1.333   5.257  0.00  0.00    +0.085 C 
ATOM      4  N   UNL     1      -0.288   1.511   6.681  0.00  0.00    -0.318 N 
ATOM      5  C   UNL     1       0.943   1.409   7.196  0.00  0.00    +0.200 C 
ATOM      6  O   UNL     1       1.087   1.546   8.392  0.00  0.00    -0.278 OA
ATOM      7  C   UNL     1       2.155   1.132   6.351  0.00  0.00    +0.028 C 
ATOM      8  H   UNL     1      -1.026   1.710   7.277  0.00  0.00    +0.149 HD
ATOM      9  H   UNL     1       1.364  -0.342   5.181  0.00  0.00    -0.080 HD
ENDROOT
BRANCH   1  10
ATOM     10  C   UNL     1       2.918   0.506   4.164  0.00  0.00    -0.042 C 
BRANCH  10  13
ATOM     11  C   UNL     1       1.702  -0.100   0.639  0.00  0.00    +0.162 A 
ATOM     12  C   UNL     1       2.056   0.541   1.815  0.00  0.00    +0.051 A 
ATOM     13  C   UNL     1       2.533  -0.193   2.886  0.00  0.00    -0.060 A 
ATOM     14  C   UNL     1       2.659  -1.566   2.786  0.00  0.00    +0.005 A 
ATOM     15  C   UNL     1       2.308  -2.212   1.615  0.00  0.00    +0.049 A 
ATOM     16  C   UNL     1       1.823  -1.483   0.540  0.00  0.00    +0.162 A 
BRANCH  11  18
ATOM     17  C   UNL     1       1.135   2.035  -0.242  0.00  0.00    +0.277 C 
ATOM     18  O   UNL     1       1.232   0.620  -0.414  0.00  0.00    -0.491 OA
ENDBRANCH  11  18
BRANCH  16  19
ATOM     19  O   UNL     1       1.471  -2.118  -0.610  0.00  0.00    -0.484 OA
BRANCH  19  20
ATOM     20  C   UNL     1       1.622  -3.538  -0.639  0.00  0.00    +0.256 C 
BRANCH  20  21
ATOM     21  C   UNL     1       1.186  -4.062  -1.984  0.00  0.00    +0.006 C 
ATOM     22  C   UNL     1       1.917  -4.952  -2.608  0.00  0.00    +0.007 C 
ENDBRANCH  20  21
ENDBRANCH  19  20
ENDBRANCH  16  19
ENDBRANCH  10  13
ENDBRANCH   1  10
BRANCH   7  23
ATOM     23  C   UNL     1       3.054   0.124   7.071  0.00  0.00    +0.091 C 
BRANCH  23  24
ATOM     24  C   UNL     1       2.263  -1.118   7.390  0.00  0.00    +0.225 C 
ATOM     25  O   UNL     1       1.101  -1.201   7.049  0.00  0.00    -0.275 OA
ATOM     26  N   UNL     1       2.845  -2.136   8.053  0.00  0.00    -0.254 N 
ATOM     27  H   UNL     1       3.774  -2.069   8.326  0.00  0.00    +0.169 HD
BRANCH  26  28
ATOM     28  N   UNL     1       2.128  -3.262   8.342  0.00  0.00    -0.254 NA
ATOM     29  H   UNL     1       2.693  -3.933   8.839  0.00  0.00    +0.140 HD
ATOM     30  H   UNL     1       1.294  -3.035   8.864  0.00  0.00    +0.140 HD
ENDBRANCH  26  28
ENDBRANCH  23  24
ENDBRANCH   7  23
TORSDOF 9
