REMARK  Name = ZINC23310747
REMARK  8 active torsions:
REMARK  status: ('A' for Active; 'I' for Inactive)
REMARK    1  A    between atoms: C_1  and  C_2
REMARK    2  A    between atoms: C_5  and  C_8
REMARK    3  A    between atoms: C_8  and  N_9
REMARK    4  A    between atoms: N_9  and  C_10
REMARK    5  A    between atoms: C_10  and  C_11
REMARK    6  A    between atoms: C_11  and  O_25
REMARK    7  A    between atoms: N_15  and  C_18
REMARK    8  A    between atoms: C_18  and  C_19
REMARK                            x       y       z     vdW  Elec       q    Type
REMARK                         _______ _______ _______ _____ _____    ______ ____
ROOT
ATOM      1  C   UNL     1      -6.106   0.468  -4.163  0.00  0.00    +0.154 C 
ATOM      2  C   UNL     1      -7.508   0.747  -4.709  0.00  0.00    +0.047 C 
ATOM      3  C   UNL     1      -8.089  -0.565  -5.248  0.00  0.00    +0.022 C 
ATOM      4  C   UNL     1      -7.288  -0.985  -6.482  0.00  0.00    +0.108 C 
ATOM      5  N   UNL     1      -5.860  -0.971  -6.192  0.00  0.00    -0.299 N 
ATOM      6  C   UNL     1      -5.310  -0.310  -5.173  0.00  0.00    +0.249 C 
ATOM      7  O   UNL     1      -4.104  -0.338  -5.054  0.00  0.00    -0.272 OA
ENDROOT
BRANCH   1   8
ATOM      8  O   UNL     1      -6.210  -0.290  -2.956  0.00  0.00    -0.378 OA
ATOM      9  H   UNL     1      -5.358  -0.502  -2.550  0.00  0.00    +0.211 HD
ENDBRANCH   1   8
BRANCH   1  10
ATOM     10  C   UNL     1      -5.399   1.793  -3.872  0.00  0.00    +0.125 C 
BRANCH  10  11
ATOM     11  N   UNL     1      -6.191   2.568  -2.907  0.00  0.00    -0.306 NA
ATOM     12  H   UNL     1      -6.417   2.012  -2.096  0.00  0.00    +0.122 HD
BRANCH  11  13
ATOM     13  C   UNL     1      -5.492   3.801  -2.522  0.00  0.00    +0.157 C 
BRANCH  13  18
ATOM     14  C   UNL     1      -8.950   6.895  -0.639  0.00  0.00    +0.090 C 
ATOM     15  C   UNL     1      -7.821   5.900  -0.710  0.00  0.00    +0.148 A 
ATOM     16  N   UNL     1      -7.292   5.405  -1.829  0.00  0.00    -0.215 NA
ATOM     17  H   UNL     1      -5.600   3.972   0.316  0.00  0.00    +0.190 HD
ATOM     18  C   UNL     1      -6.332   4.567  -1.534  0.00  0.00    +0.139 A 
ATOM     19  N   UNL     1      -6.226   4.509  -0.195  0.00  0.00    -0.261 N 
ATOM     20  N   UNL     1      -7.197   5.385   0.318  0.00  0.00    -0.158 NA
ENDBRANCH  13  18
ENDBRANCH  11  13
ENDBRANCH  10  11
ENDBRANCH   1  10
BRANCH   5  21
ATOM     21  C   UNL     1      -4.973  -1.732  -7.076  0.00  0.00    +0.111 C 
BRANCH  21  22
ATOM     22  C   UNL     1      -4.933  -3.193  -6.623  0.00  0.00    +0.006 C 
ATOM     23  C   UNL     1      -4.306  -3.279  -5.231  0.00  0.00    +0.005 C 
ATOM     24  C   UNL     1      -4.266  -4.740  -4.779  0.00  0.00    +0.000 C 
ATOM     25  C   UNL     1      -3.429  -5.556  -5.766  0.00  0.00    +0.000 C 
ATOM     26  C   UNL     1      -4.056  -5.470  -7.159  0.00  0.00    +0.000 C 
ATOM     27  C   UNL     1      -4.096  -4.009  -7.611  0.00  0.00    +0.005 C 
ENDBRANCH  21  22
ENDBRANCH   5  21
TORSDOF 7
