REMARK  Name = ZINC42630446
REMARK  3 active torsions:
REMARK  status: ('A' for Active; 'I' for Inactive)
REMARK    1  A    between atoms: C_3  and  O_21
REMARK    2  A    between atoms: C_6  and  N_7
REMARK    3  A    between atoms: C_13  and  C_15
REMARK                            x       y       z     vdW  Elec       q    Type
REMARK                         _______ _______ _______ _____ _____    ______ ____
ROOT
ATOM      1  N   UNL     1      -1.200  -0.721   0.010  0.00  0.00    -0.327 N 
ATOM      2  C   UNL     1      -2.487  -0.021   0.131  0.00  0.00    +0.124 C 
ATOM      3  C   UNL     1      -3.376  -0.423  -1.053  0.00  0.00    +0.126 C 
ATOM      4  N   UNL     1      -3.374  -1.888  -1.165  0.00  0.00    -0.296 N 
ATOM      5  C   UNL     1      -2.087  -2.588  -1.286  0.00  0.00    +0.126 C 
ATOM      6  C   UNL     1      -1.198  -2.186  -0.108  0.00  0.00    +0.124 C 
ATOM      7  C   UNL     1      -4.532  -2.578  -1.157  0.00  0.00    +0.245 C 
ATOM      8  O   UNL     1      -5.588  -1.990  -1.057  0.00  0.00    -0.273 OA
ENDROOT
BRANCH   1  14
ATOM      9  C   UNL     1       1.214  -0.681   0.003  0.00  0.00    +0.027 A 
ATOM     10  C   UNL     1       2.400   0.027  -0.005  0.00  0.00    +0.047 A 
ATOM     11  C   UNL     1       2.380   1.414  -0.015  0.00  0.00    +0.117 A 
ATOM     12  C   UNL     1       1.170   2.091  -0.016  0.00  0.00    +0.047 A 
ATOM     13  C   UNL     1      -0.017   1.384  -0.008  0.00  0.00    +0.027 A 
ATOM     14  C   UNL     1       0.002  -0.004   0.002  0.00  0.00    +0.030 A 
BRANCH  11  15
ATOM     15  O   UNL     1       3.549   2.110  -0.023  0.00  0.00    -0.507 OA
ATOM     16  H   UNL     1       3.884   2.305  -0.908  0.00  0.00    +0.292 HD
ENDBRANCH  11  15
ENDBRANCH   1  14
BRANCH   7  17
ATOM     17  C   UNL     1      -4.514  -4.081  -1.274  0.00  0.00    +0.204 C 
ATOM     18  C   UNL     1      -3.968  -4.493  -2.658  0.00  0.00    +0.043 C 
ATOM     19  C   UNL     1      -4.876  -5.698  -3.025  0.00  0.00    +0.031 C 
ATOM     20  C   UNL     1      -6.216  -5.264  -2.380  0.00  0.00    +0.161 C 
ATOM     21  O   UNL     1      -5.847  -4.592  -1.162  0.00  0.00    -0.367 OA
ENDBRANCH   7  17
TORSDOF 3
