REMARK  Name = ZINC44764019
REMARK  5 active torsions:
REMARK  status: ('A' for Active; 'I' for Inactive)
REMARK    1  A    between atoms: C_1  and  C_2
REMARK    2  A    between atoms: C_6  and  C_19
REMARK    3  A    between atoms: C_10  and  C_12
REMARK    4  A    between atoms: C_12  and  C_17
REMARK    5  A    between atoms: C_17  and  N_18
REMARK                            x       y       z     vdW  Elec       q    Type
REMARK                         _______ _______ _______ _____ _____    ______ ____
ROOT
ATOM      1  C   UNL     1       1.271  -1.260   6.099  0.00  0.00    +0.028 C 
ATOM      2  C   UNL     1       0.616  -1.722   4.796  0.00  0.00    +0.073 C 
ATOM      3  C   UNL     1       0.281  -0.504   3.929  0.00  0.00    +0.023 C 
ATOM      4  C   UNL     1      -0.245  -0.978   2.572  0.00  0.00    +0.016 C 
ATOM      5  C   UNL     1       0.837  -1.794   1.861  0.00  0.00    +0.092 C 
ATOM      6  C   UNL     1       1.178  -3.027   2.705  0.00  0.00    +0.120 C 
ATOM      7  N   UNL     1       1.545  -2.590   4.059  0.00  0.00    -0.298 N 
ATOM      8  C   UNL     1       2.712  -2.974   4.613  0.00  0.00    +0.220 C 
ATOM      9  O   UNL     1       2.994  -2.622   5.739  0.00  0.00    -0.275 OA
ENDROOT
BRANCH   8  10
ATOM     10  C   UNL     1       3.666  -3.843   3.834  0.00  0.00    +0.032 C 
ATOM     11  C   UNL     1       2.912  -5.033   3.190  0.00  0.00    +0.014 C 
ATOM     12  C   UNL     1       2.788  -6.035   4.364  0.00  0.00    +0.001 C 
ATOM     13  C   UNL     1       4.127  -5.903   5.118  0.00  0.00    +0.001 C 
ATOM     14  C   UNL     1       4.685  -4.509   4.781  0.00  0.00    +0.014 C 
BRANCH  10  15
ATOM     15  C   UNL     1       4.386  -3.019   2.765  0.00  0.00    -0.070 C 
BRANCH  15  16
ATOM     16  N   UNL     1       3.731  -3.223   1.466  0.00  0.00    +0.379 N 
ATOM     17  H   UNL     1       2.992  -3.902   1.565  0.00  0.00    -0.090 HD
ATOM     18  H   UNL     1       3.344  -2.348   1.144  0.00  0.00    -0.090 HD
ATOM     19  H   UNL     1       4.408  -3.557   0.797  0.00  0.00    -0.090 HD
ENDBRANCH  15  16
ENDBRANCH  10  15
ENDBRANCH   8  10
BRANCH   5  20
ATOM     20  C   UNL     1       2.071  -0.948   1.684  0.00  0.00    +0.215 C 
ATOM     21  O   UNL     1       2.975  -1.017   2.490  0.00  0.00    -0.276 OA
ATOM     22  N   UNL     1       2.171  -0.114   0.630  0.00  0.00    -0.329 N 
ATOM     23  H   UNL     1       1.448  -0.059  -0.015  0.00  0.00    +0.145 HD
ATOM     24  H   UNL     1       2.965   0.431   0.516  0.00  0.00    +0.145 HD
ENDBRANCH   5  20
TORSDOF 4
