REMARK  Name = ZINC40687656
REMARK  7 active torsions:
REMARK  status: ('A' for Active; 'I' for Inactive)
REMARK    1  A    between atoms: C_1  and  C_2
REMARK    2  A    between atoms: C_4  and  O_10
REMARK    3  A    between atoms: C_6  and  C_9
REMARK    4  A    between atoms: O_10  and  C_11
REMARK    5  A    between atoms: C_12  and  N_24
REMARK    6  A    between atoms: C_13  and  N_17
REMARK    7  A    between atoms: N_17  and  C_18
REMARK                            x       y       z     vdW  Elec       q    Type
REMARK                         _______ _______ _______ _____ _____    ______ ____
ROOT
ATOM      1  C   UNL     1       0.177  -4.101  -2.341  0.00  0.00    +0.246 A 
ATOM      2  C   UNL     1       0.271  -4.836  -3.523  0.00  0.00    +0.128 A 
ATOM      3  C   UNL     1       0.419  -6.221  -3.428  0.00  0.00    +0.151 A 
ATOM      4  N   UNL     1       0.466  -6.783  -2.223  0.00  0.00    -0.218 NA
ATOM      5  C   UNL     1       0.374  -6.052  -1.131  0.00  0.00    +0.227 A 
ATOM      6  N   UNL     1       0.238  -4.742  -1.178  0.00  0.00    -0.199 NA
ENDROOT
BRANCH   2   7
ATOM      7  N   UNL     1       0.216  -4.200  -4.772  0.00  0.00    -0.351 N 
ATOM      8  H   UNL     1       0.112  -3.237  -4.823  0.00  0.00    +0.143 HD
ATOM      9  H   UNL     1       0.282  -4.724  -5.586  0.00  0.00    +0.143 HD
ENDBRANCH   2   7
BRANCH   3  10
ATOM     10  N   UNL     1       0.516  -7.001  -4.575  0.00  0.00    -0.298 N 
ATOM     11  H   UNL     1       0.572  -6.578  -5.446  0.00  0.00    +0.154 HD
BRANCH  10  12
ATOM     12  C   UNL     1       0.535  -8.390  -4.474  0.00  0.00    +0.035 A 
ATOM     13  C   UNL     1      -0.066  -9.037  -3.394  0.00  0.00    +0.041 A 
ATOM     14  C   UNL     1      -0.025 -10.414  -3.330  0.00  0.00    +0.084 A 
ATOM     15  N   UNL     1       0.572 -11.117  -4.274  0.00  0.00    -0.367 N 
ATOM     16  C   UNL     1       1.151 -10.543  -5.311  0.00  0.00    +0.084 A 
ATOM     17  C   UNL     1       1.150  -9.171  -5.452  0.00  0.00    +0.041 A 
ATOM     18  H   UNL     1       0.585 -12.085  -4.204  0.00  0.00    +0.165 HD
ENDBRANCH  10  12
ENDBRANCH   3  10
BRANCH   1  19
ATOM     19  O   UNL     1       0.032  -2.753  -2.378  0.00  0.00    -0.436 OA
BRANCH  19  23
ATOM     20  C   UNL     1       2.500  -1.314   1.580  0.00  0.00    +0.045 C 
ATOM     21  C   UNL     1       1.239  -1.353   0.756  0.00  0.00    -0.028 A 
ATOM     22  C   UNL     1       1.217  -2.041  -0.441  0.00  0.00    +0.051 A 
ATOM     23  C   UNL     1       0.056  -2.076  -1.200  0.00  0.00    +0.131 A 
ATOM     24  C   UNL     1      -1.082  -1.419  -0.753  0.00  0.00    +0.051 A 
ATOM     25  C   UNL     1      -1.056  -0.731   0.444  0.00  0.00    -0.028 A 
ATOM     26  C   UNL     1       0.102  -0.702   1.202  0.00  0.00    +0.047 A 
ATOM     27 CL   UNL     1       0.129   0.157   2.710  0.00  0.00    -0.083 Cl
ATOM     28  C   UNL     1      -2.291  -0.016   0.929  0.00  0.00    +0.045 C 
ENDBRANCH  19  23
ENDBRANCH   1  19
TORSDOF 5
