REMARK  Name = ZINC18330582
REMARK  7 active torsions:
REMARK  status: ('A' for Active; 'I' for Inactive)
REMARK    1  A    between atoms: C_4  and  N_29
REMARK    2  A    between atoms: C_6  and  C_7
REMARK    3  A    between atoms: N_9  and  C_10
REMARK    4  A    between atoms: C_10  and  C_11
REMARK    5  A    between atoms: C_11  and  O_13
REMARK    6  A    between atoms: O_13  and  C_14
REMARK    7  A    between atoms: C_14  and  C_15
REMARK                            x       y       z     vdW  Elec       q    Type
REMARK                         _______ _______ _______ _____ _____    ______ ____
ROOT
ATOM      1  O   UNL     1       4.827   1.251  -0.154  0.00  0.00    -0.456 OA
ENDROOT
BRANCH   1   2
ATOM      2  C   UNL     1       3.509   1.500  -0.160  0.00  0.00    +0.325 C 
ATOM      3  O   UNL     1       3.108   2.638  -0.084  0.00  0.00    -0.249 OA
BRANCH   2   4
ATOM      4  C   UNL     1       2.527   0.361  -0.261  0.00  0.00    +0.225 C 
BRANCH   4   7
ATOM      5  C   UNL     1       0.112   0.049  -0.327  0.00  0.00    +0.245 C 
ATOM      6  O   UNL     1       0.298  -1.149  -0.411  0.00  0.00    -0.270 OA
ATOM      7  N   UNL     1       1.161   0.890  -0.247  0.00  0.00    -0.301 N 
ATOM      8  H   UNL     1       1.012   1.847  -0.179  0.00  0.00    +0.150 HD
BRANCH   5  14
ATOM      9  C   UNL     1      -1.484   1.958  -0.217  0.00  0.00    +0.014 A 
ATOM     10  C   UNL     1      -2.772   2.452  -0.216  0.00  0.00    +0.023 A 
ATOM     11  C   UNL     1      -3.848   1.585  -0.305  0.00  0.00    +0.071 A 
ATOM     12  C   UNL     1      -3.639   0.219  -0.400  0.00  0.00    +0.145 A 
ATOM     13  C   UNL     1      -2.356  -0.285  -0.408  0.00  0.00    +0.047 A 
ATOM     14  C   UNL     1      -1.266   0.583  -0.319  0.00  0.00    +0.039 A 
ATOM     15 CL   UNL     1      -5.467   2.213  -0.296  0.00  0.00    -0.081 Cl
BRANCH  12  16
ATOM     16  N   UNL     1      -4.795  -0.701  -0.495  0.00  0.00    +0.058 N 
ATOM     17  O   UNL     1      -4.612  -1.902  -0.579  0.00  0.00    -0.126 OA
ATOM     18  O   UNL     1      -5.929  -0.256  -0.488  0.00  0.00    -0.126 OA
ENDBRANCH  12  16
ENDBRANCH   5  14
ENDBRANCH   4   7
ENDBRANCH   2   4
ENDBRANCH   1   2
BRANCH   1  19
ATOM     19  C   UNL     1       5.714   2.397  -0.054  0.00  0.00    +0.308 C 
BRANCH  19  20
ATOM     20  C   UNL     1       7.146   1.927  -0.063  0.00  0.00    +0.170 A 
ATOM     21  N   UNL     1       7.740   1.646   1.083  0.00  0.00    -0.214 NA
ATOM     22  C   UNL     1       8.993   1.223   1.143  0.00  0.00    +0.128 A 
ATOM     23  C   UNL     1       9.731   1.075  -0.065  0.00  0.00    +0.051 A 
ATOM     24  C   UNL     1      11.115   0.633  -0.244  0.00  0.00    -0.025 A 
ATOM     25  C   UNL     1      11.581   0.579  -1.508  0.00  0.00    -0.004 A 
ATOM     26  S   UNL     1      10.226   1.107  -2.523  0.00  0.00    -0.073 S 
ATOM     27  C   UNL     1       9.032   1.399  -1.245  0.00  0.00    +0.114 A 
ATOM     28  N   UNL     1       7.779   1.809  -1.214  0.00  0.00    -0.221 NA
ATOM     29  C   UNL     1      12.950   0.163  -1.954  0.00  0.00    +0.043 C 
ATOM     30  C   UNL     1      13.877   0.155  -0.730  0.00  0.00    +0.005 C 
ATOM     31  C   UNL     1      13.177  -0.588   0.412  0.00  0.00    +0.005 C 
ATOM     32  C   UNL     1      12.006   0.246   0.933  0.00  0.00    +0.037 C 
ATOM     33  N   UNL     1       9.578   0.934   2.362  0.00  0.00    -0.343 N 
ATOM     34  H   UNL     1      10.542   0.855   2.430  0.00  0.00    +0.144 HD
ATOM     35  H   UNL     1       9.024   0.811   3.149  0.00  0.00    +0.144 HD
ENDBRANCH  19  20
ENDBRANCH   1  19
TORSDOF 7
