REMARK  Name = ZINC19423849
REMARK  10 active torsions:
REMARK  status: ('A' for Active; 'I' for Inactive)
REMARK    1  A    between atoms: C_1  and  C_2
REMARK    2  A    between atoms: C_2  and  C_3
REMARK    3  A    between atoms: C_3  and  C_4
REMARK    4  A    between atoms: C_4  and  N_5
REMARK    5  A    between atoms: N_5  and  C_6
REMARK    6  A    between atoms: N_5  and  C_8
REMARK    7  A    between atoms: C_6  and  C_7
REMARK    8  A    between atoms: C_8  and  C_10
REMARK    9  A    between atoms: C_8  and  C_12
REMARK   10  A    between atoms: C_10  and  N_11
REMARK                            x       y       z     vdW  Elec       q    Type
REMARK                         _______ _______ _______ _____ _____    ______ ____
ROOT
ATOM      1  C   UNL     1      -1.611   2.052   0.034  0.00  0.00    -0.053 C 
ENDROOT
BRANCH   1   2
ATOM      2  C   UNL     1      -2.142   2.103  -1.376  0.00  0.00    -0.026 A 
ATOM      3  C   UNL     1      -3.467   1.800  -1.627  0.00  0.00    +0.020 A 
ATOM      4  C   UNL     1      -3.955   1.853  -2.920  0.00  0.00    +0.018 A 
ATOM      5  C   UNL     1      -3.118   2.207  -3.962  0.00  0.00    +0.018 A 
ATOM      6  C   UNL     1      -1.793   2.510  -3.713  0.00  0.00    +0.039 A 
ATOM      7  C   UNL     1      -1.303   2.458  -2.418  0.00  0.00    +0.125 A 
ATOM      8  F   UNL     1      -0.008   2.754  -2.173  0.00  0.00    -0.205 F 
ATOM      9 BR   UNL     1      -5.768   1.439  -3.263  0.00  0.00    -0.050 Br
ENDBRANCH   1   2
BRANCH   1  10
ATOM     10  N   UNL     1      -2.565   1.335   0.891  0.00  0.00    +0.383 N 
ATOM     11  H   UNL     1      -2.061   1.108   1.842  0.00  0.00    -0.081 HD
BRANCH  10  12
ATOM     12  C   UNL     1      -2.968   0.061   0.279  0.00  0.00    -0.082 C 
ATOM     13  C   UNL     1      -1.874  -0.983   0.507  0.00  0.00    -0.017 C 
ENDBRANCH  10  12
BRANCH  10  14
ATOM     14  C   UNL     1      -3.736   2.170   1.188  0.00  0.00    -0.078 C 
BRANCH  14  15
ATOM     15  C   UNL     1      -4.548   1.527   2.315  0.00  0.00    -0.019 C 
BRANCH  15  17
ATOM     16  C   UNL     1      -6.580   1.755   3.751  0.00  0.00    +0.004 C 
ATOM     17  C   UNL     1      -5.768   2.397   2.624  0.00  0.00    -0.005 C 
ENDBRANCH  15  17
ENDBRANCH  14  15
ENDBRANCH  10  14
ENDBRANCH   1  10
BRANCH   1  18
ATOM     18  C   UNL     1      -1.424   3.476   0.560  0.00  0.00    -0.097 C 
BRANCH  18  19
ATOM     19  N   UNL     1      -1.070   3.429   1.985  0.00  0.00    +0.377 N 
ATOM     20  H   UNL     1      -0.935   4.453   2.364  0.00  0.00    -0.090 HD
ATOM     21  H   UNL     1      -0.134   2.865   2.112  0.00  0.00    -0.090 HD
ATOM     22  H   UNL     1      -1.876   2.933   2.547  0.00  0.00    -0.090 HD
ENDBRANCH  18  19
ENDBRANCH   1  18
TORSDOF 8
