REMARK  Name = ZINC54945708
REMARK  11 active torsions:
REMARK  status: ('A' for Active; 'I' for Inactive)
REMARK    1  A    between atoms: C_1  and  C_2
REMARK    2  A    between atoms: C_5  and  C_30
REMARK    3  A    between atoms: N_8  and  C_10
REMARK    4  A    between atoms: C_10  and  C_11
REMARK    5  A    between atoms: C_10  and  C_12
REMARK    6  A    between atoms: C_10  and  C_13
REMARK    7  A    between atoms: C_13  and  N_14
REMARK    8  A    between atoms: C_15  and  C_17
REMARK    9  A    between atoms: N_19  and  C_20
REMARK   10  A    between atoms: C_23  and  C_26
REMARK   11  A    between atoms: N_28  and  C_29
REMARK                            x       y       z     vdW  Elec       q    Type
REMARK                         _______ _______ _______ _____ _____    ______ ____
ROOT
ATOM      1  N   UNL     1       2.049   1.664   3.461  0.00  0.00    -0.309 N 
ATOM      2  C   UNL     1       1.545   2.461   4.424  0.00  0.00    +0.299 C 
ATOM      3  O   UNL     1       1.192   1.984   5.483  0.00  0.00    -0.265 OA
ATOM      4  H   UNL     1       2.331   2.046   2.615  0.00  0.00    +0.149 HD
ENDROOT
BRANCH   2   5
ATOM      5  C   UNL     1       1.420   3.930   4.188  0.00  0.00    +0.303 C 
ATOM      6  O   UNL     1       1.772   4.407   3.130  0.00  0.00    -0.265 OA
ATOM      7  N   UNL     1       0.915   4.727   5.152  0.00  0.00    -0.278 N 
ATOM      8  H   UNL     1       0.574   4.339   5.972  0.00  0.00    +0.155 HD
BRANCH   7   9
ATOM      9  C   UNL     1       0.885   6.107   4.969  0.00  0.00    +0.034 A 
ATOM     10  C   UNL     1       0.617   6.635   3.709  0.00  0.00    +0.024 A 
ATOM     11  C   UNL     1       0.586   7.999   3.525  0.00  0.00    +0.015 A 
ATOM     12  C   UNL     1       0.823   8.854   4.605  0.00  0.00    +0.037 A 
ATOM     13  C   UNL     1       1.091   8.321   5.868  0.00  0.00    +0.015 A 
ATOM     14  C   UNL     1       1.116   6.956   6.047  0.00  0.00    +0.024 A 
BRANCH  12  15
ATOM     15  C   UNL     1       0.791  10.317   4.410  0.00  0.00    +0.244 C 
ATOM     16  O   UNL     1       0.558  10.779   3.311  0.00  0.00    -0.270 OA
ATOM     17  N   UNL     1       1.020  11.140   5.453  0.00  0.00    -0.314 N 
ATOM     18  C   UNL     1       0.989  12.592   5.260  0.00  0.00    +0.128 C 
ATOM     19  H   UNL     1       1.206  10.771   6.330  0.00  0.00    +0.149 HD
ENDBRANCH  12  15
ENDBRANCH   7   9
ENDBRANCH   2   5
BRANCH   1  20
ATOM     20  C   UNL     1       2.172   0.223   3.692  0.00  0.00    +0.092 C 
BRANCH  20  21
ATOM     21  C   UNL     1       2.866  -0.428   2.494  0.00  0.00    -0.055 C 
ATOM     22  C   UNL     1       2.923  -1.944   2.700  0.00  0.00    -0.008 C 
ATOM     23  C   UNL     1       4.288   0.123   2.368  0.00  0.00    -0.008 C 
BRANCH  21  29
ATOM     24  C   UNL     1      -0.105   1.264   0.022  0.00  0.00    +0.005 C 
ATOM     25  C   UNL     1      -0.067  -0.260   0.159  0.00  0.00    -0.031 C 
ATOM     26  C   UNL     1       0.592  -0.869  -1.082  0.00  0.00    +0.003 C 
ATOM     27  C   UNL     1       2.042  -0.386  -1.167  0.00  0.00    -0.031 C 
ATOM     28  C   UNL     1       2.776  -0.762   0.122  0.00  0.00    -0.075 C 
ATOM     29  N   UNL     1       2.114  -0.128   1.269  0.00  0.00    +0.384 N 
ATOM     30  C   UNL     1       0.744  -0.640   1.400  0.00  0.00    -0.075 C 
ATOM     31  C   UNL     1       2.733  -1.049  -2.361  0.00  0.00    +0.005 C 
ATOM     32  H   UNL     1       2.086   0.871   1.130  0.00  0.00    -0.081 HD
ENDBRANCH  21  29
ENDBRANCH  20  21
ENDBRANCH   1  20
TORSDOF 6
