REMARK  Name = ZINC65482753
REMARK  11 active torsions:
REMARK  status: ('A' for Active; 'I' for Inactive)
REMARK    1  A    between atoms: C_1  and  C_2
REMARK    2  A    between atoms: C_2  and  N_3
REMARK    3  A    between atoms: N_3  and  C_4
REMARK    4  A    between atoms: N_3  and  C_6
REMARK    5  A    between atoms: C_4  and  C_5
REMARK    6  A    between atoms: C_6  and  C_7
REMARK    7  A    between atoms: C_6  and  C_23
REMARK    8  A    between atoms: C_7  and  N_8
REMARK    9  A    between atoms: N_11  and  N_12
REMARK   10  A    between atoms: C_13  and  C_15
REMARK   11  A    between atoms: C_15  and  C_16
REMARK                            x       y       z     vdW  Elec       q    Type
REMARK                         _______ _______ _______ _____ _____    ______ ____
ROOT
ATOM      1  N   UNL     1       0.717  -2.086  -3.538  0.00  0.00    -0.299 N 
ATOM      2  C   UNL     1       1.414  -2.868  -4.387  0.00  0.00    +0.316 C 
ATOM      3  O   UNL     1       2.086  -2.363  -5.265  0.00  0.00    -0.251 OA
ATOM      4  N   UNL     1       1.366  -4.209  -4.261  0.00  0.00    -0.218 N 
ATOM      5  H   UNL     1       0.240  -2.484  -2.793  0.00  0.00    +0.150 HD
ATOM      6  H   UNL     1       1.926  -4.769  -4.822  0.00  0.00    +0.174 HD
ENDROOT
BRANCH   4   7
ATOM      7  N   UNL     1       0.508  -4.794  -3.321  0.00  0.00    -0.233 N 
ATOM      8  C   UNL     1       0.536  -6.127  -3.121  0.00  0.00    +0.233 C 
ATOM      9  O   UNL     1       1.304  -6.819  -3.754  0.00  0.00    -0.274 OA
ATOM     10  H   UNL     1      -0.107  -4.241  -2.815  0.00  0.00    +0.173 HD
BRANCH   8  11
ATOM     11  C   UNL     1      -0.387  -6.756  -2.110  0.00  0.00    +0.132 C 
BRANCH  11  12
ATOM     12  C   UNL     1      -0.158  -8.246  -2.079  0.00  0.00    -0.038 A 
ATOM     13  C   UNL     1      -0.880  -9.073  -2.919  0.00  0.00    +0.007 A 
ATOM     14  C   UNL     1      -0.670 -10.439  -2.892  0.00  0.00    +0.038 A 
ATOM     15  C   UNL     1       0.263 -10.978  -2.024  0.00  0.00    +0.123 A 
ATOM     16  C   UNL     1       0.986 -10.149  -1.183  0.00  0.00    +0.038 A 
ATOM     17  C   UNL     1       0.778  -8.783  -1.215  0.00  0.00    +0.007 A 
ATOM     18  F   UNL     1       0.469 -12.313  -1.996  0.00  0.00    -0.205 F 
ENDBRANCH  11  12
ENDBRANCH   8  11
ENDBRANCH   4   7
BRANCH   1  19
ATOM     19  C   UNL     1       0.679  -0.636  -3.741  0.00  0.00    +0.098 C 
BRANCH  19  20
ATOM     20  C   UNL     1      -0.102   0.019  -2.600  0.00  0.00    +0.016 C 
BRANCH  20  21
ATOM     21  C   UNL     1      -0.070   1.517  -2.764  0.00  0.00    +0.093 A 
ATOM     22  C   UNL     1      -1.096   2.286  -3.171  0.00  0.00    +0.043 A 
ATOM     23  C   UNL     1      -0.628   3.620  -3.181  0.00  0.00    +0.041 A 
ATOM     24  C   UNL     1       0.655   3.586  -2.780  0.00  0.00    +0.195 A 
ATOM     25  O   UNL     1       0.987   2.310  -2.524  0.00  0.00    -0.469 OA
ENDBRANCH  20  21
BRANCH  20  26
ATOM     26  N   UNL     1       0.509  -0.346  -1.316  0.00  0.00    +0.387 N 
ATOM     27  H   UNL     1       0.425  -1.342  -1.174  0.00  0.00    -0.081 HD
BRANCH  26  29
ATOM     28  C   UNL     1       2.766  -1.154  -1.818  0.00  0.00    -0.017 C 
ATOM     29  C   UNL     1       1.929   0.028  -1.325  0.00  0.00    -0.081 C 
ENDBRANCH  26  29
BRANCH  26  30
ATOM     30  C   UNL     1      -0.177   0.362  -0.228  0.00  0.00    -0.081 C 
ATOM     31  C   UNL     1      -1.619  -0.138  -0.123  0.00  0.00    -0.017 C 
ENDBRANCH  26  30
ENDBRANCH  20  26
ENDBRANCH  19  20
ENDBRANCH   1  19
TORSDOF 9
