REMARK  Name = ZINC41124128
REMARK  9 active torsions:
REMARK  status: ('A' for Active; 'I' for Inactive)
REMARK    1  A    between atoms: C_1  and  C_2
REMARK    2  A    between atoms: C_6  and  C_11
REMARK    3  A    between atoms: C_7  and  N_8
REMARK    4  A    between atoms: C_13  and  C_16
REMARK    5  A    between atoms: C_16  and  C_18
REMARK    6  A    between atoms: C_16  and  N_22
REMARK    7  A    between atoms: C_18  and  C_19
REMARK    8  A    between atoms: C_18  and  C_20
REMARK    9  A    between atoms: C_18  and  C_21
REMARK                            x       y       z     vdW  Elec       q    Type
REMARK                         _______ _______ _______ _____ _____    ______ ____
ROOT
ATOM      1  C   UNL     1       0.052  -2.845   2.457  0.00  0.00    +0.261 A 
ATOM      2  N   UNL     1       0.075  -4.153   2.582  0.00  0.00    -0.193 NA
ATOM      3  C   UNL     1       0.084  -4.488   3.874  0.00  0.00    +0.158 A 
ATOM      4  N   UNL     1       0.067  -3.403   4.596  0.00  0.00    -0.063 NA
ATOM      5  O   UNL     1       0.052  -2.310   3.691  0.00  0.00    -0.333 OA
ENDROOT
BRANCH   1  11
ATOM      6  C   UNL     1      -0.018   1.503   0.010  0.00  0.00    +0.046 C 
ATOM      7  C   UNL     1       0.002  -0.004   0.002  0.00  0.00    -0.020 A 
ATOM      8  C   UNL     1       0.006  -0.688  -1.201  0.00  0.00    +0.005 A 
ATOM      9  C   UNL     1       0.024  -2.071  -1.218  0.00  0.00    +0.001 A 
ATOM     10  C   UNL     1       0.039  -2.778  -0.033  0.00  0.00    +0.015 A 
ATOM     11  C   UNL     1       0.036  -2.095   1.184  0.00  0.00    +0.070 A 
ATOM     12  C   UNL     1       0.023  -0.699   1.194  0.00  0.00    +0.141 A 
BRANCH  12  13
ATOM     13  N   UNL     1       0.025   0.035   2.479  0.00  0.00    +0.057 N 
ATOM     14  O   UNL     1      -1.021   0.320   3.015  0.00  0.00    -0.126 OA
ATOM     15  O   UNL     1       1.073   0.348   2.995  0.00  0.00    -0.126 OA
ENDBRANCH  12  13
ENDBRANCH   1  11
BRANCH   3  16
ATOM     16  C   UNL     1       0.110  -5.895   4.413  0.00  0.00    +0.003 C 
BRANCH  16  17
ATOM     17  C   UNL     1      -1.276  -6.262   4.947  0.00  0.00    -0.044 C 
ATOM     18  C   UNL     1      -2.301  -6.168   3.815  0.00  0.00    +0.009 C 
ATOM     19  C   UNL     1      -1.250  -7.691   5.493  0.00  0.00    +0.009 C 
ATOM     20  C   UNL     1      -1.663  -5.295   6.067  0.00  0.00    +0.009 C 
ENDBRANCH  16  17
BRANCH  16  21
ATOM     21  N   UNL     1       1.093  -5.986   5.500  0.00  0.00    +0.385 N 
ATOM     22  H   UNL     1       2.007  -5.744   5.147  0.00  0.00    -0.089 HD
ATOM     23  H   UNL     1       0.838  -5.348   6.239  0.00  0.00    -0.089 HD
ATOM     24  H   UNL     1       1.111  -6.928   5.860  0.00  0.00    -0.089 HD
ENDBRANCH  16  21
ENDBRANCH   3  16
TORSDOF 5
