REMARK  Name = ZINC64540750
REMARK  9 active torsions:
REMARK  status: ('A' for Active; 'I' for Inactive)
REMARK    1  A    between atoms: C_1  and  O_2
REMARK    2  A    between atoms: O_2  and  C_3
REMARK    3  A    between atoms: C_6  and  C_9
REMARK    4  A    between atoms: C_9  and  N_10
REMARK    5  A    between atoms: C_11  and  C_13
REMARK    6  A    between atoms: C_13  and  C_14
REMARK    7  A    between atoms: C_20  and  C_22
REMARK    8  A    between atoms: C_28  and  O_32
REMARK    9  A    between atoms: O_32  and  C_33
REMARK                            x       y       z     vdW  Elec       q    Type
REMARK                         _______ _______ _______ _____ _____    ______ ____
ROOT
ATOM      1  C   UNL     1       6.864  -4.195  -5.870  0.00  0.00    +0.001 C 
ATOM      2  C   UNL     1       6.277  -5.596  -6.061  0.00  0.00    +0.023 C 
ATOM      3  C   UNL     1       6.936  -6.259  -7.275  0.00  0.00    +0.108 C 
ATOM      4  N   UNL     1       8.393  -6.235  -7.095  0.00  0.00    -0.300 N 
ATOM      5  C   UNL     1       9.050  -4.951  -6.814  0.00  0.00    +0.108 C 
ATOM      6  C   UNL     1       8.368  -4.302  -5.606  0.00  0.00    +0.023 C 
ATOM      7  C   UNL     1       9.115  -7.370  -7.184  0.00  0.00    +0.242 C 
ATOM      8  O   UNL     1       8.562  -8.424  -7.415  0.00  0.00    -0.273 OA
ENDROOT
BRANCH   7   9
ATOM      9  C   UNL     1      10.610  -7.329  -6.996  0.00  0.00    +0.190 C 
ATOM     10  C   UNL     1      11.246  -6.473  -8.068  0.00  0.00    +0.016 C 
ATOM     11  C   UNL     1      12.083  -7.285  -8.751  0.00  0.00    -0.003 A 
ATOM     12  C   UNL     1      12.977  -7.056  -9.893  0.00  0.00    +0.013 A 
ATOM     13  C   UNL     1      13.708  -8.085 -10.371  0.00  0.00    +0.046 A 
ATOM     14  C   UNL     1      13.634  -9.371  -9.802  0.00  0.00    +0.122 A 
ATOM     15  C   UNL     1      12.830  -9.656  -8.746  0.00  0.00    +0.071 A 
ATOM     16  C   UNL     1      12.022  -8.646  -8.169  0.00  0.00    +0.047 A 
ATOM     17  N   UNL     1      11.177  -8.672  -7.161  0.00  0.00    -0.370 N 
ATOM     18  H   UNL     1      10.965  -9.447  -6.619  0.00  0.00    +0.161 HD
BRANCH  14  19
ATOM     19  O   UNL     1      14.394 -10.362 -10.329  0.00  0.00    -0.495 OA
ATOM     20  C   UNL     1      15.226 -10.021 -11.440  0.00  0.00    +0.277 C 
ENDBRANCH  14  19
ENDBRANCH   7   9
BRANCH   1  21
ATOM     21  C   UNL     1       6.184  -3.516  -4.679  0.00  0.00    +0.099 C 
BRANCH  21  23
ATOM     22  N   UNL     1       3.923  -2.713  -4.080  0.00  0.00    -0.311 N 
ATOM     23  C   UNL     1       4.726  -3.300  -4.989  0.00  0.00    +0.214 C 
ATOM     24  O   UNL     1       4.274  -3.654  -6.058  0.00  0.00    -0.276 OA
ATOM     25  H   UNL     1       4.284  -2.430  -3.225  0.00  0.00    +0.149 HD
BRANCH  22  26
ATOM     26  C   UNL     1       2.505  -2.503  -4.381  0.00  0.00    +0.139 C 
BRANCH  26  30
ATOM     27  C   UNL     1       0.606  -0.607  -1.056  0.00  0.00    +0.120 A 
ATOM     28  C   UNL     1       1.173   0.161  -2.062  0.00  0.00    +0.046 A 
ATOM     29  C   UNL     1       1.786  -0.455  -3.136  0.00  0.00    +0.009 A 
ATOM     30  C   UNL     1       1.835  -1.835  -3.209  0.00  0.00    -0.030 A 
ATOM     31  C   UNL     1       1.270  -2.602  -2.207  0.00  0.00    +0.009 A 
ATOM     32  C   UNL     1       0.661  -1.992  -1.128  0.00  0.00    +0.046 A 
BRANCH  27  34
ATOM     33  C   UNL     1      -0.017   1.425   0.010  0.00  0.00    +0.277 C 
ATOM     34  O   UNL     1       0.002  -0.004   0.002  0.00  0.00    -0.495 OA
ENDBRANCH  27  34
ENDBRANCH  26  30
ENDBRANCH  22  26
ENDBRANCH  21  23
ENDBRANCH   1  21
TORSDOF 7
