REMARK  Name = ZINC33322104
REMARK  5 active torsions:
REMARK  status: ('A' for Active; 'I' for Inactive)
REMARK    1  A    between atoms: C_1  and  O_2
REMARK    2  A    between atoms: O_2  and  C_3
REMARK    3  A    between atoms: C_5  and  C_11
REMARK    4  A    between atoms: C_8  and  O_9
REMARK    5  A    between atoms: N_16  and  C_19
REMARK                            x       y       z     vdW  Elec       q    Type
REMARK                         _______ _______ _______ _____ _____    ______ ____
ROOT
ATOM      1  C   UNL     1      -4.849   0.216   0.038  0.00  0.00    +0.026 C 
ATOM      2  C   UNL     1      -6.065  -0.428  -0.059  0.00  0.00    +0.102 C 
ATOM      3  C   UNL     1      -6.311  -1.883  -0.070  0.00  0.00    +0.266 C 
ATOM      4  O   UNL     1      -5.472  -2.761   0.005  0.00  0.00    -0.268 OA
ATOM      5  N   UNL     1      -7.643  -2.053  -0.178  0.00  0.00    -0.223 N 
ATOM      6  N   UNL     1      -8.291  -0.820  -0.239  0.00  0.00    -0.184 N 
ATOM      7  C   UNL     1      -7.401   0.188  -0.167  0.00  0.00    +0.272 C 
ATOM      8  O   UNL     1      -7.651   1.379  -0.189  0.00  0.00    -0.268 OA
ATOM      9  H   UNL     1      -8.089  -2.913  -0.209  0.00  0.00    +0.174 HD
ENDROOT
BRANCH   1  12
ATOM     10  C   UNL     1      -1.341  -0.936   0.675  0.00  0.00    +0.163 A 
ATOM     11  C   UNL     1      -2.511  -0.209   0.760  0.00  0.00    +0.057 A 
ATOM     12  C   UNL     1      -3.605  -0.551  -0.048  0.00  0.00    -0.019 A 
ATOM     13  C   UNL     1      -3.504  -1.631  -0.937  0.00  0.00    +0.031 A 
ATOM     14  C   UNL     1      -2.333  -2.350  -1.014  0.00  0.00    +0.087 A 
ATOM     15  C   UNL     1      -1.247  -2.006  -0.215  0.00  0.00    +0.177 A 
ATOM     16 CL   UNL     1      -2.208  -3.687  -2.114  0.00  0.00    -0.080 Cl
BRANCH  10  18
ATOM     17  C   UNL     1      -0.445   0.499   2.346  0.00  0.00    +0.277 C 
ATOM     18  O   UNL     1      -0.278  -0.607   1.457  0.00  0.00    -0.491 OA
ENDBRANCH  10  18
BRANCH  15  19
ATOM     19  O   UNL     1      -0.093  -2.716  -0.300  0.00  0.00    -0.502 OA
ATOM     20  H   UNL     1      -0.050  -3.470   0.303  0.00  0.00    +0.292 HD
ENDBRANCH  15  19
ENDBRANCH   1  12
BRANCH   6  21
ATOM     21  C   UNL     1      -9.675  -0.653  -0.353  0.00  0.00    +0.056 A 
ATOM     22  C   UNL     1     -10.219   0.624  -0.412  0.00  0.00    +0.026 A 
ATOM     23  C   UNL     1     -11.586   0.785  -0.525  0.00  0.00    +0.017 A 
ATOM     24  C   UNL     1     -12.413  -0.323  -0.580  0.00  0.00    +0.018 A 
ATOM     25  C   UNL     1     -11.874  -1.595  -0.521  0.00  0.00    +0.017 A 
ATOM     26  C   UNL     1     -10.507  -1.763  -0.414  0.00  0.00    +0.026 A 
ATOM     27 BR   UNL     1     -14.284  -0.097  -0.735  0.00  0.00    -0.050 Br
ENDBRANCH   6  21
TORSDOF 4
