REMARK  Name = ZINC08430149
REMARK  7 active torsions:
REMARK  status: ('A' for Active; 'I' for Inactive)
REMARK    1  A    between atoms: C_1  and  C_2
REMARK    2  A    between atoms: C_5  and  N_9
REMARK    3  A    between atoms: C_7  and  C_8
REMARK    4  A    between atoms: C_13  and  C_14
REMARK    5  A    between atoms: C_15  and  O_30
REMARK    6  A    between atoms: N_20  and  C_23
REMARK    7  A    between atoms: C_31  and  C_33
REMARK                            x       y       z     vdW  Elec       q    Type
REMARK                         _______ _______ _______ _____ _____    ______ ____
ROOT
ATOM      1  C   UNL     1       1.355  -0.490  -0.280  0.00  0.00    +0.100 A 
ATOM      2  C   UNL     1       2.272  -0.464   0.786  0.00  0.00    +0.207 A 
ATOM      3  N   UNL     1       3.306  -1.351   0.787  0.00  0.00    -0.278 N 
ATOM      4  H   UNL     1       3.961  -1.337   1.543  0.00  0.00    +0.173 HD
ATOM      5  C   UNL     1       3.465  -2.242  -0.203  0.00  0.00    +0.337 A 
ATOM      6  O   UNL     1       4.405  -3.011  -0.153  0.00  0.00    -0.246 OA
ATOM      7  N   UNL     1       2.625  -2.316  -1.248  0.00  0.00    -0.228 N 
ATOM      8  C   UNL     1       1.565  -1.487  -1.343  0.00  0.00    +0.272 A 
ATOM      9  O   UNL     1       0.801  -1.558  -2.288  0.00  0.00    -0.266 OA
ENDROOT
BRANCH   1  14
ATOM     10  N   UNL     1       1.500   3.763  -0.224  0.00  0.00    -0.156 N 
ATOM     11  C   UNL     1       1.755   2.442  -0.297  0.00  0.00    +0.272 C 
ATOM     12  O   UNL     1       2.854   1.917  -0.369  0.00  0.00    -0.268 OA
ATOM     13  C   UNL     1       0.498   1.777  -0.272  0.00  0.00    +0.062 C 
ATOM     14  C   UNL     1       0.271   0.404  -0.327  0.00  0.00    +0.033 C 
ATOM     15  C   UNL     1      -0.511   2.839  -0.184  0.00  0.00    +0.069 C 
ATOM     16  N   UNL     1       0.121   3.975  -0.153  0.00  0.00    -0.177 NA
ATOM     17  C   UNL     1      -2.005   2.648  -0.134  0.00  0.00    +0.068 C 
BRANCH  10  22
ATOM     18  C   UNL     1       5.434   7.851  -0.206  0.00  0.00    +0.044 C 
ATOM     19  C   UNL     1       4.389   6.766  -0.211  0.00  0.00    -0.047 A 
ATOM     20  C   UNL     1       4.773   5.439  -0.290  0.00  0.00    +0.005 A 
ATOM     21  C   UNL     1       3.818   4.441  -0.289  0.00  0.00    +0.026 A 
ATOM     22  C   UNL     1       2.471   4.772  -0.220  0.00  0.00    +0.061 A 
ATOM     23  C   UNL     1       2.089   6.105  -0.141  0.00  0.00    +0.029 A 
ATOM     24  C   UNL     1       3.049   7.098  -0.137  0.00  0.00    -0.046 A 
ATOM     25  C   UNL     1       2.636   8.544  -0.051  0.00  0.00    +0.044 C 
ENDBRANCH  10  22
ENDBRANCH   1  14
BRANCH   7  26
ATOM     26  C   UNL     1       2.848  -3.271  -2.249  0.00  0.00    +0.056 A 
ATOM     27  C   UNL     1       1.986  -4.351  -2.385  0.00  0.00    +0.026 A 
ATOM     28  C   UNL     1       2.205  -5.289  -3.375  0.00  0.00    +0.003 A 
ATOM     29  C   UNL     1       3.288  -5.158  -4.226  0.00  0.00    +0.020 A 
ATOM     30  C   UNL     1       4.152  -4.085  -4.090  0.00  0.00    +0.043 A 
ATOM     31  C   UNL     1       3.934  -3.142  -3.103  0.00  0.00    +0.046 A 
ATOM     32 CL   UNL     1       5.510  -3.925  -5.160  0.00  0.00    -0.083 Cl
ENDBRANCH   7  26
BRANCH   2  33
ATOM     33  O   UNL     1       2.129   0.421   1.788  0.00  0.00    -0.493 OA
ATOM     34  H   UNL     1       2.788   0.394   2.495  0.00  0.00    +0.294 HD
ENDBRANCH   2  33
TORSDOF 4
