REMARK  Name = ZINC65193169
REMARK  6 active torsions:
REMARK  status: ('A' for Active; 'I' for Inactive)
REMARK    1  A    between atoms: C_3  and  N_21
REMARK    2  A    between atoms: C_4  and  C_10
REMARK    3  A    between atoms: C_6  and  N_7
REMARK    4  A    between atoms: N_12  and  N_13
REMARK    5  A    between atoms: N_16  and  C_17
REMARK    6  A    between atoms: C_17  and  C_18
REMARK                            x       y       z     vdW  Elec       q    Type
REMARK                         _______ _______ _______ _____ _____    ______ ____
ROOT
ATOM      1  C   UNL     1      -0.017   1.381   0.010  0.00  0.00    +0.034 A 
ATOM      2  C   UNL     1       1.164   2.096   0.002  0.00  0.00    +0.026 A 
ATOM      3  C   UNL     1       2.382   1.429  -0.013  0.00  0.00    +0.042 A 
ATOM      4  C   UNL     1       2.404   0.025  -0.021  0.00  0.00    +0.061 A 
ATOM      5  C   UNL     1       1.200  -0.684  -0.013  0.00  0.00    +0.047 A 
ATOM      6  C   UNL     1       0.002  -0.004   0.002  0.00  0.00    +0.127 A 
ENDROOT
BRANCH   3   7
ATOM      7  N   UNL     1       3.571   2.146  -0.022  0.00  0.00    -0.329 N 
ATOM      8  C   UNL     1       4.196   2.544  -1.291  0.00  0.00    +0.105 C 
ATOM      9  C   UNL     1       4.443   4.056  -1.266  0.00  0.00    +0.019 C 
ATOM     10  C   UNL     1       5.260   4.415  -0.022  0.00  0.00    +0.003 C 
ATOM     11  C   UNL     1       4.474   4.033   1.234  0.00  0.00    +0.019 C 
ATOM     12  C   UNL     1       4.225   2.526   1.238  0.00  0.00    +0.105 C 
ENDBRANCH   3   7
BRANCH   4  13
ATOM     13  C   UNL     1       3.690  -0.696  -0.038  0.00  0.00    +0.262 C 
ATOM     14  O   UNL     1       4.735  -0.075  -0.046  0.00  0.00    -0.269 OA
ATOM     15  N   UNL     1       3.706  -2.044  -0.046  0.00  0.00    -0.229 N 
ATOM     16  H   UNL     1       2.872  -2.539  -0.040  0.00  0.00    +0.173 HD
BRANCH  15  17
ATOM     17  N   UNL     1       4.928  -2.729  -0.062  0.00  0.00    -0.218 N 
ATOM     18  C   UNL     1       4.945  -4.077  -0.070  0.00  0.00    +0.316 C 
ATOM     19  O   UNL     1       6.005  -4.672  -0.084  0.00  0.00    -0.251 OA
ATOM     20  N   UNL     1       3.786  -4.765  -0.061  0.00  0.00    -0.298 N 
ATOM     21  H   UNL     1       5.762  -2.234  -0.068  0.00  0.00    +0.174 HD
ATOM     22  H   UNL     1       2.940  -4.291  -0.050  0.00  0.00    +0.150 HD
BRANCH  20  23
ATOM     23  C   UNL     1       3.804  -6.230  -0.069  0.00  0.00    +0.109 C 
BRANCH  23  24
ATOM     24  C   UNL     1       2.368  -6.758  -0.057  0.00  0.00    +0.006 C 
ATOM     25  C   UNL     1       1.925  -7.574   1.159  0.00  0.00    +0.005 C 
ATOM     26  C   UNL     1       2.170  -8.270  -0.182  0.00  0.00    +0.005 C 
ENDBRANCH  23  24
ENDBRANCH  20  23
ENDBRANCH  15  17
ENDBRANCH   4  13
BRANCH   6  27
ATOM     27  N   UNL     1      -1.272  -0.758   0.011  0.00  0.00    +0.056 N 
ATOM     28  O   UNL     1      -2.325  -0.164   0.024  0.00  0.00    -0.126 OA
ATOM     29  O   UNL     1      -1.259  -1.966   0.004  0.00  0.00    -0.126 OA
ENDBRANCH   6  27
TORSDOF 6
