REMARK  Name = ZINC61407111
REMARK  4 active torsions:
REMARK  status: ('A' for Active; 'I' for Inactive)
REMARK    1  A    between atoms: C_9  and  S_10
REMARK    2  A    between atoms: S_10  and  C_11
REMARK    3  A    between atoms: C_14  and  C_18
REMARK    4  A    between atoms: C_18  and  N_19
REMARK                            x       y       z     vdW  Elec       q    Type
REMARK                         _______ _______ _______ _____ _____    ______ ____
ROOT
ATOM      1  C   UNL     1       6.030  -2.039  -0.109  0.00  0.00    +0.051 A 
ATOM      2  C   UNL     1       5.339  -3.240  -0.211  0.00  0.00    +0.018 A 
ATOM      3  C   UNL     1       6.034  -4.433  -0.256  0.00  0.00    +0.003 A 
ATOM      4  C   UNL     1       7.416  -4.434  -0.199  0.00  0.00    -0.062 A 
ATOM      5  C   UNL     1       8.108  -3.241  -0.097  0.00  0.00    +0.041 A 
ATOM      6  C   UNL     1       7.420  -2.042  -0.057  0.00  0.00    +0.137 A 
ATOM      7  F   UNL     1       8.097  -0.877   0.037  0.00  0.00    -0.204 F 
ENDROOT
BRANCH   1   8
ATOM      8  S   UNL     1       5.147  -0.515  -0.051  0.00  0.00    -0.047 S 
BRANCH   8  17
ATOM      9  C   UNL     1       4.087   3.226   3.827  0.00  0.00    +0.005 A 
ATOM     10  C   UNL     1       3.813   3.266   2.447  0.00  0.00    +0.018 A 
ATOM     11  C   UNL     1       4.157   2.233   1.653  0.00  0.00    +0.095 A 
ATOM     12  N   UNL     1       4.776   1.133   2.176  0.00  0.00    -0.277 N 
ATOM     13  C   UNL     1       5.057   1.065   3.524  0.00  0.00    +0.162 A 
ATOM     14  C   UNL     1       4.702   2.140   4.364  0.00  0.00    +0.049 A 
ATOM     15  N   UNL     1       5.648  -0.097   3.735  0.00  0.00    -0.129 NA
ATOM     16  N   UNL     1       5.748  -0.741   2.626  0.00  0.00    -0.121 NA
ATOM     17  C   UNL     1       5.232  -0.037   1.643  0.00  0.00    +0.201 A 
ENDBRANCH   8  17
ENDBRANCH   1   8
BRANCH   4  18
ATOM     18  C   UNL     1       8.169  -5.738  -0.248  0.00  0.00    -0.051 C 
BRANCH  18  19
ATOM     19  N   UNL     1       8.471  -6.077  -1.645  0.00  0.00    +0.381 N 
ATOM     20  H   UNL     1       7.610  -6.167  -2.163  0.00  0.00    -0.090 HD
ATOM     21  H   UNL     1       9.035  -5.348  -2.054  0.00  0.00    -0.090 HD
ATOM     22  H   UNL     1       8.975  -6.951  -1.677  0.00  0.00    -0.090 HD
ENDBRANCH  18  19
ENDBRANCH   4  18
TORSDOF 4
