REMARK  Name = ZINC01024956
REMARK  6 active torsions:
REMARK  status: ('A' for Active; 'I' for Inactive)
REMARK    1  A    between atoms: C_1  and  O_2
REMARK    2  A    between atoms: O_2  and  C_3
REMARK    3  A    between atoms: C_6  and  C_11
REMARK    4  A    between atoms: C_8  and  O_9
REMARK    5  A    between atoms: O_9  and  C_10
REMARK    6  A    between atoms: C_13  and  C_35
REMARK                            x       y       z     vdW  Elec       q    Type
REMARK                         _______ _______ _______ _____ _____    ______ ____
ROOT
ATOM      1  C   UNL     1      -2.271   4.027  -7.373  0.00  0.00    +0.098 C 
ATOM      2  C   UNL     1      -3.263   4.226  -6.248  0.00  0.00    +0.082 C 
ATOM      3  C   UNL     1      -3.039   3.544  -5.054  0.00  0.00    +0.147 C 
ATOM      4  N   UNL     1      -3.917   3.718  -4.056  0.00  0.00    -0.215 NA
ATOM      5  C   UNL     1      -3.801   3.123  -2.888  0.00  0.00    +0.128 C 
ATOM      6  C   UNL     1      -2.660   2.215  -2.642  0.00  0.00    +0.047 A 
ATOM      7  C   UNL     1      -2.343   1.459  -1.429  0.00  0.00    -0.025 A 
ATOM      8  C   UNL     1      -1.232   0.694  -1.458  0.00  0.00    -0.005 A 
ATOM      9  S   UNL     1      -0.556   0.935  -3.079  0.00  0.00    -0.077 S 
ATOM     10  C   UNL     1      -1.773   2.063  -3.705  0.00  0.00    +0.089 A 
ATOM     11  N   UNL     1      -1.949   2.715  -4.901  0.00  0.00    -0.250 N 
ATOM     12  C   UNL     1      -1.019   2.503  -5.891  0.00  0.00    +0.025 C 
ATOM     13  C   UNL     1      -1.109   3.093  -7.100  0.00  0.00    +0.025 C 
ATOM     14  C   UNL     1      -0.166   2.867  -8.112  0.00  0.00    +0.162 C 
ATOM     15  O   UNL     1      -0.284   3.434  -9.180  0.00  0.00    -0.292 OA
ATOM     16  C   UNL     1       0.993   1.930  -7.893  0.00  0.00    +0.080 C 
ATOM     17  C   UNL     1       0.584   0.871  -6.864  0.00  0.00    +0.014 C 
ATOM     18  C   UNL     1       0.137   1.577  -5.583  0.00  0.00    +0.052 C 
ATOM     19  C   UNL     1      -0.693  -0.167  -0.358  0.00  0.00    +0.043 C 
ATOM     20  C   UNL     1      -1.388   0.228   0.953  0.00  0.00    +0.005 C 
ATOM     21  C   UNL     1      -2.898   0.308   0.702  0.00  0.00    +0.005 C 
ATOM     22  C   UNL     1      -3.216   1.518  -0.178  0.00  0.00    +0.037 C 
ATOM     23  N   UNL     1      -4.736   3.342  -1.903  0.00  0.00    -0.343 N 
ATOM     24  H   UNL     1      -5.565   3.798  -2.115  0.00  0.00    +0.144 HD
ATOM     25  H   UNL     1      -4.565   3.042  -0.997  0.00  0.00    +0.144 HD
ENDROOT
BRANCH   1  29
ATOM     26  C   UNL     1      -0.670   7.853  -8.414  0.00  0.00    +0.162 A 
ATOM     27  C   UNL     1      -0.387   7.293  -7.179  0.00  0.00    +0.050 A 
ATOM     28  C   UNL     1      -0.910   6.059  -6.843  0.00  0.00    +0.008 A 
ATOM     29  C   UNL     1      -1.708   5.375  -7.742  0.00  0.00    -0.031 A 
ATOM     30  C   UNL     1      -1.994   5.928  -8.976  0.00  0.00    +0.054 A 
ATOM     31  C   UNL     1      -1.478   7.167  -9.316  0.00  0.00    +0.162 A 
BRANCH  26  33
ATOM     32  C   UNL     1       0.660   9.716  -7.768  0.00  0.00    +0.277 C 
ATOM     33  O   UNL     1      -0.161   9.070  -8.744  0.00  0.00    -0.491 OA
ENDBRANCH  26  33
BRANCH  31  34
ATOM     34  O   UNL     1      -1.759   7.713 -10.530  0.00  0.00    -0.491 OA
ATOM     35  C   UNL     1      -2.595   6.953 -11.405  0.00  0.00    +0.277 C 
ENDBRANCH  31  34
ENDBRANCH   1  29
BRANCH   2  36
ATOM     36  C   UNL     1      -4.395   5.088  -6.405  0.00  0.00    +0.099 C 
ATOM     37  N   UNL     1      -5.293   5.772  -6.530  0.00  0.00    -0.191 NA
ENDBRANCH   2  36
TORSDOF 4
