REMARK  Name = ZINC19291129
REMARK  5 active torsions:
REMARK  status: ('A' for Active; 'I' for Inactive)
REMARK    1  A    between atoms: C_1  and  N_2
REMARK    2  A    between atoms: C_6  and  C_7
REMARK    3  A    between atoms: C_7  and  N_8
REMARK    4  A    between atoms: C_26  and  O_30
REMARK    5  A    between atoms: O_30  and  C_31
REMARK                            x       y       z     vdW  Elec       q    Type
REMARK                         _______ _______ _______ _____ _____    ______ ____
ROOT
ATOM      1  N   UNL     1      -0.803   3.061  -1.206  0.00  0.00    +0.383 N 
ATOM      2  C   UNL     1      -0.754   1.593  -1.231  0.00  0.00    -0.076 C 
ATOM      3  C   UNL     1      -0.013   1.086   0.008  0.00  0.00    +0.016 C 
ATOM      4  C   UNL     1      -0.730   1.579   1.265  0.00  0.00    +0.069 C 
ATOM      5  C   UNL     1      -0.827   3.105   1.243  0.00  0.00    +0.016 C 
ATOM      6  C   UNL     1      -1.543   3.549  -0.035  0.00  0.00    -0.076 C 
ATOM      7  C   UNL     1       0.060   1.132   2.513  0.00  0.00    +0.069 C 
ATOM      8  C   UNL     1      -1.068   0.721   3.480  0.00  0.00    +0.099 C 
ATOM      9  C   UNL     1      -2.145   0.186   2.522  0.00  0.00    +0.192 C 
ATOM     10  O   UNL     1      -2.037   1.005   1.343  0.00  0.00    -0.371 OA
ATOM     11  C   UNL     1      -0.604  -0.343   4.428  0.00  0.00    +0.049 A 
ATOM     12  C   UNL     1      -0.486  -1.664   4.261  0.00  0.00    +0.025 A 
ATOM     13  C   UNL     1      -0.010  -2.204   5.476  0.00  0.00    +0.020 A 
ATOM     14  C   UNL     1       0.147  -1.179   6.344  0.00  0.00    +0.092 A 
ATOM     15  N   UNL     1      -0.207  -0.035   5.715  0.00  0.00    -0.316 N 
ATOM     16  C   UNL     1      -0.213   1.293   6.175  0.00  0.00    +0.067 A 
ATOM     17  C   UNL     1       0.435   1.658   7.338  0.00  0.00    +0.031 A 
ATOM     18  C   UNL     1       0.413   2.977   7.754  0.00  0.00    +0.048 A 
ATOM     19  C   UNL     1      -0.259   3.932   7.005  0.00  0.00    +0.122 A 
ATOM     20  C   UNL     1      -0.913   3.571   5.837  0.00  0.00    +0.070 A 
ATOM     21  C   UNL     1      -0.894   2.252   5.416  0.00  0.00    +0.056 A 
ATOM     22  N   UNL     1      -1.554   1.873   4.236  0.00  0.00    -0.329 N 
ATOM     23  H   UNL     1      -2.430   2.435   3.880  0.00  0.00    +0.147 HD
ATOM     24  H   UNL     1       0.231   3.429  -1.126  0.00  0.00    -0.081 HD
ENDROOT
BRANCH  19  25
ATOM     25  O   UNL     1      -0.277   5.228   7.418  0.00  0.00    -0.495 OA
ATOM     26  C   UNL     1       0.417   5.532   8.630  0.00  0.00    +0.277 C 
ENDBRANCH  19  25
BRANCH   1  27
ATOM     27  C   UNL     1      -1.378   3.590  -2.450  0.00  0.00    -0.024 C 
BRANCH  27  33
ATOM     28  C   UNL     1      -3.909   4.894  -1.222  0.00  0.00    +0.148 C 
ATOM     29  N   UNL     1      -2.757   5.627  -1.753  0.00  0.00    -0.355 N 
ATOM     30  C   UNL     1      -2.624   6.984  -1.782  0.00  0.00    +0.085 A 
ATOM     31  C   UNL     1      -1.436   7.279  -2.347  0.00  0.00    +0.019 A 
ATOM     32  C   UNL     1      -0.810   6.060  -2.673  0.00  0.00    +0.021 A 
ATOM     33  C   UNL     1      -1.639   5.066  -2.295  0.00  0.00    +0.002 A 
ENDBRANCH  27  33
ENDBRANCH   1  27
TORSDOF 3
