REMARK  Name = ZINC67473239
REMARK  8 active torsions:
REMARK  status: ('A' for Active; 'I' for Inactive)
REMARK    1  A    between atoms: C_1  and  C_2
REMARK    2  A    between atoms: C_5  and  C_8
REMARK    3  A    between atoms: C_8  and  O_23
REMARK    4  A    between atoms: N_11  and  C_14
REMARK    5  A    between atoms: C_14  and  C_15
REMARK    6  A    between atoms: N_19  and  C_20
REMARK    7  A    between atoms: C_20  and  C_21
REMARK    8  A    between atoms: C_20  and  C_22
REMARK                            x       y       z     vdW  Elec       q    Type
REMARK                         _______ _______ _______ _____ _____    ______ ____
ROOT
ATOM      1  C   UNL     1      -0.499  -4.532  -0.659  0.00  0.00    +0.110 C 
ATOM      2  C   UNL     1      -1.880  -5.119  -0.962  0.00  0.00    +0.056 C 
ATOM      3  C   UNL     1      -1.834  -6.638  -0.783  0.00  0.00    +0.088 C 
ATOM      4  N   UNL     1      -1.438  -6.959   0.594  0.00  0.00    -0.295 NA
ATOM      5  C   UNL     1      -0.095  -6.446   0.893  0.00  0.00    +0.088 C 
ATOM      6  C   UNL     1      -0.089  -4.921   0.764  0.00  0.00    +0.056 C 
ENDROOT
BRANCH   1  11
ATOM      7  C   UNL     1      -0.678   1.188  -1.005  0.00  0.00    +0.045 C 
ATOM      8  C   UNL     1      -0.642  -0.318  -0.951  0.00  0.00    -0.032 A 
ATOM      9  C   UNL     1      -0.951  -1.069  -2.075  0.00  0.00    +0.007 A 
ATOM     10  C   UNL     1      -0.904  -2.451  -1.979  0.00  0.00    +0.026 A 
ATOM     11  C   UNL     1      -0.553  -3.031  -0.775  0.00  0.00    +0.073 A 
ATOM     12  N   UNL     1      -0.266  -2.285   0.274  0.00  0.00    -0.257 NA
ATOM     13  C   UNL     1      -0.294  -0.968   0.218  0.00  0.00    +0.114 A 
ENDBRANCH   1  11
BRANCH   1  14
ATOM     14  O   UNL     1       0.455  -5.049  -1.589  0.00  0.00    -0.382 OA
ATOM     15  H   UNL     1       0.257  -4.841  -2.512  0.00  0.00    +0.211 HD
ENDBRANCH   1  14
BRANCH   4  16
ATOM     16  C   UNL     1      -1.517  -8.405   0.842  0.00  0.00    +0.156 C 
BRANCH  16  17
ATOM     17  C   UNL     1      -1.482  -8.663   2.326  0.00  0.00    +0.102 A 
ATOM     18  N   UNL     1      -0.417  -8.953   3.022  0.00  0.00    -0.349 N 
ATOM     19  C   UNL     1      -0.761  -9.116   4.309  0.00  0.00    +0.102 A 
ATOM     20  C   UNL     1      -2.089  -8.919   4.413  0.00  0.00    +0.105 A 
ATOM     21  N   UNL     1      -2.546  -8.626   3.157  0.00  0.00    -0.332 N 
ATOM     22  H   UNL     1       0.481  -9.038   2.666  0.00  0.00    +0.166 HD
BRANCH  21  23
ATOM     23  C   UNL     1      -3.931  -8.331   2.782  0.00  0.00    +0.082 C 
ATOM     24  C   UNL     1      -4.810  -9.547   3.079  0.00  0.00    +0.030 C 
ATOM     25  C   UNL     1      -4.432  -7.130   3.588  0.00  0.00    +0.030 C 
ENDBRANCH  21  23
ENDBRANCH  16  17
ENDBRANCH   4  16
TORSDOF 5
