REMARK  Name = ZINC03400392
REMARK  7 active torsions:
REMARK  status: ('A' for Active; 'I' for Inactive)
REMARK    1  A    between atoms: C_2  and  C_3
REMARK    2  A    between atoms: C_2  and  N_38
REMARK    3  A    between atoms: C_3  and  C_5
REMARK    4  A    between atoms: C_3  and  C_7
REMARK    5  A    between atoms: C_7  and  C_9
REMARK    6  A    between atoms: C_9  and  N_10
REMARK    7  A    between atoms: N_15  and  C_18
REMARK                            x       y       z     vdW  Elec       q    Type
REMARK                         _______ _______ _______ _____ _____    ______ ____
ROOT
ATOM      1  N   UNL     1      -0.079   5.303  -2.938  0.00  0.00    -0.210 N 
ATOM      2  C   UNL     1       1.134   5.898  -2.947  0.00  0.00    +0.310 C 
ATOM      3  O   UNL     1       1.759   6.307  -1.992  0.00  0.00    -0.264 OA
ATOM      4  C   UNL     1       1.546   5.942  -4.389  0.00  0.00    +0.310 C 
ATOM      5  O   UNL     1       2.574   6.395  -4.846  0.00  0.00    -0.264 OA
ATOM      6  N   UNL     1       0.527   5.377  -5.071  0.00  0.00    -0.215 N 
ATOM      7  C   UNL     1      -0.425   5.004  -4.201  0.00  0.00    +0.319 C 
ATOM      8  O   UNL     1      -1.468   4.465  -4.515  0.00  0.00    -0.252 OA
ENDROOT
BRANCH   6   9
ATOM      9  C   UNL     1       0.470   5.198  -6.524  0.00  0.00    +0.086 C 
ATOM     10  C   UNL     1       1.676   4.364  -7.002  0.00  0.00    +0.023 C 
ATOM     11  C   UNL     1       2.063   5.000  -8.361  0.00  0.00    +0.002 C 
ATOM     12  C   UNL     1       1.837   6.512  -8.108  0.00  0.00    +0.002 C 
ATOM     13  C   UNL     1       0.572   6.563  -7.228  0.00  0.00    +0.023 C 
ENDBRANCH   6   9
BRANCH   1  14
ATOM     14  C   UNL     1      -0.887   5.034  -1.746  0.00  0.00    +0.194 C 
BRANCH  14  15
ATOM     15  C   UNL     1      -0.546   3.669  -1.206  0.00  0.00    +0.173 C 
ATOM     16  O   UNL     1       0.286   2.991  -1.759  0.00  0.00    -0.294 OA
BRANCH  15  17
ATOM     17  C   UNL     1      -1.244   3.151   0.025  0.00  0.00    +0.200 C 
BRANCH  17  19
ATOM     18  C   UNL     1      -2.357   0.969   0.018  0.00  0.00    +0.028 C 
ATOM     19  C   UNL     1      -1.223   1.644   0.017  0.00  0.00    +0.003 C 
BRANCH  19  22
ATOM     20  H   UNL     1       0.002  -0.004   0.002  0.00  0.00    +0.120 HD
ATOM     21  H   UNL     1       0.822   1.462   0.002  0.00  0.00    +0.120 HD
ATOM     22  N   UNL     1      -0.005   0.963   0.285  0.00  0.00    -0.419 NA
ATOM     23  H   UNL     1       0.077   0.916   1.307  0.00  0.00    +0.120 HD
ENDBRANCH  19  22
ENDBRANCH  17  19
BRANCH  17  24
ATOM     24  C   UNL     1      -0.551   3.644   1.226  0.00  0.00    +0.080 C 
ATOM     25  N   UNL     1      -0.016   4.025   2.154  0.00  0.00    -0.195 NA
ENDBRANCH  17  24
ENDBRANCH  15  17
ENDBRANCH  14  15
ENDBRANCH   1  14
TORSDOF 7
