REMARK  Name = ZINC63270635
REMARK  8 active torsions:
REMARK  status: ('A' for Active; 'I' for Inactive)
REMARK    1  A    between atoms: C_2  and  C_3
REMARK    2  A    between atoms: C_3  and  N_4
REMARK    3  A    between atoms: C_5  and  C_7
REMARK    4  A    between atoms: N_9  and  C_10
REMARK    5  A    between atoms: C_15  and  C_16
REMARK    6  A    between atoms: N_18  and  C_19
REMARK    7  A    between atoms: C_19  and  C_20
REMARK    8  A    between atoms: C_20  and  C_21
REMARK                            x       y       z     vdW  Elec       q    Type
REMARK                         _______ _______ _______ _____ _____    ______ ____
ROOT
ATOM      1  C   UNL     1       3.728  -5.015   3.733  0.00  0.00    +0.046 A 
ATOM      2  C   UNL     1       2.679  -5.158   4.632  0.00  0.00    +0.024 A 
ATOM      3  C   UNL     1       2.816  -5.985   5.728  0.00  0.00    +0.002 A 
ATOM      4  C   UNL     1       3.997  -6.677   5.941  0.00  0.00    +0.001 A 
ATOM      5  C   UNL     1       5.049  -6.548   5.060  0.00  0.00    +0.015 A 
ATOM      6  C   UNL     1       4.923  -5.719   3.943  0.00  0.00    +0.058 A 
ENDROOT
BRANCH   1   9
ATOM      7  C   UNL     1       2.878  -3.044   2.724  0.00  0.00    +0.303 C 
ATOM      8  O   UNL     1       2.285  -2.785   3.751  0.00  0.00    -0.265 OA
ATOM      9  N   UNL     1       3.592  -4.183   2.627  0.00  0.00    -0.277 N 
ATOM     10  H   UNL     1       4.012  -4.421   1.785  0.00  0.00    +0.155 HD
BRANCH   7  12
ATOM     11  N   UNL     1       2.100  -0.962   1.665  0.00  0.00    -0.304 N 
ATOM     12  C   UNL     1       2.815  -2.101   1.567  0.00  0.00    +0.300 C 
ATOM     13  O   UNL     1       3.407  -2.359   0.540  0.00  0.00    -0.265 OA
ATOM     14  H   UNL     1       1.626  -0.756   2.486  0.00  0.00    +0.149 HD
BRANCH  11  15
ATOM     15  C   UNL     1       2.038  -0.037   0.531  0.00  0.00    +0.131 C 
BRANCH  15  17
ATOM     16  C   UNL     1       1.662   2.362   0.785  0.00  0.00    +0.005 C 
ATOM     17  C   UNL     1       1.182   1.148   0.895  0.00  0.00    -0.016 C 
ENDBRANCH  15  17
ENDBRANCH  11  15
ENDBRANCH   7  12
ENDBRANCH   1   9
BRANCH   6  18
ATOM     18  C   UNL     1       6.043  -5.581   2.992  0.00  0.00    +0.246 C 
ATOM     19  O   UNL     1       5.969  -4.782   2.078  0.00  0.00    -0.270 OA
ATOM     20  N   UNL     1       7.148  -6.339   3.137  0.00  0.00    -0.311 N 
ATOM     21  H   UNL     1       7.207  -6.976   3.867  0.00  0.00    +0.149 HD
BRANCH  20  22
ATOM     22  C   UNL     1       8.260  -6.201   2.193  0.00  0.00    +0.109 C 
BRANCH  22  23
ATOM     23  C   UNL     1       9.380  -7.168   2.581  0.00  0.00    +0.052 C 
BRANCH  23  24
ATOM     24  C   UNL     1      10.524  -7.027   1.610  0.00  0.00    -0.040 C 
ATOM     25  C   UNL     1      11.630  -6.262   1.762  0.00  0.00    -0.001 A 
ATOM     26  C   UNL     1      12.081  -5.368   2.834  0.00  0.00    +0.010 A 
ATOM     27  C   UNL     1      13.262  -4.723   2.698  0.00  0.00    +0.001 A 
ATOM     28  C   UNL     1      14.064  -4.886   1.560  0.00  0.00    +0.002 A 
ATOM     29  C   UNL     1      13.717  -5.691   0.533  0.00  0.00    +0.026 A 
ATOM     30  C   UNL     1      12.495  -6.418   0.571  0.00  0.00    +0.043 A 
ATOM     31  N   UNL     1      11.946  -7.247  -0.284  0.00  0.00    -0.380 N 
ATOM     32  C   UNL     1      10.671  -7.715   0.271  0.00  0.00    +0.144 C 
ATOM     33  H   UNL     1      12.322  -7.509  -1.139  0.00  0.00    +0.160 HD
ENDBRANCH  23  24
ENDBRANCH  22  23
ENDBRANCH  20  22
ENDBRANCH   6  18
TORSDOF 8
