REMARK  Name = ZINC39660386
REMARK  10 active torsions:
REMARK  status: ('A' for Active; 'I' for Inactive)
REMARK    1  A    between atoms: C_1  and  C_2
REMARK    2  A    between atoms: C_2  and  C_3
REMARK    3  A    between atoms: C_3  and  C_4
REMARK    4  A    between atoms: C_4  and  C_5
REMARK    5  A    between atoms: C_5  and  C_6
REMARK    6  A    between atoms: C_6  and  N_7
REMARK    7  A    between atoms: C_8  and  C_10
REMARK    8  A    between atoms: C_21  and  C_23
REMARK    9  A    between atoms: C_28  and  O_29
REMARK   10  A    between atoms: O_29  and  C_30
REMARK                            x       y       z     vdW  Elec       q    Type
REMARK                         _______ _______ _______ _____ _____    ______ ____
ROOT
ATOM      1  C   UNL     1       2.824  -6.384  -4.664  0.00  0.00    +0.100 C 
ATOM      2  C   UNL     1       4.225  -5.788  -4.928  0.00  0.00    +0.121 C 
ATOM      3  N   UNL     1       5.169  -6.844  -4.489  0.00  0.00    -0.296 N 
ATOM      4  C   UNL     1       4.539  -8.110  -4.936  0.00  0.00    +0.115 C 
ATOM      5  C   UNL     1       3.034  -7.907  -4.674  0.00  0.00    -0.004 C 
ATOM      6  C   UNL     1       2.650  -8.502  -3.322  0.00  0.00    -0.010 C 
ATOM      7  C   UNL     1       2.813 -10.024  -3.374  0.00  0.00    -0.082 C 
ATOM      8  N   UNL     1       1.958 -10.573  -4.434  0.00  0.00    +0.379 N 
ATOM      9  C   UNL     1       2.393 -10.067  -5.741  0.00  0.00    -0.082 C 
ATOM     10  C   UNL     1       2.213  -8.547  -5.789  0.00  0.00    -0.010 C 
ATOM     11  C   UNL     1       6.335  -6.688  -3.833  0.00  0.00    +0.252 C 
ATOM     12  O   UNL     1       7.049  -7.650  -3.624  0.00  0.00    -0.270 OA
ATOM     13  H   UNL     1       2.021 -11.580  -4.426  0.00  0.00    -0.086 HD
ATOM     14  H   UNL     1       1.002 -10.297  -4.269  0.00  0.00    -0.086 HD
ENDROOT
BRANCH  11  15
ATOM     15  C   UNL     1       6.747  -5.350  -3.368  0.00  0.00    +0.099 A 
ATOM     16  C   UNL     1       6.438  -4.209  -4.118  0.00  0.00    +0.020 A 
ATOM     17  C   UNL     1       6.847  -2.977  -3.638  0.00  0.00    +0.021 A 
ATOM     18  C   UNL     1       7.542  -2.908  -2.444  0.00  0.00    +0.114 A 
ATOM     19  N   UNL     1       7.823  -3.996  -1.754  0.00  0.00    -0.220 NA
ATOM     20  C   UNL     1       7.451  -5.197  -2.164  0.00  0.00    +0.233 A 
BRANCH  20  21
ATOM     21  O   UNL     1       7.757  -6.287  -1.421  0.00  0.00    -0.437 OA
BRANCH  21  22
ATOM     22  C   UNL     1       8.524  -6.109  -0.313  0.00  0.00    +0.130 A 
ATOM     23  C   UNL     1       9.871  -6.440  -0.340  0.00  0.00    +0.046 A 
ATOM     24  C   UNL     1      10.649  -6.257   0.787  0.00  0.00    +0.004 A 
ATOM     25  C   UNL     1      10.086  -5.746   1.941  0.00  0.00    +0.000 A 
ATOM     26  C   UNL     1       8.743  -5.416   1.971  0.00  0.00    +0.004 A 
ATOM     27  C   UNL     1       7.962  -5.591   0.845  0.00  0.00    +0.046 A 
ENDBRANCH  21  22
ENDBRANCH  20  21
ENDBRANCH  11  15
BRANCH   1  29
ATOM     28  N   UNL     1       0.980  -5.822  -3.114  0.00  0.00    -0.315 N 
ATOM     29  C   UNL     1       2.307  -5.934  -3.322  0.00  0.00    +0.218 C 
ATOM     30  O   UNL     1       3.084  -5.672  -2.429  0.00  0.00    -0.275 OA
ATOM     31  H   UNL     1       0.358  -6.031  -3.829  0.00  0.00    +0.149 HD
BRANCH  28  32
ATOM     32  C   UNL     1       0.477  -5.384  -1.810  0.00  0.00    +0.104 C 
BRANCH  32  33
ATOM     33  C   UNL     1      -1.052  -5.343  -1.841  0.00  0.00    +0.019 C 
BRANCH  33  34
ATOM     34  C   UNL     1      -1.578  -4.886  -0.478  0.00  0.00    +0.002 C 
BRANCH  34  35
ATOM     35  C   UNL     1      -3.107  -4.844  -0.509  0.00  0.00    -0.000 C 
BRANCH  35  37
ATOM     36  C   UNL     1      -5.161  -4.345   0.823  0.00  0.00    +0.004 C 
ATOM     37  C   UNL     1      -3.632  -4.387   0.854  0.00  0.00    -0.003 C 
ENDBRANCH  35  37
ENDBRANCH  34  35
ENDBRANCH  33  34
ENDBRANCH  32  33
ENDBRANCH  28  32
ENDBRANCH   1  29
TORSDOF 9
