REMARK  Name = ZINC65535026
REMARK  7 active torsions:
REMARK  status: ('A' for Active; 'I' for Inactive)
REMARK    1  A    between atoms: C_1  and  C_2
REMARK    2  A    between atoms: C_4  and  C_8
REMARK    3  A    between atoms: C_10  and  C_25
REMARK    4  A    between atoms: N_14  and  C_15
REMARK    5  A    between atoms: C_15  and  C_17
REMARK    6  A    between atoms: C_15  and  C_19
REMARK    7  A    between atoms: C_17  and  O_18
REMARK                            x       y       z     vdW  Elec       q    Type
REMARK                         _______ _______ _______ _____ _____    ______ ____
ROOT
ATOM      1  C   UNL     1      -3.836   2.774  -3.488  0.00  0.00    +0.144 C 
ATOM      2  C   UNL     1      -4.166   4.257  -3.233  0.00  0.00    +0.110 C 
ATOM      3  N   UNL     1      -5.201   4.259  -2.173  0.00  0.00    -0.295 NA
ATOM      4  C   UNL     1      -5.837   2.920  -2.272  0.00  0.00    +0.170 C 
ATOM      5  N   UNL     1      -4.700   2.006  -2.561  0.00  0.00    -0.269 NA
ATOM      6  H   UNL     1      -4.787   4.396  -1.263  0.00  0.00    +0.124 HD
ENDROOT
BRANCH   1  10
ATOM      7  C   UNL     1       0.462   1.614  -1.075  0.00  0.00    +0.065 C 
ATOM      8  C   UNL     1      -0.527   2.003  -2.143  0.00  0.00    +0.030 A 
ATOM      9  N   UNL     1      -1.879   2.150  -1.988  0.00  0.00    -0.346 N 
ATOM     10  C   UNL     1      -2.383   2.505  -3.189  0.00  0.00    +0.104 A 
ATOM     11  H   UNL     1      -2.382   2.023  -1.167  0.00  0.00    +0.167 HD
ATOM     12  N   UNL     1      -1.404   2.577  -4.049  0.00  0.00    -0.348 N 
ATOM     13  C   UNL     1      -0.251   2.278  -3.432  0.00  0.00    +0.105 A 
ATOM     14  H   UNL     1      -1.495   2.812  -4.985  0.00  0.00    +0.166 HD
ENDBRANCH   1  10
BRANCH   2  15
ATOM     15  C   UNL     1      -2.936   4.992  -2.764  0.00  0.00    -0.029 A 
ATOM     16  C   UNL     1      -2.534   4.895  -1.445  0.00  0.00    +0.005 A 
ATOM     17  C   UNL     1      -1.407   5.568  -1.015  0.00  0.00    +0.000 A 
ATOM     18  C   UNL     1      -0.680   6.338  -1.904  0.00  0.00    +0.000 A 
ATOM     19  C   UNL     1      -1.082   6.435  -3.223  0.00  0.00    +0.000 A 
ATOM     20  C   UNL     1      -2.207   5.758  -3.655  0.00  0.00    +0.005 A 
ENDBRANCH   2  15
BRANCH   5  21
ATOM     21  C   UNL     1      -5.168   0.762  -3.186  0.00  0.00    +0.114 C 
BRANCH  21  22
ATOM     22  C   UNL     1      -4.014  -0.198  -3.321  0.00  0.00    -0.028 A 
ATOM     23  C   UNL     1      -3.171  -0.420  -2.248  0.00  0.00    +0.005 A 
ATOM     24  C   UNL     1      -2.112  -1.300  -2.372  0.00  0.00    +0.000 A 
ATOM     25  C   UNL     1      -1.897  -1.958  -3.569  0.00  0.00    +0.000 A 
ATOM     26  C   UNL     1      -2.740  -1.736  -4.641  0.00  0.00    +0.000 A 
ATOM     27  C   UNL     1      -3.801  -0.859  -4.516  0.00  0.00    +0.005 A 
ENDBRANCH  21  22
BRANCH  21  28
ATOM     28  C   UNL     1      -6.256   0.131  -2.315  0.00  0.00    +0.179 C 
BRANCH  28  29
ATOM     29  O   UNL     1      -5.701  -0.237  -1.051  0.00  0.00    -0.393 OA
ATOM     30  H   UNL     1      -6.336  -0.644  -0.446  0.00  0.00    +0.209 HD
ENDBRANCH  28  29
ENDBRANCH  21  28
ENDBRANCH   5  21
TORSDOF 6
