REMARK  Name = ZINC41141399
REMARK  7 active torsions:
REMARK  status: ('A' for Active; 'I' for Inactive)
REMARK    1  A    between atoms: C_1  and  O_2
REMARK    2  A    between atoms: O_2  and  C_3
REMARK    3  A    between atoms: C_8  and  N_9
REMARK    4  A    between atoms: C_10  and  C_18
REMARK    5  A    between atoms: C_13  and  C_15
REMARK    6  A    between atoms: C_15  and  C_16
REMARK    7  A    between atoms: C_16  and  N_17
REMARK                            x       y       z     vdW  Elec       q    Type
REMARK                         _______ _______ _______ _____ _____    ______ ____
ROOT
ATOM      1  N   UNL     1      -0.077  -2.780  -0.012  0.00  0.00    -0.213 N 
ATOM      2  C   UNL     1       0.287  -3.828   0.956  0.00  0.00    +0.134 C 
ATOM      3  C   UNL     1       1.668  -4.303   0.461  0.00  0.00    +0.081 C 
ATOM      4  C   UNL     1       1.929  -3.446  -0.757  0.00  0.00    +0.037 C 
ATOM      5  N   UNL     1       0.948  -2.662  -0.948  0.00  0.00    -0.188 NA
ENDROOT
BRANCH   2   6
ATOM      6  C   UNL     1       0.384  -3.257   2.347  0.00  0.00    -0.025 A 
ATOM      7  C   UNL     1       0.922  -1.999   2.542  0.00  0.00    +0.007 A 
ATOM      8  C   UNL     1       1.011  -1.474   3.817  0.00  0.00    +0.020 A 
ATOM      9  C   UNL     1       0.562  -2.209   4.900  0.00  0.00    +0.041 A 
ATOM     10  C   UNL     1       0.024  -3.469   4.705  0.00  0.00    +0.020 A 
ATOM     11  C   UNL     1      -0.070  -3.990   3.428  0.00  0.00    +0.007 A 
ATOM     12 CL   UNL     1       0.674  -1.552   6.503  0.00  0.00    -0.084 Cl
ENDBRANCH   2   6
BRANCH   1  18
ATOM     13  C   UNL     1      -1.201  -0.638   0.010  0.00  0.00    +0.143 A 
ATOM     14  C   UNL     1      -2.374   0.099   0.019  0.00  0.00    +0.047 A 
ATOM     15  C   UNL     1      -3.597  -0.547   0.027  0.00  0.00    +0.004 A 
ATOM     16  C   UNL     1      -3.653  -1.929   0.026  0.00  0.00    +0.002 A 
ATOM     17  C   UNL     1      -2.488  -2.671   0.017  0.00  0.00    +0.028 A 
ATOM     18  C   UNL     1      -1.257  -2.030   0.003  0.00  0.00    +0.094 A 
BRANCH  13  20
ATOM     19  C   UNL     1      -0.017   1.425   0.010  0.00  0.00    +0.277 C 
ATOM     20  O   UNL     1       0.002  -0.004   0.002  0.00  0.00    -0.493 OA
ENDBRANCH  13  20
ENDBRANCH   1  18
BRANCH   4  21
ATOM     21  C   UNL     1       3.163  -3.518  -1.619  0.00  0.00    +0.033 C 
BRANCH  21  22
ATOM     22  C   UNL     1       3.054  -2.494  -2.751  0.00  0.00    -0.081 C 
BRANCH  22  23
ATOM     23  N   UNL     1       4.257  -2.564  -3.592  0.00  0.00    +0.378 N 
ATOM     24  H   UNL     1       4.185  -1.889  -4.338  0.00  0.00    -0.090 HD
ATOM     25  H   UNL     1       5.071  -2.360  -3.031  0.00  0.00    -0.090 HD
ATOM     26  H   UNL     1       4.341  -3.490  -3.982  0.00  0.00    -0.090 HD
ENDBRANCH  22  23
ENDBRANCH  21  22
ENDBRANCH   4  21
TORSDOF 6
