REMARK  Name = ZINC57043316
REMARK  10 active torsions:
REMARK  status: ('A' for Active; 'I' for Inactive)
REMARK    1  A    between atoms: C_1  and  C_2
REMARK    2  A    between atoms: C_2  and  C_4
REMARK    3  A    between atoms: C_2  and  C_23
REMARK    4  A    between atoms: C_4  and  N_5
REMARK    5  A    between atoms: N_8  and  N_9
REMARK    6  A    between atoms: C_10  and  C_12
REMARK    7  A    between atoms: C_12  and  C_14
REMARK    8  A    between atoms: C_12  and  O_15
REMARK    9  A    between atoms: O_15  and  C_16
REMARK   10  A    between atoms: C_23  and  N_24
REMARK                            x       y       z     vdW  Elec       q    Type
REMARK                         _______ _______ _______ _____ _____    ______ ____
ROOT
ATOM      1  N   UNL     1       2.102   0.195   1.397  0.00  0.00    -0.298 N 
ATOM      2  C   UNL     1       2.926   0.035   2.451  0.00  0.00    +0.316 C 
ATOM      3  O   UNL     1       2.500  -0.424   3.493  0.00  0.00    -0.251 OA
ATOM      4  N   UNL     1       4.224   0.386   2.350  0.00  0.00    -0.218 N 
ATOM      5  H   UNL     1       2.442   0.562   0.566  0.00  0.00    +0.150 HD
ATOM      6  H   UNL     1       4.818   0.271   3.109  0.00  0.00    +0.174 HD
ENDROOT
BRANCH   4   7
ATOM      7  N   UNL     1       4.715   0.916   1.150  0.00  0.00    -0.230 N 
ATOM      8  C   UNL     1       6.013   1.266   1.049  0.00  0.00    +0.270 C 
ATOM      9  O   UNL     1       6.755   1.122   1.997  0.00  0.00    -0.270 OA
ATOM     10  H   UNL     1       4.122   1.031   0.392  0.00  0.00    +0.173 HD
BRANCH   8  11
ATOM     11  C   UNL     1       6.542   1.836  -0.242  0.00  0.00    +0.257 C 
ATOM     12  C   UNL     1       5.873   3.184  -0.515  0.00  0.00    +0.062 C 
BRANCH  11  13
ATOM     13  O   UNL     1       7.955   2.017  -0.139  0.00  0.00    -0.480 OA
BRANCH  13  14
ATOM     14  C   UNL     1       8.664   2.017  -1.299  0.00  0.00    +0.122 A 
ATOM     15  C   UNL     1      10.049   2.070  -1.267  0.00  0.00    +0.048 A 
ATOM     16  C   UNL     1      10.768   2.070  -2.447  0.00  0.00    +0.042 A 
ATOM     17  C   UNL     1      10.105   2.017  -3.662  0.00  0.00    +0.124 A 
ATOM     18  C   UNL     1       8.722   1.964  -3.695  0.00  0.00    +0.042 A 
ATOM     19  C   UNL     1       8.001   1.958  -2.517  0.00  0.00    +0.048 A 
ATOM     20  F   UNL     1      10.809   2.017  -4.815  0.00  0.00    -0.205 F 
ENDBRANCH  13  14
ENDBRANCH  11  13
ENDBRANCH   8  11
ENDBRANCH   4   7
BRANCH   1  21
ATOM     21  C   UNL     1       0.691  -0.185   1.507  0.00  0.00    +0.107 C 
BRANCH  21  23
ATOM     22  C   UNL     1      -0.024   1.603  -0.085  0.00  0.00    +0.007 C 
ATOM     23  C   UNL     1      -0.018   0.096   0.180  0.00  0.00    -0.014 C 
BRANCH  23  24
ATOM     24  C   UNL     1      -1.458  -0.415   0.253  0.00  0.00    -0.074 C 
BRANCH  24  25
ATOM     25  N   UNL     1      -2.101  -0.254  -1.058  0.00  0.00    +0.380 N 
ATOM     26  C   UNL     1      -1.426  -1.109  -2.041  0.00  0.00    -0.079 C 
ATOM     27  C   UNL     1      -2.040  -0.885  -3.425  0.00  0.00    -0.019 C 
ATOM     28  C   UNL     1      -3.530  -1.235  -3.379  0.00  0.00    -0.004 C 
ATOM     29  C   UNL     1      -4.210  -0.390  -2.298  0.00  0.00    -0.019 C 
ATOM     30  C   UNL     1      -3.516  -0.633  -0.956  0.00  0.00    -0.079 C 
ATOM     31  H   UNL     1      -2.032   0.709  -1.349  0.00  0.00    -0.082 HD
ENDBRANCH  24  25
ENDBRANCH  23  24
ENDBRANCH  21  23
ENDBRANCH   1  21
TORSDOF 8
