REMARK  Name = ZINC54558422
REMARK  9 active torsions:
REMARK  status: ('A' for Active; 'I' for Inactive)
REMARK    1  A    between atoms: C_1  and  C_2
REMARK    2  A    between atoms: C_2  and  C_3
REMARK    3  A    between atoms: C_2  and  C_4
REMARK    4  A    between atoms: C_8  and  O_23
REMARK    5  A    between atoms: C_10  and  N_13
REMARK    6  A    between atoms: N_16  and  C_19
REMARK    7  A    between atoms: C_19  and  C_20
REMARK    8  A    between atoms: C_19  and  C_21
REMARK    9  A    between atoms: C_19  and  C_22
REMARK                            x       y       z     vdW  Elec       q    Type
REMARK                         _______ _______ _______ _____ _____    ______ ____
ROOT
ATOM      1  C   UNL     1      -0.949  -1.039   0.487  0.00  0.00    -0.007 C 
ATOM      2  C   UNL     1      -1.361  -0.174  -0.706  0.00  0.00    +0.006 C 
ATOM      3  C   UNL     1      -2.874  -0.272  -0.909  0.00  0.00    +0.033 C 
ATOM      4  C   UNL     1      -3.260  -1.728  -1.178  0.00  0.00    +0.132 C 
ATOM      5  C   UNL     1      -2.848  -2.593   0.015  0.00  0.00    +0.085 C 
ATOM      6  C   UNL     1      -1.335  -2.495   0.218  0.00  0.00    +0.025 C 
ENDROOT
BRANCH   5   7
ATOM      7  N   UNL     1      -3.535  -2.119   1.224  0.00  0.00    -0.300 NA
ATOM      8  C   UNL     1      -2.869  -2.614   2.437  0.00  0.00    +0.066 C 
ATOM      9  C   UNL     1      -3.578  -2.050   3.671  0.00  0.00    -0.062 C 
ATOM     10  N   UNL     1      -4.986  -2.469   3.660  0.00  0.00    +0.385 N 
ATOM     11  C   UNL     1      -5.645  -1.948   2.455  0.00  0.00    -0.062 C 
ATOM     12  C   UNL     1      -4.952  -2.510   1.211  0.00  0.00    +0.066 C 
ATOM     13  H   UNL     1      -5.037  -3.477   3.661  0.00  0.00    -0.081 HD
BRANCH  10  14
ATOM     14  C   UNL     1      -5.662  -1.944   4.853  0.00  0.00    -0.074 C 
ATOM     15  C   UNL     1      -5.585  -0.416   4.852  0.00  0.00    -0.010 C 
ATOM     16  C   UNL     1      -7.129  -2.380   4.842  0.00  0.00    -0.010 C 
ATOM     17  C   UNL     1      -4.978  -2.488   6.108  0.00  0.00    -0.010 C 
ENDBRANCH  10  14
ENDBRANCH   5   7
BRANCH   1  19
ATOM     18  C   UNL     1       0.950   0.514   0.958  0.00  0.00    +0.007 C 
ATOM     19  C   UNL     1       0.564  -0.942   0.689  0.00  0.00    -0.014 C 
ATOM     20  C   UNL     1       0.976  -1.806   1.883  0.00  0.00    +0.007 C 
ENDBRANCH   1  19
BRANCH   4  21
ATOM     21  O   UNL     1      -4.673  -1.819  -1.367  0.00  0.00    -0.390 OA
ATOM     22  H   UNL     1      -5.005  -1.295  -2.108  0.00  0.00    +0.210 HD
ENDBRANCH   4  21
TORSDOF 4
