REMARK  Name = ZINC19950678
REMARK  4 active torsions:
REMARK  status: ('A' for Active; 'I' for Inactive)
REMARK    1  A    between atoms: C_1  and  C_2
REMARK    2  A    between atoms: C_2  and  C_20
REMARK    3  A    between atoms: C_3  and  N_19
REMARK    4  A    between atoms: C_5  and  O_18
REMARK                            x       y       z     vdW  Elec       q    Type
REMARK                         _______ _______ _______ _____ _____    ______ ____
ROOT
ATOM      1  C   UNL     1      -2.370   0.232  -1.825  0.00  0.00    +0.054 C 
ATOM      2  C   UNL     1      -2.362  -0.079  -0.327  0.00  0.00    +0.095 C 
ATOM      3  C   UNL     1      -2.453   1.228   0.472  0.00  0.00    +0.003 C 
ATOM      4  C   UNL     1      -1.314   2.147   0.020  0.00  0.00    +0.137 C 
ATOM      5  C   UNL     1      -0.017   1.379   0.010  0.00  0.00    +0.025 A 
ATOM      6  C   UNL     1       1.175   2.086   0.002  0.00  0.00    +0.013 A 
ATOM      7  C   UNL     1       2.384   1.419  -0.018  0.00  0.00    +0.050 A 
ATOM      8  C   UNL     1       2.411   0.032  -0.030  0.00  0.00    +0.166 A 
ATOM      9  C   UNL     1       1.222  -0.681  -0.020  0.00  0.00    +0.204 A 
ATOM     10  C   UNL     1       0.002  -0.004   0.002  0.00  0.00    +0.172 A 
ATOM     11  O   UNL     1      -1.143  -0.736   0.022  0.00  0.00    -0.484 OA
ATOM     12  O   UNL     1       1.224  -2.043  -0.026  0.00  0.00    -0.482 OA
ATOM     13  C   UNL     1       2.443  -2.682  -0.421  0.00  0.00    +0.270 C 
ATOM     14  C   UNL     1       3.604  -1.996   0.311  0.00  0.00    +0.270 C 
ATOM     15  O   UNL     1       3.610  -0.612  -0.055  0.00  0.00    -0.485 OA
ATOM     16  C   UNL     1      -3.550  -0.978   0.020  0.00  0.00    +0.054 C 
ENDROOT
BRANCH   3  17
ATOM     17  N   UNL     1      -2.320   0.941   1.906  0.00  0.00    +0.384 N 
ATOM     18  H   UNL     1      -2.385   1.880   2.475  0.00  0.00    -0.089 HD
ATOM     19  H   UNL     1      -1.347   0.465   2.096  0.00  0.00    -0.089 HD
ATOM     20  H   UNL     1      -3.128   0.264   2.222  0.00  0.00    -0.089 HD
ENDBRANCH   3  17
BRANCH   4  21
ATOM     21  O   UNL     1      -1.588   2.636  -1.295  0.00  0.00    -0.389 OA
ATOM     22  H   UNL     1      -0.877   3.315  -1.788  0.00  0.00    +0.210 HD
ENDBRANCH   4  21
TORSDOF 2
