REMARK  Name = ZINC65960621
REMARK  9 active torsions:
REMARK  status: ('A' for Active; 'I' for Inactive)
REMARK    1  A    between atoms: C_2  and  C_3
REMARK    2  A    between atoms: C_3  and  N_4
REMARK    3  A    between atoms: N_4  and  C_5
REMARK    4  A    between atoms: N_4  and  C_20
REMARK    5  A    between atoms: C_5  and  C_6
REMARK    6  A    between atoms: N_8  and  C_9
REMARK    7  A    between atoms: C_9  and  C_10
REMARK    8  A    between atoms: C_13  and  S_16
REMARK    9  A    between atoms: S_16  and  N_19
REMARK                            x       y       z     vdW  Elec       q    Type
REMARK                         _______ _______ _______ _____ _____    ______ ____
ROOT
ATOM      1  C   UNL     1       0.830   3.921   1.356  0.00  0.00    +0.197 C 
ATOM      2  O   UNL     1       0.393   3.120   2.155  0.00  0.00    -0.278 OA
ATOM      3  N   UNL     1       0.782   5.240   1.630  0.00  0.00    -0.313 N 
ATOM      4  H   UNL     1       1.131   5.881   0.991  0.00  0.00    +0.149 HD
ENDROOT
BRANCH   1   5
ATOM      5  C   UNL     1       1.426   3.443   0.058  0.00  0.00    +0.020 C 
BRANCH   5   6
ATOM      6  N   UNL     1       1.360   1.976  -0.000  0.00  0.00    +0.394 N 
ATOM      7  H   UNL     1       1.808   1.587   0.816  0.00  0.00    -0.079 HD
BRANCH   6   8
ATOM      8  C   UNL     1       2.048   1.502  -1.209  0.00  0.00    -0.067 C 
ATOM      9  C   UNL     1       3.541   1.817  -1.103  0.00  0.00    -0.015 C 
ATOM     10  C   UNL     1       4.258   1.324  -2.361  0.00  0.00    -0.002 C 
ATOM     11  C   UNL     1       3.674   2.027  -3.589  0.00  0.00    -0.000 C 
ATOM     12  C   UNL     1       2.181   1.712  -3.695  0.00  0.00    -0.002 C 
ATOM     13  C   UNL     1       1.465   2.206  -2.436  0.00  0.00    -0.015 C 
ENDBRANCH   6   8
BRANCH   6  14
ATOM     14  C   UNL     1      -0.045   1.550  -0.038  0.00  0.00    +0.013 C 
BRANCH  14  16
ATOM     15  C   UNL     1      -0.171  -1.089   0.106  0.00  0.00    +0.002 C 
ATOM     16  C   UNL     1      -0.115   0.082   0.042  0.00  0.00    -0.124 C 
ENDBRANCH  14  16
ENDBRANCH   6  14
ENDBRANCH   5   6
ENDBRANCH   1   5
BRANCH   3  17
ATOM     17  C   UNL     1       0.202   5.706   2.892  0.00  0.00    +0.139 C 
BRANCH  17  18
ATOM     18  C   UNL     1       0.269   7.210   2.951  0.00  0.00    -0.030 A 
ATOM     19  C   UNL     1       1.379   7.831   3.493  0.00  0.00    +0.007 A 
ATOM     20  C   UNL     1       1.441   9.211   3.547  0.00  0.00    +0.029 A 
ATOM     21  C   UNL     1       0.393   9.970   3.060  0.00  0.00    +0.105 A 
ATOM     22  C   UNL     1      -0.716   9.348   2.517  0.00  0.00    +0.029 A 
ATOM     23  C   UNL     1      -0.776   7.969   2.459  0.00  0.00    +0.007 A 
BRANCH  21  24
ATOM     24  S   UNL     1       0.472  11.729   3.130  0.00  0.00    +0.056 S 
ATOM     25  O   UNL     1      -0.870  12.196   3.107  0.00  0.00    -0.153 OA
ATOM     26  O   UNL     1       1.374  12.053   4.179  0.00  0.00    -0.153 OA
BRANCH  24  27
ATOM     27  N   UNL     1       1.177  12.244   1.723  0.00  0.00    -0.204 NA
ATOM     28  H   UNL     1       0.943  13.109   1.352  0.00  0.00    +0.144 HD
ATOM     29  H   UNL     1       1.824  11.681   1.270  0.00  0.00    +0.144 HD
ENDBRANCH  24  27
ENDBRANCH  21  24
ENDBRANCH  17  18
ENDBRANCH   3  17
TORSDOF 9
