REMARK  Name = ZINC52094222
REMARK  5 active torsions:
REMARK  status: ('A' for Active; 'I' for Inactive)
REMARK    1  A    between atoms: C_1  and  C_2
REMARK    2  A    between atoms: C_4  and  C_8
REMARK    3  A    between atoms: C_5  and  C_7
REMARK    4  A    between atoms: C_8  and  C_10
REMARK    5  A    between atoms: C_8  and  N_23
REMARK                            x       y       z     vdW  Elec       q    Type
REMARK                         _______ _______ _______ _____ _____    ______ ____
ROOT
ATOM      1  C   UNL     1      -1.618  -3.866  -1.426  0.00  0.00    -0.042 A 
ATOM      2  C   UNL     1      -2.692  -3.417  -2.170  0.00  0.00    +0.031 A 
ATOM      3  C   UNL     1      -2.860  -3.858  -3.474  0.00  0.00    +0.067 A 
ATOM      4  C   UNL     1      -1.943  -4.753  -4.029  0.00  0.00    +0.068 A 
ATOM      5  C   UNL     1      -0.868  -5.198  -3.275  0.00  0.00    +0.043 A 
ATOM      6  C   UNL     1      -0.706  -4.749  -1.978  0.00  0.00    +0.022 A 
ATOM      7 BR   UNL     1       0.765  -5.349  -0.951  0.00  0.00    -0.050 Br
ATOM      8  N   UNL     1      -2.368  -5.008  -5.331  0.00  0.00    -0.306 N 
ATOM      9  H   UNL     1      -1.930  -5.596  -5.966  0.00  0.00    +0.170 HD
ATOM     10  C   UNL     1      -3.491  -4.301  -5.557  0.00  0.00    +0.325 A 
ATOM     11  O   UNL     1      -4.121  -4.300  -6.599  0.00  0.00    -0.247 OA
ATOM     12  N   UNL     1      -3.813  -3.597  -4.456  0.00  0.00    -0.306 N 
ATOM     13  H   UNL     1      -4.579  -3.009  -4.362  0.00  0.00    +0.170 HD
ENDROOT
BRANCH   1  14
ATOM     14  C   UNL     1      -1.435  -3.387  -0.009  0.00  0.00    -0.009 C 
BRANCH  14  18
ATOM     15  C   UNL     1       1.335   0.629  -1.474  0.00  0.00    +0.086 C 
ATOM     16  C   UNL     1       0.690  -0.453  -0.647  0.00  0.00    +0.102 A 
ATOM     17  C   UNL     1      -0.150  -1.398  -1.104  0.00  0.00    +0.047 A 
ATOM     18  C   UNL     1      -0.510  -2.198   0.004  0.00  0.00    -0.017 A 
ATOM     19  C   UNL     1       0.132  -1.693   1.074  0.00  0.00    +0.104 A 
ATOM     20  O   UNL     1       0.862  -0.640   0.672  0.00  0.00    -0.465 OA
ATOM     21  C   UNL     1       0.050  -2.223   2.482  0.00  0.00    +0.086 C 
ENDBRANCH  14  18
BRANCH  14  22
ATOM     22  N   UNL     1      -2.738  -3.000   0.549  0.00  0.00    +0.385 N 
ATOM     23  H   UNL     1      -3.135  -2.258  -0.008  0.00  0.00    -0.089 HD
ATOM     24  H   UNL     1      -3.358  -3.796   0.540  0.00  0.00    -0.089 HD
ATOM     25  H   UNL     1      -2.616  -2.679   1.498  0.00  0.00    -0.089 HD
ENDBRANCH  14  22
ENDBRANCH   1  14
TORSDOF 3
