REMARK  Name = ZINC67458693
REMARK  7 active torsions:
REMARK  status: ('A' for Active; 'I' for Inactive)
REMARK    1  A    between atoms: C_1  and  N_2
REMARK    2  A    between atoms: C_3  and  C_5
REMARK    3  A    between atoms: C_8  and  N_12
REMARK    4  A    between atoms: C_14  and  C_17
REMARK    5  A    between atoms: C_17  and  N_18
REMARK    6  A    between atoms: C_19  and  C_21
REMARK    7  A    between atoms: C_21  and  C_22
REMARK                            x       y       z     vdW  Elec       q    Type
REMARK                         _______ _______ _______ _____ _____    ______ ____
ROOT
ATOM      1  N   UNL     1       3.691  -4.160  -0.556  0.00  0.00    -0.250 N 
ATOM      2  C   UNL     1       4.763  -3.557  -1.121  0.00  0.00    +0.135 A 
ATOM      3  C   UNL     1       5.854  -4.082  -0.516  0.00  0.00    +0.100 A 
ATOM      4  N   UNL     1       5.402  -4.969   0.378  0.00  0.00    -0.133 NA
ATOM      5  N   UNL     1       4.116  -4.987   0.334  0.00  0.00    -0.065 NA
ENDROOT
BRANCH   1   8
ATOM      6  C   UNL     1       0.606  -2.171  -1.026  0.00  0.00    +0.018 C 
ATOM      7  C   UNL     1       1.738  -2.686  -0.113  0.00  0.00    +0.018 C 
ATOM      8  C   UNL     1       2.288  -3.909  -0.894  0.00  0.00    +0.091 C 
ATOM      9  C   UNL     1       2.147  -3.432  -2.361  0.00  0.00    -0.054 C 
ATOM     10  N   UNL     1       0.881  -2.662  -2.389  0.00  0.00    +0.388 N 
ATOM     11  H   UNL     1       0.126  -3.256  -2.695  0.00  0.00    -0.085 HD
ATOM     12  H   UNL     1       0.973  -1.879  -3.019  0.00  0.00    -0.085 HD
BRANCH   6  15
ATOM     13  C   UNL     1      -0.018   1.461   0.010  0.00  0.00    +0.128 C 
ATOM     14  N   UNL     1       0.002  -0.004   0.002  0.00  0.00    -0.320 N 
ATOM     15  C   UNL     1       0.585  -0.664  -1.018  0.00  0.00    +0.199 C 
ATOM     16  O   UNL     1       1.093  -0.046  -1.929  0.00  0.00    -0.278 OA
ATOM     17  H   UNL     1      -0.404  -0.499   0.731  0.00  0.00    +0.148 HD
ENDBRANCH   6  15
ENDBRANCH   1   8
BRANCH   3  18
ATOM     18  C   UNL     1       7.294  -3.737  -0.795  0.00  0.00    +0.163 C 
BRANCH  18  19
ATOM     19  N   UNL     1       7.743  -2.714   0.152  0.00  0.00    -0.309 N 
ATOM     20  C   UNL     1       9.006  -2.248   0.092  0.00  0.00    +0.218 C 
ATOM     21  O   UNL     1       9.771  -2.675  -0.746  0.00  0.00    -0.275 OA
ATOM     22  H   UNL     1       7.131  -2.372   0.823  0.00  0.00    +0.149 HD
BRANCH  20  23
ATOM     23  C   UNL     1       9.468  -1.195   1.067  0.00  0.00    +0.130 C 
BRANCH  23  24
ATOM     24  C   UNL     1      10.908  -0.850   0.788  0.00  0.00    -0.038 A 
ATOM     25  C   UNL     1      11.921  -1.552   1.414  0.00  0.00    +0.007 A 
ATOM     26  C   UNL     1      13.242  -1.237   1.159  0.00  0.00    +0.038 A 
ATOM     27  C   UNL     1      13.551  -0.217   0.275  0.00  0.00    +0.123 A 
ATOM     28  C   UNL     1      12.536   0.486  -0.351  0.00  0.00    +0.038 A 
ATOM     29  C   UNL     1      11.216   0.166  -0.099  0.00  0.00    +0.007 A 
ATOM     30  F   UNL     1      14.842   0.093   0.025  0.00  0.00    -0.205 F 
ENDBRANCH  23  24
ENDBRANCH  20  23
ENDBRANCH  18  19
ENDBRANCH   3  18
TORSDOF 6
