REMARK  Name = ZINC59366632
REMARK  9 active torsions:
REMARK  status: ('A' for Active; 'I' for Inactive)
REMARK    1  A    between atoms: C_1  and  C_2
REMARK    2  A    between atoms: C_5  and  C_26
REMARK    3  A    between atoms: N_7  and  C_23
REMARK    4  A    between atoms: N_14  and  C_16
REMARK    5  A    between atoms: N_19  and  C_20
REMARK    6  A    between atoms: C_20  and  N_21
REMARK    7  A    between atoms: N_21  and  C_22
REMARK    8  A    between atoms: C_23  and  N_24
REMARK    9  A    between atoms: N_24  and  C_25
REMARK                            x       y       z     vdW  Elec       q    Type
REMARK                         _______ _______ _______ _____ _____    ______ ____
ROOT
ATOM      1  C   UNL     1      -0.019   1.526   0.010  0.00  0.00    +0.028 C 
ATOM      2  C   UNL     1       0.002  -0.004   0.002  0.00  0.00    +0.080 C 
ATOM      3  C   UNL     1      -1.429  -0.526  -0.001  0.00  0.00    +0.068 C 
ATOM      4  C   UNL     1      -1.476  -2.006  -0.364  0.00  0.00    +0.080 C 
ATOM      5  N   UNL     1      -2.879  -2.441  -0.361  0.00  0.00    -0.299 N 
ATOM      6  C   UNL     1      -3.726  -1.944   0.557  0.00  0.00    +0.306 C 
ATOM      7  O   UNL     1      -4.885  -2.314   0.551  0.00  0.00    -0.252 OA
ATOM      8  N   UNL     1      -3.336  -1.057   1.478  0.00  0.00    -0.253 N 
ATOM      9  C   UNL     1      -2.100  -0.272   1.335  0.00  0.00    +0.178 C 
ATOM     10  N   UNL     1      -1.240  -0.688   2.452  0.00  0.00    -0.253 N 
ATOM     11  C   UNL     1      -1.911  -1.077   3.703  0.00  0.00    +0.199 C 
ATOM     12  N   UNL     1      -3.219  -0.412   3.778  0.00  0.00    -0.274 NA
ATOM     13  C   UNL     1      -4.124  -0.838   2.700  0.00  0.00    +0.199 C 
ATOM     14  C   UNL     1      -3.837  -0.614   5.095  0.00  0.00    +0.108 C 
ATOM     15  C   UNL     1       0.090  -0.743   2.334  0.00  0.00    +0.306 C 
ATOM     16  O   UNL     1       0.752  -1.041   3.310  0.00  0.00    -0.252 OA
ATOM     17  N   UNL     1       0.721  -0.483   1.181  0.00  0.00    -0.299 N 
ATOM     18  C   UNL     1      -0.875  -2.214  -1.755  0.00  0.00    +0.028 C 
ENDROOT
BRANCH  17  19
ATOM     19  C   UNL     1       2.170  -0.683   1.101  0.00  0.00    +0.030 C 
BRANCH  19  20
ATOM     20  N   UNL     1       2.857   0.558   1.481  0.00  0.00    +0.388 N 
ATOM     21  C   UNL     1       4.310   0.358   1.400  0.00  0.00    -0.098 C 
ATOM     22  H   UNL     1       2.585   1.300   0.853  0.00  0.00    -0.084 HD
ATOM     23  H   UNL     1       2.604   0.807   2.425  0.00  0.00    -0.084 HD
ENDBRANCH  19  20
ENDBRANCH  17  19
BRANCH   5  24
ATOM     24  C   UNL     1      -3.353  -3.410  -1.353  0.00  0.00    +0.030 C 
BRANCH  24  25
ATOM     25  N   UNL     1      -3.188  -4.771  -0.825  0.00  0.00    +0.388 N 
ATOM     26  C   UNL     1      -3.663  -5.742  -1.819  0.00  0.00    -0.098 C 
ATOM     27  H   UNL     1      -2.213  -4.939  -0.628  0.00  0.00    -0.084 HD
ATOM     28  H   UNL     1      -3.724  -4.869   0.024  0.00  0.00    -0.084 HD
ENDBRANCH  24  25
ENDBRANCH   5  24
TORSDOF 4
