REMARK  Name = ZINC05052079
REMARK  12 active torsions:
REMARK  status: ('A' for Active; 'I' for Inactive)
REMARK    1  A    between atoms: C_1  and  C_2
REMARK    2  A    between atoms: C_4  and  O_10
REMARK    3  A    between atoms: C_6  and  C_9
REMARK    4  A    between atoms: O_10  and  C_11
REMARK    5  A    between atoms: C_11  and  C_12
REMARK    6  A    between atoms: C_12  and  C_14
REMARK    7  A    between atoms: C_12  and  O_19
REMARK    8  A    between atoms: C_14  and  N_42
REMARK    9  A    between atoms: C_15  and  C_16
REMARK   10  A    between atoms: C_15  and  C_17
REMARK   11  A    between atoms: C_15  and  C_18
REMARK   12  A    between atoms: C_15  and  N_42
REMARK                            x       y       z     vdW  Elec       q    Type
REMARK                         _______ _______ _______ _____ _____    ______ ____
ROOT
ATOM      1  C   UNL     1      -0.753   1.593  -1.232  0.00  0.00    +0.258 C 
ENDROOT
BRANCH   1   2
ATOM      2  O   UNL     1      -2.054   1.005  -1.282  0.00  0.00    -0.489 OA
BRANCH   2   6
ATOM      3  C   UNL     1      -6.315   0.598  -3.628  0.00  0.00    +0.045 C 
ATOM      4  C   UNL     1      -4.929   1.176  -3.506  0.00  0.00    -0.028 A 
ATOM      5  C   UNL     1      -4.124   0.821  -2.442  0.00  0.00    +0.050 A 
ATOM      6  C   UNL     1      -2.848   1.353  -2.330  0.00  0.00    +0.121 A 
ATOM      7  C   UNL     1      -2.385   2.246  -3.285  0.00  0.00    +0.050 A 
ATOM      8  C   UNL     1      -3.191   2.595  -4.352  0.00  0.00    -0.028 A 
ATOM      9  C   UNL     1      -4.463   2.062  -4.461  0.00  0.00    +0.047 A 
ATOM     10 CL   UNL     1      -5.476   2.507  -5.799  0.00  0.00    -0.083 Cl
ATOM     11  C   UNL     1      -2.686   3.560  -5.393  0.00  0.00    +0.045 C 
ENDBRANCH   2   6
ENDBRANCH   1   2
BRANCH   1  12
ATOM     12  C   UNL     1      -0.013   1.086   0.008  0.00  0.00    +0.135 C 
BRANCH  12  13
ATOM     13  O   UNL     1      -0.682   1.547   1.184  0.00  0.00    -0.390 OA
ATOM     14  H   UNL     1      -0.732   2.510   1.256  0.00  0.00    +0.210 HD
ENDBRANCH  12  13
BRANCH  12  15
ATOM     15  C   UNL     1       1.423   1.615  -0.003  0.00  0.00    -0.047 C 
BRANCH  15  16
ATOM     16  N   UNL     1       2.164   1.027   1.129  0.00  0.00    +0.384 N 
ATOM     17  H   UNL     1       2.168   0.004   1.035  0.00  0.00    -0.085 HD
ATOM     18  H   UNL     1       1.702   1.288   2.008  0.00  0.00    -0.085 HD
BRANCH  16  19
ATOM     19  C   UNL     1       3.554   1.520   1.143  0.00  0.00    -0.077 C 
ATOM     20  C   UNL     1       3.557   3.044   1.288  0.00  0.00    -0.011 C 
ATOM     21  C   UNL     1       4.296   0.894   2.325  0.00  0.00    -0.011 C 
ATOM     22  C   UNL     1       4.251   1.131  -0.162  0.00  0.00    -0.011 C 
ENDBRANCH  16  19
ENDBRANCH  15  16
ENDBRANCH  12  15
ENDBRANCH   1  12
TORSDOF 7
