REMARK  Name = ZINC53860908
REMARK  7 active torsions:
REMARK  status: ('A' for Active; 'I' for Inactive)
REMARK    1  A    between atoms: C_1  and  C_2
REMARK    2  A    between atoms: C_2  and  N_3
REMARK    3  A    between atoms: N_3  and  C_4
REMARK    4  A    between atoms: C_8  and  C_21
REMARK    5  A    between atoms: C_11  and  C_13
REMARK    6  A    between atoms: C_13  and  N_14
REMARK    7  A    between atoms: C_17  and  C_20
REMARK                            x       y       z     vdW  Elec       q    Type
REMARK                         _______ _______ _______ _____ _____    ______ ____
ROOT
ATOM      1  C   UNL     1       0.733  -1.960   1.184  0.00  0.00    -0.070 C 
ATOM      2  C   UNL     1       1.555  -2.452  -0.008  0.00  0.00    -0.015 C 
ATOM      3  C   UNL     1       1.576  -3.982  -0.017  0.00  0.00    +0.002 C 
ATOM      4  C   UNL     1       2.205  -4.490   1.282  0.00  0.00    -0.014 C 
ATOM      5  C   UNL     1       1.382  -3.998   2.474  0.00  0.00    +0.003 C 
ATOM      6  C   UNL     1       1.361  -2.468   2.483  0.00  0.00    -0.042 C 
ATOM      7  C   UNL     1       3.636  -3.962   1.397  0.00  0.00    +0.007 C 
ENDROOT
BRANCH   1   8
ATOM      8  N   UNL     1       0.713  -0.491   1.192  0.00  0.00    +0.381 N 
ATOM      9  H   UNL     1       1.659  -0.141   1.185  0.00  0.00    -0.086 HD
ATOM     10  H   UNL     1       0.240  -0.165   2.022  0.00  0.00    -0.086 HD
BRANCH   8  12
ATOM     11  C   UNL     1      -0.019   1.526   0.010  0.00  0.00    -0.017 C 
ATOM     12  C   UNL     1       0.002  -0.004   0.002  0.00  0.00    -0.086 C 
ENDBRANCH   8  12
ENDBRANCH   1   8
BRANCH   6  13
ATOM     13  C   UNL     1       0.538  -1.976   3.675  0.00  0.00    -0.077 C 
BRANCH  13  14
ATOM     14  N   UNL     1       1.207  -2.362   4.925  0.00  0.00    +0.380 N 
ATOM     15  C   UNL     1       2.498  -1.671   5.021  0.00  0.00    -0.079 C 
ATOM     16  C   UNL     1       3.235  -2.131   6.281  0.00  0.00    -0.016 C 
ATOM     17  C   UNL     1       2.385  -1.803   7.511  0.00  0.00    -0.018 C 
ATOM     18  C   UNL     1       1.014  -2.469   7.365  0.00  0.00    -0.016 C 
ATOM     19  C   UNL     1       0.359  -1.996   6.065  0.00  0.00    -0.079 C 
ATOM     20  C   UNL     1       3.079  -2.331   8.768  0.00  0.00    +0.007 C 
ATOM     21  H   UNL     1       1.361  -3.360   4.928  0.00  0.00    -0.082 HD
ENDBRANCH  13  14
ENDBRANCH   6  13
TORSDOF 4
