REMARK  Name = ZINC62952169
REMARK  6 active torsions:
REMARK  status: ('A' for Active; 'I' for Inactive)
REMARK    1  A    between atoms: C_1  and  C_2
REMARK    2  A    between atoms: C_2  and  C_3
REMARK    3  A    between atoms: C_3  and  C_20
REMARK    4  A    between atoms: N_6  and  C_9
REMARK    5  A    between atoms: C_16  and  C_18
REMARK    6  A    between atoms: C_18  and  N_19
REMARK                            x       y       z     vdW  Elec       q    Type
REMARK                         _______ _______ _______ _____ _____    ______ ____
ROOT
ATOM      1  C   UNL     1      -4.846  -2.664  -1.391  0.00  0.00    -0.067 C 
ATOM      2  C   UNL     1      -5.549  -2.041  -2.567  0.00  0.00    -0.015 C 
ATOM      3  C   UNL     1      -7.044  -1.889  -2.220  0.00  0.00    -0.002 C 
ATOM      4  C   UNL     1      -7.780  -3.134  -2.381  0.00  0.00    -0.000 C 
ATOM      5  C   UNL     1      -7.268  -4.246  -1.444  0.00  0.00    +0.000 C 
ATOM      6  C   UNL     1      -6.027  -4.846  -2.048  0.00  0.00    -0.000 C 
ATOM      7  C   UNL     1      -4.737  -4.196  -1.516  0.00  0.00    -0.042 C 
ENDROOT
BRANCH   1  11
ATOM      8  C   UNL     1      -1.367  -0.707   0.100  0.00  0.00    -0.036 C 
ATOM      9  C   UNL     1      -2.185  -0.045  -1.013  0.00  0.00    -0.012 C 
ATOM     10  C   UNL     1      -3.588  -0.654  -1.039  0.00  0.00    -0.078 C 
ATOM     11  N   UNL     1      -3.495  -2.098  -1.290  0.00  0.00    +0.382 N 
ATOM     12  C   UNL     1      -2.774  -2.749  -0.190  0.00  0.00    -0.078 C 
ATOM     13  C   UNL     1      -1.339  -2.220  -0.131  0.00  0.00    -0.012 C 
ATOM     14  C   UNL     1      -2.011  -0.409   1.456  0.00  0.00    +0.011 C 
ATOM     15  H   UNL     1      -3.000  -2.256  -2.155  0.00  0.00    -0.081 HD
BRANCH   8  17
ATOM     16  C   UNL     1       0.031   1.353   0.312  0.00  0.00    +0.004 C 
ATOM     17  C   UNL     1       0.061  -0.160   0.080  0.00  0.00    +0.003 C 
ENDBRANCH   8  17
ENDBRANCH   1  11
BRANCH   7  18
ATOM     18  C   UNL     1      -3.585  -4.532  -2.465  0.00  0.00    -0.085 C 
BRANCH  18  19
ATOM     19  N   UNL     1      -3.390  -5.988  -2.502  0.00  0.00    +0.378 N 
ATOM     20  H   UNL     1      -2.631  -6.210  -3.128  0.00  0.00    -0.090 HD
ATOM     21  H   UNL     1      -3.171  -6.321  -1.576  0.00  0.00    -0.090 HD
ATOM     22  H   UNL     1      -4.236  -6.432  -2.828  0.00  0.00    -0.090 HD
ENDBRANCH  18  19
ENDBRANCH   7  18
TORSDOF 4
