REMARK  Name = ZINC03830336
REMARK  9 active torsions:
REMARK  status: ('A' for Active; 'I' for Inactive)
REMARK    1  A    between atoms: C_1  and  C_2
REMARK    2  A    between atoms: C_2  and  C_3
REMARK    3  A    between atoms: C_3  and  C_4
REMARK    4  A    between atoms: C_22  and  C_37
REMARK    5  A    between atoms: C_25  and  O_36
REMARK    6  A    between atoms: C_28  and  C_35
REMARK    7  A    between atoms: C_29  and  C_31
REMARK    8  A    between atoms: C_31  and  C_33
REMARK    9  A    between atoms: C_33  and  O_34
REMARK                            x       y       z     vdW  Elec       q    Type
REMARK                         _______ _______ _______ _____ _____    ______ ____
ROOT
ATOM      1  C   UNL     1       0.637  -1.930  -2.698  0.00  0.00    +0.252 C 
ATOM      2  O   UNL     1       0.988  -2.102  -1.296  0.00  0.00    -0.345 OA
ATOM      3  C   UNL     1       2.213  -2.778  -1.323  0.00  0.00    +0.161 C 
ATOM      4  C   UNL     1       2.680  -3.819  -0.331  0.00  0.00    +0.039 C 
ATOM      5  C   UNL     1       3.697  -4.644  -1.188  0.00  0.00    +0.004 C 
ATOM      6  C   UNL     1       5.101  -4.236  -0.808  0.00  0.00    -0.000 C 
ATOM      7  C   UNL     1       5.138  -2.777  -0.359  0.00  0.00    +0.008 C 
ATOM      8  C   UNL     1       6.546  -2.406   0.134  0.00  0.00    +0.032 C 
ATOM      9  C   UNL     1       7.502  -2.733  -0.999  0.00  0.00    -0.056 C 
ATOM     10  C   UNL     1       8.296  -1.807  -1.508  0.00  0.00    +0.051 C 
ATOM     11  C   UNL     1       9.137  -2.133  -2.675  0.00  0.00    +0.179 C 
ATOM     12  O   UNL     1       9.656  -1.251  -3.335  0.00  0.00    -0.288 OA
ATOM     13  C   UNL     1       9.333  -3.552  -3.024  0.00  0.00    +0.047 C 
ATOM     14  C   UNL     1       8.547  -4.472  -2.473  0.00  0.00    -0.012 C 
ATOM     15  C   UNL     1       7.479  -4.150  -1.499  0.00  0.00    +0.013 C 
ATOM     16  C   UNL     1       6.065  -4.462  -1.979  0.00  0.00    +0.035 C 
ATOM     17  C   UNL     1       5.653  -3.486  -3.084  0.00  0.00    +0.120 C 
ATOM     18  C   UNL     1       4.276  -3.829  -3.602  0.00  0.00    +0.042 C 
ATOM     19  C   UNL     1       3.316  -4.420  -2.645  0.00  0.00    +0.012 C 
ATOM     20  C   UNL     1       1.991  -3.697  -2.588  0.00  0.00    +0.164 C 
ATOM     21  O   UNL     1       1.587  -2.700  -3.497  0.00  0.00    -0.334 OA
ATOM     22  C   UNL     1       2.971  -5.801  -3.208  0.00  0.00    +0.015 C 
ATOM     23  C   UNL     1       7.720  -5.040  -0.279  0.00  0.00    +0.020 C 
ENDROOT
BRANCH  20  24
ATOM     24  C   UNL     1       0.862  -4.663  -2.337  0.00  0.00    +0.193 C 
ATOM     25  O   UNL     1       0.651  -5.069  -1.220  0.00  0.00    -0.292 OA
BRANCH  24  26
ATOM     26  C   UNL     1      -0.003  -5.124  -3.482  0.00  0.00    +0.233 C 
BRANCH  26  27
ATOM     27  O   UNL     1      -0.916  -6.121  -3.018  0.00  0.00    -0.387 OA
ATOM     28  H   UNL     1      -1.505  -6.464  -3.703  0.00  0.00    +0.210 HD
ENDBRANCH  26  27
ENDBRANCH  24  26
ENDBRANCH  20  24
BRANCH  17  29
ATOM     29  O   UNL     1       5.641  -2.157  -2.561  0.00  0.00    -0.391 OA
ATOM     30  H   UNL     1       5.389  -1.482  -3.207  0.00  0.00    +0.210 HD
ENDBRANCH  17  29
BRANCH   1  31
ATOM     31  C   UNL     1       0.724  -0.450  -3.076  0.00  0.00    +0.061 C 
BRANCH  31  33
ATOM     32  C   UNL     1      -0.270   1.812  -2.704  0.00  0.00    +0.004 C 
ATOM     33  C   UNL     1      -0.357   0.332  -2.326  0.00  0.00    +0.002 C 
ENDBRANCH  31  33
ENDBRANCH   1  31
TORSDOF 6
