REMARK  Name = ZINC56781358
REMARK  10 active torsions:
REMARK  status: ('A' for Active; 'I' for Inactive)
REMARK    1  A    between atoms: C_1  and  N_2
REMARK    2  A    between atoms: N_2  and  C_3
REMARK    3  A    between atoms: N_2  and  C_4
REMARK    4  A    between atoms: C_4  and  C_5
REMARK    5  A    between atoms: C_5  and  C_6
REMARK    6  A    between atoms: N_14  and  C_15
REMARK    7  A    between atoms: C_15  and  C_16
REMARK    8  A    between atoms: C_16  and  C_17
REMARK    9  A    between atoms: C_20  and  S_23
REMARK   10  A    between atoms: S_23  and  N_26
REMARK                            x       y       z     vdW  Elec       q    Type
REMARK                         _______ _______ _______ _____ _____    ______ ____
ROOT
ATOM      1  C   UNL     1      -3.512  -0.635  -1.276  0.00  0.00    -0.010 C 
ATOM      2  C   UNL     1      -4.301   0.051  -0.158  0.00  0.00    +0.022 C 
ATOM      3  C   UNL     1      -5.727  -0.509  -0.127  0.00  0.00    +0.109 C 
ATOM      4  N   UNL     1      -6.321  -0.362  -1.463  0.00  0.00    -0.286 N 
ATOM      5  C   UNL     1      -5.599  -0.906  -2.621  0.00  0.00    +0.109 C 
ATOM      6  C   UNL     1      -4.175  -0.342  -2.624  0.00  0.00    +0.022 C 
ATOM      7  C   UNL     1      -7.506   0.260  -1.623  0.00  0.00    +0.302 C 
ATOM      8  O   UNL     1      -8.138   0.625  -0.650  0.00  0.00    -0.253 OA
ATOM      9  N   UNL     1      -7.991   0.478  -2.861  0.00  0.00    -0.299 N 
ATOM     10  H   UNL     1      -7.525   0.123  -3.634  0.00  0.00    +0.150 HD
ENDROOT
BRANCH   1  11
ATOM     11  C   UNL     1      -2.078  -0.104  -1.286  0.00  0.00    -0.015 C 
BRANCH  11  12
ATOM     12  C   UNL     1      -1.375  -0.506   0.012  0.00  0.00    -0.079 C 
BRANCH  12  14
ATOM     13  C   UNL     1      -0.019   1.473   0.009  0.00  0.00    -0.097 C 
ATOM     14  N   UNL     1       0.003   0.004   0.001  0.00  0.00    +0.376 N 
ATOM     15  C   UNL     1       0.714  -0.481   1.192  0.00  0.00    -0.097 C 
ATOM     16  H   UNL     1       0.475  -0.321  -0.829  0.00  0.00    -0.083 HD
ENDBRANCH  12  14
ENDBRANCH  11  12
ENDBRANCH   1  11
BRANCH   9  17
ATOM     17  C   UNL     1      -9.223   1.251  -3.040  0.00  0.00    +0.110 C 
BRANCH  17  18
ATOM     18  C   UNL     1      -9.551   1.350  -4.531  0.00  0.00    +0.054 C 
BRANCH  18  19
ATOM     19  C   UNL     1     -10.818   2.145  -4.715  0.00  0.00    -0.046 A 
ATOM     20  C   UNL     1     -12.042   1.503  -4.719  0.00  0.00    +0.005 A 
ATOM     21  C   UNL     1     -13.204   2.232  -4.888  0.00  0.00    +0.029 A 
ATOM     22  C   UNL     1     -13.142   3.604  -5.052  0.00  0.00    +0.105 A 
ATOM     23  C   UNL     1     -11.918   4.246  -5.047  0.00  0.00    +0.029 A 
ATOM     24  C   UNL     1     -10.756   3.517  -4.874  0.00  0.00    +0.005 A 
BRANCH  22  25
ATOM     25  S   UNL     1     -14.623   4.533  -5.268  0.00  0.00    +0.056 S 
ATOM     26  O   UNL     1     -14.258   5.728  -5.946  0.00  0.00    -0.153 OA
ATOM     27  O   UNL     1     -15.596   3.633  -5.781  0.00  0.00    -0.153 OA
BRANCH  25  28
ATOM     28  N   UNL     1     -15.143   4.984  -3.762  0.00  0.00    -0.204 NA
ATOM     29  H   UNL     1     -14.637   4.723  -2.976  0.00  0.00    +0.144 HD
ATOM     30  H   UNL     1     -15.953   5.509  -3.665  0.00  0.00    +0.144 HD
ENDBRANCH  25  28
ENDBRANCH  22  25
ENDBRANCH  18  19
ENDBRANCH  17  18
ENDBRANCH   9  17
TORSDOF 8
