REMARK  Name = ZINC07409932
REMARK  5 active torsions:
REMARK  status: ('A' for Active; 'I' for Inactive)
REMARK    1  A    between atoms: C_1  and  C_2
REMARK    2  A    between atoms: C_9  and  N_14
REMARK    3  A    between atoms: C_10  and  C_11
REMARK    4  A    between atoms: N_14  and  S_15
REMARK    5  A    between atoms: S_15  and  C_18
REMARK                            x       y       z     vdW  Elec       q    Type
REMARK                         _______ _______ _______ _____ _____    ______ ____
ROOT
ATOM      1  C   UNL     1      -0.019   1.526   0.010  0.00  0.00    +0.008 C 
ATOM      2  C   UNL     1       0.002  -0.004   0.002  0.00  0.00    -0.009 C 
ATOM      3  C   UNL     1       0.742  -0.514   1.242  0.00  0.00    +0.008 C 
ATOM      4  C   UNL     1       0.984  -2.020   1.120  0.00  0.00    +0.037 C 
ATOM      5  C   UNL     1      -0.341  -2.705   0.810  0.00  0.00    -0.023 A 
ATOM      6  C   UNL     1      -1.390  -2.006   0.327  0.00  0.00    -0.004 A 
ATOM      7  S   UNL     1      -2.679  -3.202   0.126  0.00  0.00    -0.076 S 
ATOM      8  C   UNL     1      -1.839  -4.615   0.674  0.00  0.00    +0.098 A 
ATOM      9  C   UNL     1      -0.580  -4.127   1.000  0.00  0.00    +0.069 A 
ATOM     10  C   UNL     1      -1.437  -0.538   0.031  0.00  0.00    +0.046 C 
ENDROOT
BRANCH   9  11
ATOM     11  C   UNL     1       0.467  -5.011   1.516  0.00  0.00    +0.244 C 
ATOM     12  O   UNL     1       0.575  -5.192   2.715  0.00  0.00    -0.270 OA
ATOM     13  N   UNL     1       1.311  -5.625   0.663  0.00  0.00    -0.325 N 
ATOM     14  H   UNL     1       1.225  -5.481  -0.292  0.00  0.00    +0.145 HD
ATOM     15  H   UNL     1       2.005  -6.211   1.005  0.00  0.00    +0.145 HD
ENDBRANCH   9  11
BRANCH   8  16
ATOM     16  N   UNL     1      -2.308  -5.912   0.764  0.00  0.00    -0.209 N 
ATOM     17  H   UNL     1      -1.726  -6.616   1.091  0.00  0.00    +0.174 HD
BRANCH  16  18
ATOM     18  S   UNL     1      -3.862  -6.264   0.314  0.00  0.00    +0.073 S 
ATOM     19  O   UNL     1      -4.030  -7.663   0.495  0.00  0.00    -0.150 OA
ATOM     20  O   UNL     1      -4.697  -5.308   0.954  0.00  0.00    -0.150 OA
BRANCH  18  21
ATOM     21  C   UNL     1      -3.984  -5.961  -1.417  0.00  0.00    +0.111 A 
ATOM     22  C   UNL     1      -3.712  -6.976  -2.317  0.00  0.00    +0.029 A 
ATOM     23  C   UNL     1      -3.807  -6.740  -3.675  0.00  0.00    +0.005 A 
ATOM     24  C   UNL     1      -4.175  -5.490  -4.136  0.00  0.00    +0.038 A 
ATOM     25  C   UNL     1      -4.448  -4.474  -3.236  0.00  0.00    +0.125 A 
ATOM     26  C   UNL     1      -4.358  -4.713  -1.875  0.00  0.00    +0.067 A 
ATOM     27  F   UNL     1      -4.808  -3.251  -3.686  0.00  0.00    -0.205 F 
ENDBRANCH  18  21
ENDBRANCH  16  18
ENDBRANCH   8  16
TORSDOF 4
