REMARK  Name = ZINC39964859
REMARK  9 active torsions:
REMARK  status: ('A' for Active; 'I' for Inactive)
REMARK    1  A    between atoms: C_1  and  C_2
REMARK    2  A    between atoms: C_7  and  C_12
REMARK    3  A    between atoms: C_12  and  C_27
REMARK    4  A    between atoms: C_13  and  C_14
REMARK    5  A    between atoms: C_17  and  O_22
REMARK    6  A    between atoms: C_18  and  O_20
REMARK    7  A    between atoms: O_20  and  C_21
REMARK    8  A    between atoms: O_22  and  C_23
REMARK    9  A    between atoms: C_23  and  C_24
REMARK                            x       y       z     vdW  Elec       q    Type
REMARK                         _______ _______ _______ _____ _____    ______ ____
ROOT
ATOM      1  C   UNL     1       1.312  -5.058   1.982  0.00  0.00    +0.072 C 
ATOM      2  C   UNL     1       1.217  -6.213   2.672  0.00  0.00    +0.026 C 
ENDROOT
BRANCH   1   9
ATOM      3  C   UNL     1       0.140   1.241  -0.812  0.00  0.00    +0.044 C 
ATOM      4  C   UNL     1       0.045  -0.242  -0.561  0.00  0.00    -0.048 A 
ATOM      5  C   UNL     1      -0.234  -1.093  -1.645  0.00  0.00    +0.005 A 
ATOM      6  C   UNL     1      -0.337  -2.431  -1.511  0.00  0.00    +0.027 A 
ATOM      7  C   UNL     1      -0.153  -3.043  -0.188  0.00  0.00    +0.060 A 
ATOM      8  N   UNL     1      -0.194  -4.275   0.231  0.00  0.00    -0.359 N 
ATOM      9  C   UNL     1       0.072  -4.259   1.675  0.00  0.00    +0.216 C 
ATOM     10  N   UNL     1       0.273  -2.852   2.043  0.00  0.00    -0.359 N 
ATOM     11  C   UNL     1       0.143  -2.142   0.959  0.00  0.00    +0.061 A 
ATOM     12  C   UNL     1       0.237  -0.700   0.692  0.00  0.00    +0.030 A 
ATOM     13  H   UNL     1      -0.368  -5.060  -0.312  0.00  0.00    +0.162 HD
ATOM     14  H   UNL     1       0.468  -2.513   2.930  0.00  0.00    +0.162 HD
ENDBRANCH   1   9
BRANCH   2  15
ATOM     15  C   UNL     1      -0.105  -6.781   2.976  0.00  0.00    -0.020 A 
ATOM     16  C   UNL     1      -1.139  -6.693   2.037  0.00  0.00    +0.012 A 
ATOM     17  C   UNL     1      -2.377  -7.227   2.324  0.00  0.00    +0.050 A 
ATOM     18  C   UNL     1      -2.601  -7.852   3.543  0.00  0.00    +0.163 A 
ATOM     19  C   UNL     1      -1.576  -7.944   4.483  0.00  0.00    +0.162 A 
ATOM     20  C   UNL     1      -0.331  -7.417   4.202  0.00  0.00    +0.057 A 
BRANCH  19  21
ATOM     21  O   UNL     1      -1.801  -8.557   5.676  0.00  0.00    -0.491 OA
ATOM     22  C   UNL     1      -0.706  -8.615   6.592  0.00  0.00    +0.277 C 
ENDBRANCH  19  21
BRANCH  18  23
ATOM     23  O   UNL     1      -3.824  -8.376   3.820  0.00  0.00    -0.479 OA
BRANCH  23  24
ATOM     24  C   UNL     1      -4.829  -8.246   2.812  0.00  0.00    +0.324 C 
BRANCH  24  25
ATOM     25  C   UNL     1      -6.108  -8.881   3.294  0.00  0.00    +0.248 C 
ATOM     26  O   UNL     1      -6.154  -9.394   4.392  0.00  0.00    -0.272 OA
ATOM     27  N   UNL     1      -7.200  -8.879   2.505  0.00  0.00    -0.327 N 
ATOM     28  H   UNL     1      -7.163  -8.469   1.626  0.00  0.00    +0.145 HD
ATOM     29  H   UNL     1      -8.024  -9.287   2.815  0.00  0.00    +0.145 HD
ENDBRANCH  24  25
ENDBRANCH  23  24
ENDBRANCH  18  23
ENDBRANCH   2  15
BRANCH   1  30
ATOM     30  C   UNL     1       2.592  -4.591   1.540  0.00  0.00    +0.099 C 
ATOM     31  N   UNL     1       3.607  -4.221   1.190  0.00  0.00    -0.191 NA
ENDBRANCH   1  30
TORSDOF 7
