REMARK  Name = ZINC50576533
REMARK  7 active torsions:
REMARK  status: ('A' for Active; 'I' for Inactive)
REMARK    1  A    between atoms: C_4  and  C_6
REMARK    2  A    between atoms: C_6  and  N_7
REMARK    3  A    between atoms: N_10  and  C_11
REMARK    4  A    between atoms: C_11  and  C_12
REMARK    5  A    between atoms: N_14  and  C_15
REMARK    6  A    between atoms: C_15  and  C_16
REMARK    7  A    between atoms: C_16  and  N_21
REMARK                            x       y       z     vdW  Elec       q    Type
REMARK                         _______ _______ _______ _____ _____    ______ ____
ROOT
ATOM      1  C   UNL     1      -0.108  -7.428   0.062  0.00  0.00    +0.230 C 
ATOM      2  O   UNL     1      -0.548  -7.077  -1.012  0.00  0.00    -0.274 OA
ATOM      3  N   UNL     1      -0.172  -8.724   0.426  0.00  0.00    -0.315 N 
ATOM      4  H   UNL     1       0.180  -9.004   1.285  0.00  0.00    +0.149 HD
ENDROOT
BRANCH   1   5
ATOM      5  C   UNL     1       0.511  -6.414   0.990  0.00  0.00    +0.201 C 
BRANCH   5   9
ATOM      6  N   UNL     1       0.914  -2.800   0.448  0.00  0.00    -0.299 N 
ATOM      7  C   UNL     1       0.961  -4.020   1.020  0.00  0.00    +0.300 C 
ATOM      8  O   UNL     1       1.453  -4.156   2.123  0.00  0.00    -0.253 OA
ATOM      9  N   UNL     1       0.461  -5.088   0.368  0.00  0.00    -0.291 N 
ATOM     10  H   UNL     1       0.521  -2.691  -0.432  0.00  0.00    +0.150 HD
ATOM     11  H   UNL     1       0.068  -4.980  -0.512  0.00  0.00    +0.151 HD
BRANCH   6  12
ATOM     12  C   UNL     1       1.457  -1.638   1.156  0.00  0.00    +0.109 C 
BRANCH  12  16
ATOM     13  C   UNL     1      -0.261   1.543   0.241  0.00  0.00    +0.000 C 
ATOM     14  C   UNL     1       1.198   2.032   0.341  0.00  0.00    +0.000 C 
ATOM     15  C   UNL     1       1.958   0.834   0.964  0.00  0.00    +0.005 C 
ATOM     16  C   UNL     1       1.280  -0.387   0.293  0.00  0.00    +0.006 C 
ATOM     17  C   UNL     1      -0.210   0.006   0.211  0.00  0.00    +0.005 C 
ENDBRANCH  12  16
ENDBRANCH   6  12
ENDBRANCH   5   9
ENDBRANCH   1   5
BRANCH   3  18
ATOM     18  C   UNL     1      -0.775  -9.709  -0.476  0.00  0.00    +0.092 C 
BRANCH  18  19
ATOM     19  C   UNL     1      -0.612 -11.110   0.118  0.00  0.00    -0.050 C 
ATOM     20  C   UNL     1       0.885 -11.453   0.260  0.00  0.00    -0.010 C 
ATOM     21  C   UNL     1       0.964 -12.961  -0.085  0.00  0.00    -0.001 C 
ATOM     22  C   UNL     1      -0.062 -13.102  -1.236  0.00  0.00    -0.001 C 
ATOM     23  C   UNL     1      -1.214 -12.158  -0.834  0.00  0.00    -0.010 C 
BRANCH  19  24
ATOM     24  N   UNL     1      -1.273 -11.181   1.428  0.00  0.00    +0.386 N 
ATOM     25  C   UNL     1      -0.955 -12.464   2.057  0.00  0.00    -0.067 C 
ATOM     26  C   UNL     1      -1.309 -12.416   3.548  0.00  0.00    +0.050 C 
ATOM     27  S   UNL     1      -3.102 -12.140   3.699  0.00  0.00    -0.164 S 
ATOM     28  C   UNL     1      -3.381 -10.720   2.595  0.00  0.00    +0.050 C 
ATOM     29  C   UNL     1      -2.717 -11.022   1.246  0.00  0.00    -0.067 C 
ATOM     30  H   UNL     1      -0.929 -10.433   2.012  0.00  0.00    -0.081 HD
ENDBRANCH  19  24
ENDBRANCH  18  19
ENDBRANCH   3  18
TORSDOF 7
