REMARK  Name = ZINC40694305
REMARK  3 active torsions:
REMARK  status: ('A' for Active; 'I' for Inactive)
REMARK    1  A    between atoms: N_4  and  C_7
REMARK    2  A    between atoms: N_10  and  C_13
REMARK    3  A    between atoms: C_20  and  O_22
REMARK                            x       y       z     vdW  Elec       q    Type
REMARK                         _______ _______ _______ _____ _____    ______ ____
ROOT
ATOM      1  C   UNL     1       2.957  -0.564   2.231  0.00  0.00    -0.066 C 
ATOM      2  C   UNL     1       4.388  -0.022   2.161  0.00  0.00    +0.000 C 
ATOM      3  C   UNL     1       5.219  -0.645   3.285  0.00  0.00    +0.083 C 
ATOM      4  N   UNL     1       5.222  -2.106   3.141  0.00  0.00    -0.295 NA
ATOM      5  C   UNL     1       3.864  -2.654   3.252  0.00  0.00    +0.083 C 
ATOM      6  C   UNL     1       2.992  -2.091   2.127  0.00  0.00    +0.000 C 
ENDROOT
BRANCH   1  10
ATOM      7  C   UNL     1      -0.045   1.488   0.010  0.00  0.00    -0.004 C 
ATOM      8  C   UNL     1       1.386   2.032   0.022  0.00  0.00    -0.019 C 
ATOM      9  C   UNL     1       2.137   1.450   1.222  0.00  0.00    -0.078 C 
ATOM     10  N   UNL     1       2.169  -0.014   1.120  0.00  0.00    +0.382 N 
ATOM     11  C   UNL     1       0.803  -0.548   1.180  0.00  0.00    -0.078 C 
ATOM     12  C   UNL     1       0.001  -0.042  -0.021  0.00  0.00    -0.019 C 
ATOM     13  H   UNL     1       2.595  -0.280   0.245  0.00  0.00    -0.081 HD
ENDBRANCH   1  10
BRANCH   4  14
ATOM     14  C   UNL     1       6.123  -2.730   4.120  0.00  0.00    +0.108 C 
ATOM     15  C   UNL     1       5.752  -2.216   5.529  0.00  0.00    +0.187 C 
ATOM     16  S   UNL     1       7.417  -2.091   6.316  0.00  0.00    -0.027 S 
ATOM     17  O   UNL     1       7.813  -3.372   6.785  0.00  0.00    -0.174 OA
ATOM     18  O   UNL     1       7.437  -0.979   7.201  0.00  0.00    -0.174 OA
ATOM     19  C   UNL     1       8.370  -1.677   4.790  0.00  0.00    +0.198 C 
ATOM     20  C   UNL     1       7.559  -2.431   3.717  0.00  0.00    +0.154 C 
BRANCH  20  21
ATOM     21  O   UNL     1       7.544  -1.645   2.523  0.00  0.00    -0.389 OA
ATOM     22  H   UNL     1       8.423  -1.409   2.196  0.00  0.00    +0.210 HD
ENDBRANCH  20  21
ENDBRANCH   4  14
TORSDOF 3
