REMARK  Name = ZINC39389104
REMARK  5 active torsions:
REMARK  status: ('A' for Active; 'I' for Inactive)
REMARK    1  A    between atoms: N_15  and  N_16
REMARK    2  A    between atoms: C_17  and  C_18
REMARK    3  A    between atoms: C_21  and  O_24
REMARK    4  A    between atoms: O_24  and  C_25
REMARK    5  A    between atoms: C_25  and  C_26
REMARK                            x       y       z     vdW  Elec       q    Type
REMARK                         _______ _______ _______ _____ _____    ______ ____
ROOT
ATOM      1  C   UNL     1      -0.016   1.352   0.009  0.00  0.00    +0.001 A 
ATOM      2  C   UNL     1       1.164   2.103   0.002  0.00  0.00    +0.002 A 
ATOM      3  C   UNL     1       2.383   1.514  -0.019  0.00  0.00    +0.026 A 
ATOM      4  C   UNL     1       2.486   0.098  -0.034  0.00  0.00    +0.046 A 
ATOM      5  N   UNL     1       3.535  -0.702  -0.015  0.00  0.00    -0.361 N 
ATOM      6  C   UNL     1       3.081  -2.067  -0.196  0.00  0.00    +0.220 C 
ATOM      7  C   UNL     1       1.573  -2.032  -0.012  0.00  0.00    +0.113 C 
ATOM      8  C   UNL     1       1.235  -0.692  -0.014  0.00  0.00    +0.025 A 
ATOM      9  C   UNL     1       0.002  -0.004   0.002  0.00  0.00    +0.012 A 
ATOM     10  N   UNL     1       0.866  -3.121   0.260  0.00  0.00    -0.147 NA
ATOM     11  N   UNL     1       1.498  -4.188   0.624  0.00  0.00    -0.113 NA
ATOM     12  C   UNL     1       2.809  -4.206   0.886  0.00  0.00    +0.231 C 
ATOM     13  N   UNL     1       3.576  -3.037   0.785  0.00  0.00    -0.288 N 
ATOM     14  N   UNL     1       3.391  -5.342   1.241  0.00  0.00    -0.247 N 
ATOM     15  H   UNL     1       4.457  -0.424   0.102  0.00  0.00    +0.162 HD
ATOM     16  H   UNL     1       4.368  -2.881   1.323  0.00  0.00    +0.151 HD
ATOM     17  H   UNL     1       2.866  -6.155   1.311  0.00  0.00    +0.192 HD
ENDROOT
BRANCH  14  18
ATOM     18  N   UNL     1       4.655  -5.367   1.495  0.00  0.00    -0.179 NA
ATOM     19  C   UNL     1       5.233  -6.495   1.848  0.00  0.00    +0.140 C 
BRANCH  19  20
ATOM     20  C   UNL     1       6.669  -6.523   2.136  0.00  0.00    -0.005 A 
ATOM     21  C   UNL     1       7.429  -5.348   2.042  0.00  0.00    +0.013 A 
ATOM     22  C   UNL     1       8.768  -5.381   2.313  0.00  0.00    +0.046 A 
ATOM     23  C   UNL     1       9.377  -6.576   2.681  0.00  0.00    +0.121 A 
ATOM     24  C   UNL     1       8.628  -7.745   2.776  0.00  0.00    +0.046 A 
ATOM     25  C   UNL     1       7.288  -7.724   2.514  0.00  0.00    +0.013 A 
BRANCH  23  26
ATOM     26  O   UNL     1      10.707  -6.603   2.948  0.00  0.00    -0.483 OA
BRANCH  26  27
ATOM     27  C   UNL     1      11.269  -7.862   3.321  0.00  0.00    +0.324 C 
BRANCH  27  28
ATOM     28  C   UNL     1      12.745  -7.698   3.577  0.00  0.00    +0.248 C 
ATOM     29  O   UNL     1      13.265  -6.609   3.452  0.00  0.00    -0.272 OA
ATOM     30  N   UNL     1      13.488  -8.761   3.944  0.00  0.00    -0.327 N 
ATOM     31  H   UNL     1      13.073  -9.632   4.043  0.00  0.00    +0.145 HD
ATOM     32  H   UNL     1      14.438  -8.655   4.108  0.00  0.00    +0.145 HD
ENDBRANCH  27  28
ENDBRANCH  26  27
ENDBRANCH  23  26
ENDBRANCH  19  20
ENDBRANCH  14  18
TORSDOF 5
