REMARK  Name = ZINC64380680
REMARK  6 active torsions:
REMARK  status: ('A' for Active; 'I' for Inactive)
REMARK    1  A    between atoms: C_1  and  C_2
REMARK    2  A    between atoms: C_5  and  N_9
REMARK    3  A    between atoms: C_6  and  C_8
REMARK    4  A    between atoms: C_10  and  O_35
REMARK    5  A    between atoms: C_13  and  O_34
REMARK    6  A    between atoms: C_15  and  C_19
REMARK                            x       y       z     vdW  Elec       q    Type
REMARK                         _______ _______ _______ _____ _____    ______ ____
ROOT
ATOM      1  N   UNL     1       0.207  -4.085  -0.143  0.00  0.00    -0.231 N 
ATOM      2  C   UNL     1      -1.111  -4.703  -0.056  0.00  0.00    +0.287 C 
ATOM      3  N   UNL     1      -1.040  -6.126  -0.406  0.00  0.00    -0.250 NA
ATOM      4  C   UNL     1       0.001  -6.799   0.388  0.00  0.00    +0.199 C 
ATOM      5  C   UNL     1       1.369  -6.287  -0.073  0.00  0.00    +0.138 C 
ATOM      6  C   UNL     1       1.347  -4.785  -0.140  0.00  0.00    +0.231 C 
ATOM      7  O   UNL     1       2.400  -4.187  -0.189  0.00  0.00    -0.275 OA
ATOM      8  H   UNL     1      -1.935  -6.574  -0.283  0.00  0.00    +0.128 HD
ENDROOT
BRANCH   5   9
ATOM      9  C   UNL     1       2.443  -6.742   0.916  0.00  0.00    +0.096 C 
ATOM     10  C   UNL     1       2.556  -8.268   0.892  0.00  0.00    +0.124 C 
ATOM     11  C   UNL     1       3.514  -8.643   2.016  0.00  0.00    -0.036 C 
ATOM     12  C   UNL     1       4.463  -9.389   1.468  0.00  0.00    -0.001 A 
ATOM     13  C   UNL     1       5.606 -10.109   2.051  0.00  0.00    +0.010 A 
ATOM     14  C   UNL     1       6.403 -10.777   1.177  0.00  0.00    +0.001 A 
ATOM     15  C   UNL     1       6.182 -10.801  -0.203  0.00  0.00    +0.002 A 
ATOM     16  C   UNL     1       5.153 -10.172  -0.826  0.00  0.00    +0.026 A 
ATOM     17  C   UNL     1       4.241  -9.440  -0.010  0.00  0.00    +0.043 A 
ATOM     18  N   UNL     1       3.156  -8.768  -0.344  0.00  0.00    -0.376 N 
ATOM     19  C   UNL     1       3.341  -8.106   3.416  0.00  0.00    +0.048 C 
ATOM     20  C   UNL     1       3.117  -6.590   3.270  0.00  0.00    +0.085 C 
ATOM     21  N   UNL     1       2.071  -6.326   2.278  0.00  0.00    -0.310 NA
ATOM     22  H   UNL     1       1.790  -5.357   2.296  0.00  0.00    +0.122 HD
ATOM     23  H   UNL     1       2.815  -8.623  -1.240  0.00  0.00    +0.160 HD
ENDBRANCH   5   9
BRANCH   1  28
ATOM     24  C   UNL     1       0.514   1.566  -0.539  0.00  0.00    +0.044 C 
ATOM     25  C   UNL     1       0.432   0.065  -0.434  0.00  0.00    -0.050 A 
ATOM     26  C   UNL     1       0.349  -0.704  -1.581  0.00  0.00    +0.005 A 
ATOM     27  C   UNL     1       0.274  -2.080  -1.488  0.00  0.00    +0.024 A 
ATOM     28  C   UNL     1       0.283  -2.692  -0.241  0.00  0.00    +0.043 A 
ATOM     29  C   UNL     1       0.367  -1.917   0.909  0.00  0.00    -0.029 A 
ATOM     30  C   UNL     1       0.447  -0.542   0.809  0.00  0.00    +0.008 A 
ATOM     31  C   UNL     1       0.378  -2.577   2.264  0.00  0.00    +0.045 C 
ENDBRANCH   1  28
BRANCH   4  32
ATOM     32  O   UNL     1      -0.081  -8.212   0.187  0.00  0.00    -0.376 OA
ATOM     33  H   UNL     1      -0.929  -8.597   0.446  0.00  0.00    +0.211 HD
ENDBRANCH   4  32
BRANCH   2  34
ATOM     34  O   UNL     1      -2.002  -4.041  -0.956  0.00  0.00    -0.361 OA
ATOM     35  H   UNL     1      -2.901  -4.397  -0.954  0.00  0.00    +0.213 HD
ENDBRANCH   2  34
TORSDOF 4
