REMARK  Name = ZINC62775655
REMARK  2 active torsions:
REMARK  status: ('A' for Active; 'I' for Inactive)
REMARK    1  A    between atoms: C_6  and  C_7
REMARK    2  A    between atoms: C_7  and  C_9
REMARK                            x       y       z     vdW  Elec       q    Type
REMARK                         _______ _______ _______ _____ _____    ______ ____
ROOT
ATOM      1  C   UNL     1      -0.017   1.394   0.010  0.00  0.00    +0.013 A 
ATOM      2  C   UNL     1       1.166   2.083   0.002  0.00  0.00    +0.024 A 
ATOM      3  C   UNL     1       2.408   1.418  -0.019  0.00  0.00    +0.037 A 
ATOM      4  C   UNL     1       2.428   0.036  -0.031  0.00  0.00    -0.025 A 
ATOM      5  C   UNL     1       1.227  -0.665  -0.018  0.00  0.00    +0.017 A 
ATOM      6  C   UNL     1       0.002  -0.004   0.002  0.00  0.00    +0.024 A 
ATOM      7  C   UNL     1       3.662  -0.806  -0.067  0.00  0.00    +0.037 C 
ATOM      8  C   UNL     1       4.800  -0.261  -0.871  0.00  0.00    +0.014 C 
ATOM      9  C   UNL     1       5.560   0.839  -0.169  0.00  0.00    +0.096 C 
ATOM     10  C   UNL     1       4.790   2.110  -0.135  0.00  0.00    +0.217 C 
ATOM     11  O   UNL     1       5.433   3.133  -0.239  0.00  0.00    -0.275 OA
ATOM     12  N   UNL     1       3.501   2.246  -0.006  0.00  0.00    -0.285 N 
ATOM     13  H   UNL     1       3.249   3.172   0.134  0.00  0.00    +0.155 HD
ENDROOT
BRANCH   6  14
ATOM     14  C   UNL     1      -1.259  -0.769   0.014  0.00  0.00    +0.213 C 
ATOM     15  O   UNL     1      -1.233  -1.984   0.007  0.00  0.00    -0.285 OA
BRANCH  14  16
ATOM     16  C   UNL     1      -2.553  -0.058   0.034  0.00  0.00    +0.132 A 
ATOM     17  C   UNL     1      -3.838  -0.651   0.053  0.00  0.00    +0.052 A 
ATOM     18  C   UNL     1      -4.714   0.382   0.067  0.00  0.00    +0.105 A 
ATOM     19  N   UNL     1      -3.984   1.525   0.057  0.00  0.00    -0.284 N 
ATOM     20  H   UNL     1      -4.356   2.421   0.064  0.00  0.00    +0.188 HD
ATOM     21  N   UNL     1      -2.730   1.249   0.044  0.00  0.00    -0.171 NA
ENDBRANCH  14  16
ENDBRANCH   6  14
TORSDOF 2
