REMARK  Name = ZINC63136705
REMARK  8 active torsions:
REMARK  status: ('A' for Active; 'I' for Inactive)
REMARK    1  A    between atoms: C_1  and  C_2
REMARK    2  A    between atoms: N_4  and  CA_5
REMARK    3  A    between atoms: CA_5  and  C_16
REMARK    4  A    between atoms: CB_6  and  CG_7
REMARK    5  A    between atoms: N_18  and  CA_19
REMARK    6  A    between atoms: CA_19  and  CB_21
REMARK    7  A    between atoms: CA_19  and  C_31
REMARK    8  A    between atoms: CB_21  and  CG_22
REMARK                            x       y       z     vdW  Elec       q    Type
REMARK                         _______ _______ _______ _____ _____    ______ ____
ROOT
ATOM      1  C   TRP A   1       0.237  -2.790  -0.039  0.00  0.00    +0.259 C 
ATOM      2  O   TRP A   1       0.306  -4.003   0.010  0.00  0.00    -0.269 OA
ATOM      3  N   TRP A   2       1.365  -2.052  -0.068  0.00  0.00    -0.297 N 
ATOM      4  H   TRP A   2       1.311  -1.084  -0.033  0.00  0.00    +0.150 HD
ENDROOT
BRANCH   1   5
ATOM      5  CA  TRP A   1      -1.081  -2.126  -0.066  0.00  0.00    +0.096 C 
ATOM      6  CB  TRP A   1      -2.230  -2.880  -0.148  0.00  0.00    +0.034 C 
BRANCH   6   7
ATOM      7  CG  TRP A   1      -3.474  -2.249  -0.260  0.00  0.00    -0.017 C 
ATOM      8  CD2 TRP A   1      -4.729  -2.854  -0.250  0.00  0.00    +0.003 A 
ATOM      9  CE3 TRP A   1      -5.139  -4.200  -0.135  0.00  0.00    +0.010 A 
ATOM     10  CZ3 TRP A   1      -6.461  -4.505  -0.157  0.00  0.00    +0.001 A 
ATOM     11  CH2 TRP A   1      -7.440  -3.515  -0.292  0.00  0.00    +0.002 A 
ATOM     12  CZ2 TRP A   1      -7.122  -2.205  -0.408  0.00  0.00    +0.026 A 
ATOM     13  CE2 TRP A   1      -5.757  -1.806  -0.393  0.00  0.00    +0.043 A 
ATOM     14  NE1 TRP A   1      -5.196  -0.621  -0.487  0.00  0.00    -0.380 N 
ATOM     15  CD1 TRP A   1      -3.739  -0.767  -0.410  0.00  0.00    +0.149 C 
ATOM     16  HE1 TRP A   1      -5.671   0.218  -0.588  0.00  0.00    +0.160 HD
ENDBRANCH   6   7
BRANCH   5  20
ATOM     17  C   UNK A   0      -0.655   1.421   1.073  0.00  0.00    +0.109 C 
ATOM     18  C   UNK A   0      -0.667  -0.086   1.058  0.00  0.00    +0.214 C 
ATOM     19  O   UNK A   0      -0.232  -0.705   2.006  0.00  0.00    -0.276 OA
ATOM     20  N   TRP A   1      -1.162  -0.746  -0.008  0.00  0.00    -0.282 N 
ATOM     21  H   TRP A   1      -1.575  -0.254  -0.734  0.00  0.00    +0.155 HD
ENDBRANCH   5  20
ENDBRANCH   1   5
BRANCH   3  22
ATOM     22  CA  TRP A   2       2.670  -2.711  -0.152  0.00  0.00    +0.191 C 
BRANCH  22  23
ATOM     23  C   TRP A   2       3.129  -3.095   1.231  0.00  0.00    +0.376 C 
ATOM     24  O   TRP A   2       2.431  -2.841   2.197  0.00  0.00    -0.244 OA
ATOM     25  OXT TRP A   2       4.199  -3.659   1.383  0.00  0.00    -0.244 OA
ENDBRANCH  22  23
BRANCH  22  26
ATOM     26  CB  TRP A   2       3.685  -1.753  -0.779  0.00  0.00    +0.067 C 
BRANCH  26  27
ATOM     27  CG  TRP A   2       3.291  -1.466  -2.205  0.00  0.00    -0.039 C 
ATOM     28  CD2 TRP A   2       2.571  -0.412  -2.653  0.00  0.00    -0.001 A 
ATOM     29  CE3 TRP A   2       1.961   0.737  -1.972  0.00  0.00    +0.010 A 
ATOM     30  CZ3 TRP A   2       1.284   1.650  -2.705  0.00  0.00    +0.001 A 
ATOM     31  CH2 TRP A   2       1.149   1.526  -4.095  0.00  0.00    +0.002 A 
ATOM     32  CZ2 TRP A   2       1.681   0.499  -4.790  0.00  0.00    +0.026 A 
ATOM     33  CE2 TRP A   2       2.414  -0.519  -4.121  0.00  0.00    +0.043 A 
ATOM     34  NE1 TRP A   2       3.015  -1.597  -4.564  0.00  0.00    -0.380 N 
ATOM     35  CD1 TRP A   2       3.626  -2.293  -3.425  0.00  0.00    +0.144 C 
ATOM     36  HE1 TRP A   2       3.053  -1.885  -5.489  0.00  0.00    +0.160 HD
ENDBRANCH  26  27
ENDBRANCH  22  26
ENDBRANCH   3  22
TORSDOF 7
