REMARK  Name = ZINC52335692
REMARK  8 active torsions:
REMARK  status: ('A' for Active; 'I' for Inactive)
REMARK    1  A    between atoms: C_1  and  C_2
REMARK    2  A    between atoms: C_2  and  C_3
REMARK    3  A    between atoms: C_3  and  C_5
REMARK    4  A    between atoms: C_3  and  N_11
REMARK    5  A    between atoms: N_11  and  C_12
REMARK    6  A    between atoms: C_12  and  C_14
REMARK    7  A    between atoms: C_12  and  C_15
REMARK    8  A    between atoms: N_18  and  C_21
REMARK                            x       y       z     vdW  Elec       q    Type
REMARK                         _______ _______ _______ _____ _____    ______ ____
ROOT
ATOM      1  N   UNL     1       0.156   0.078  -2.350  0.00  0.00    +0.383 N 
ATOM      2  H   UNL     1       0.636  -0.173  -3.201  0.00  0.00    -0.085 HD
ATOM      3  H   UNL     1      -0.750  -0.367  -2.330  0.00  0.00    -0.085 HD
ENDROOT
BRANCH   1   4
ATOM      4  C   UNL     1      -0.012   1.536  -2.293  0.00  0.00    -0.072 C 
ATOM      5  C   UNL     1       1.350   2.213  -2.458  0.00  0.00    -0.013 C 
BRANCH   4   6
ATOM      6  C   UNL     1      -0.945   1.985  -3.420  0.00  0.00    -0.029 C 
ATOM      7  C   UNL     1      -0.336   1.602  -4.772  0.00  0.00    -0.017 C 
ATOM      8  C   UNL     1      -1.234   2.124  -5.896  0.00  0.00    -0.079 C 
ATOM      9  N   UNL     1      -1.342   3.585  -5.802  0.00  0.00    +0.378 N 
ATOM     10  C   UNL     1      -1.990   3.957  -4.538  0.00  0.00    -0.079 C 
ATOM     11  C   UNL     1      -1.121   3.505  -3.363  0.00  0.00    -0.017 C 
ATOM     12  C   UNL     1      -2.141   4.089  -6.927  0.00  0.00    -0.096 C 
ATOM     13  H   UNL     1      -0.420   3.993  -5.838  0.00  0.00    -0.082 HD
ENDBRANCH   4   6
ENDBRANCH   1   4
BRANCH   1  14
ATOM     14  C   UNL     1       0.945  -0.369  -1.194  0.00  0.00    -0.069 C 
BRANCH  14  15
ATOM     15  C   UNL     1       1.269  -1.857  -1.341  0.00  0.00    -0.025 C 
ATOM     16  C   UNL     1      -0.031  -2.647  -1.511  0.00  0.00    +0.002 C 
ATOM     17  C   UNL     1       0.293  -4.135  -1.659  0.00  0.00    +0.000 C 
ATOM     18  C   UNL     1       1.027  -4.624  -0.409  0.00  0.00    +0.000 C 
ATOM     19  C   UNL     1       2.326  -3.834  -0.239  0.00  0.00    +0.000 C 
ATOM     20  C   UNL     1       2.003  -2.346  -0.091  0.00  0.00    +0.002 C 
ENDBRANCH  14  15
BRANCH  14  22
ATOM     21  C   UNL     1       1.101   0.049   1.265  0.00  0.00    +0.002 C 
ATOM     22  C   UNL     1       0.141  -0.147   0.089  0.00  0.00    -0.019 C 
ENDBRANCH  14  22
ENDBRANCH   1  14
TORSDOF 5
