REMARK  Name = ZINC07525025
REMARK  11 active torsions:
REMARK  status: ('A' for Active; 'I' for Inactive)
REMARK    1  A    between atoms: C_1  and  C_2
REMARK    2  A    between atoms: C_2  and  C_3
REMARK    3  A    between atoms: C_3  and  C_4
REMARK    4  A    between atoms: C_4  and  N_5
REMARK    5  A    between atoms: C_6  and  N_27
REMARK    6  A    between atoms: C_7  and  N_14
REMARK    7  A    between atoms: N_14  and  C_15
REMARK    8  A    between atoms: C_15  and  C_16
REMARK    9  A    between atoms: C_17  and  C_19
REMARK   10  A    between atoms: C_19  and  N_57
REMARK   11  A    between atoms: C_24  and  C_26
REMARK                            x       y       z     vdW  Elec       q    Type
REMARK                         _______ _______ _______ _____ _____    ______ ____
ROOT
ATOM      1  N   UNL     1       1.474  -4.545   1.137  0.00  0.00    -0.280 N 
ATOM      2  C   UNL     1       1.194  -3.261   0.733  0.00  0.00    +0.127 A 
ATOM      3  C   UNL     1       0.175  -2.567   1.352  0.00  0.00    +0.140 A 
ATOM      4  C   UNL     1      -0.545  -3.195   2.386  0.00  0.00    +0.277 A 
ATOM      5  O   UNL     1      -1.447  -2.603   2.953  0.00  0.00    -0.266 OA
ATOM      6  N   UNL     1      -0.234  -4.457   2.740  0.00  0.00    -0.273 N 
ATOM      7  H   UNL     1      -0.749  -4.908   3.469  0.00  0.00    +0.173 HD
ATOM      8  C   UNL     1       0.763  -5.118   2.124  0.00  0.00    +0.331 A 
ATOM      9  O   UNL     1       1.026  -6.255   2.467  0.00  0.00    -0.246 OA
ENDROOT
BRANCH   3  10
ATOM     10  N   UNL     1      -0.137  -1.247   0.961  0.00  0.00    -0.266 N 
ATOM     11  C   UNL     1       0.761  -0.258   1.150  0.00  0.00    +0.203 C 
ATOM     12  O   UNL     1       1.870  -0.517   1.568  0.00  0.00    -0.277 OA
BRANCH  10  13
ATOM     13  C   UNL     1      -1.434  -0.952   0.349  0.00  0.00    +0.110 C 
ATOM     14  C   UNL     1      -1.307  -1.017  -1.174  0.00  0.00    +0.025 C 
ENDBRANCH  10  13
BRANCH  11  15
ATOM     15  C   UNL     1       0.386   1.169   0.842  0.00  0.00    +0.019 C 
BRANCH  15  22
ATOM     16  C   UNL     1       2.611   1.837   0.162  0.00  0.00    -0.078 C 
ATOM     17  C   UNL     1       3.834   2.659   0.575  0.00  0.00    -0.019 C 
ATOM     18  C   UNL     1       3.452   4.141   0.626  0.00  0.00    -0.003 C 
ATOM     19  C   UNL     1       2.289   4.327   1.605  0.00  0.00    -0.016 C 
ATOM     20  C   UNL     1       1.112   3.456   1.161  0.00  0.00    -0.071 C 
ATOM     21  C   UNL     1      -0.046   3.624   2.148  0.00  0.00    -0.013 C 
ATOM     22  N   UNL     1       1.537   2.040   1.156  0.00  0.00    +0.387 N 
ATOM     23  H   UNL     1       1.895   1.797   2.087  0.00  0.00    -0.081 HD
ENDBRANCH  15  22
ENDBRANCH  11  15
ENDBRANCH   3  10
BRANCH   2  24
ATOM     24  N   UNL     1       1.920  -2.675  -0.277  0.00  0.00    -0.343 N 
ATOM     25  H   UNL     1       1.735  -1.760  -0.540  0.00  0.00    +0.144 HD
ATOM     26  H   UNL     1       2.617  -3.178  -0.727  0.00  0.00    +0.144 HD
ENDBRANCH   2  24
BRANCH   1  27
ATOM     27  C   UNL     1       2.553  -5.294   0.488  0.00  0.00    +0.128 C 
BRANCH  27  28
ATOM     28  C   UNL     1       3.866  -5.044   1.233  0.00  0.00    +0.021 C 
BRANCH  28  30
ATOM     29  C   UNL     1       6.306  -5.577   1.300  0.00  0.00    +0.004 C 
ATOM     30  C   UNL     1       4.994  -5.826   0.555  0.00  0.00    -0.002 C 
ENDBRANCH  28  30
ENDBRANCH  27  28
ENDBRANCH   1  27
TORSDOF 8
