REMARK  Name = ZINC61758699
REMARK  6 active torsions:
REMARK  status: ('A' for Active; 'I' for Inactive)
REMARK    1  A    between atoms: C_1  and  C_2
REMARK    2  A    between atoms: C_2  and  C_3
REMARK    3  A    between atoms: C_3  and  N_4
REMARK    4  A    between atoms: N_14  and  C_17
REMARK    5  A    between atoms: C_17  and  C_18
REMARK    6  A    between atoms: C_18  and  N_19
REMARK                            x       y       z     vdW  Elec       q    Type
REMARK                         _______ _______ _______ _____ _____    ______ ____
ROOT
ATOM      1  N   UNL     1      -1.319  -4.042  -1.312  0.00  0.00    -0.311 N 
ATOM      2  C   UNL     1      -1.408  -2.688  -1.178  0.00  0.00    +0.106 A 
ATOM      3  C   UNL     1      -1.478  -2.116   0.043  0.00  0.00    +0.102 A 
ATOM      4  N   UNL     1      -1.463  -2.844   1.159  0.00  0.00    -0.344 N 
ATOM      5  C   UNL     1      -1.379  -4.156   1.107  0.00  0.00    +0.165 A 
ATOM      6  C   UNL     1      -1.307  -4.814  -0.203  0.00  0.00    +0.290 A 
ATOM      7  O   UNL     1      -1.233  -6.028  -0.288  0.00  0.00    -0.264 OA
ATOM      8  N   UNL     1      -1.364  -4.907   2.274  0.00  0.00    -0.310 N 
ATOM      9  C   UNL     1      -1.263  -4.257   3.590  0.00  0.00    +0.122 C 
ATOM     10  C   UNL     1      -2.385  -4.795   4.485  0.00  0.00    +0.103 C 
ATOM     11  N   UNL     1      -2.325  -6.262   4.511  0.00  0.00    -0.301 NA
ATOM     12  C   UNL     1      -2.562  -6.829   3.177  0.00  0.00    +0.103 C 
ATOM     13  C   UNL     1      -1.454  -6.375   2.228  0.00  0.00    +0.122 C 
ATOM     14  H   UNL     1      -1.515  -2.401   2.021  0.00  0.00    +0.167 HD
ENDROOT
BRANCH   1  15
ATOM     15  C   UNL     1      -1.243  -4.652  -2.642  0.00  0.00    +0.125 C 
BRANCH  15  17
ATOM     16  C   UNL     1      -2.578  -5.586  -4.537  0.00  0.00    +0.005 C 
ATOM     17  C   UNL     1      -2.656  -4.949  -3.148  0.00  0.00    +0.018 C 
ENDBRANCH  15  17
ENDBRANCH   1  15
BRANCH  11  18
ATOM     18  C   UNL     1      -3.272  -6.810   5.492  0.00  0.00    +0.065 C 
BRANCH  18  19
ATOM     19  C   UNL     1      -3.011  -8.306   5.672  0.00  0.00    -0.071 C 
BRANCH  19  20
ATOM     20  N   UNL     1      -3.958  -8.854   6.653  0.00  0.00    +0.379 N 
ATOM     21  H   UNL     1      -3.786  -9.841   6.772  0.00  0.00    -0.090 HD
ATOM     22  H   UNL     1      -3.838  -8.383   7.537  0.00  0.00    -0.090 HD
ATOM     23  H   UNL     1      -4.902  -8.715   6.323  0.00  0.00    -0.090 HD
ENDBRANCH  19  20
ENDBRANCH  18  19
ENDBRANCH  11  18
TORSDOF 5
