REMARK  Name = ZINC35557700
REMARK  6 active torsions:
REMARK  status: ('A' for Active; 'I' for Inactive)
REMARK    1  A    between atoms: C_1  and  C_2
REMARK    2  A    between atoms: C_2  and  N_3
REMARK    3  A    between atoms: N_3  and  C_4
REMARK    4  A    between atoms: C_4  and  C_6
REMARK    5  A    between atoms: C_4  and  C_12
REMARK    6  A    between atoms: C_10  and  C_11
REMARK                            x       y       z     vdW  Elec       q    Type
REMARK                         _______ _______ _______ _____ _____    ______ ____
ROOT
ATOM      1  C   UNL     1      -1.398  -2.005   0.040  0.00  0.00    -0.005 C 
ENDROOT
BRANCH   1   2
ATOM      2  C   UNL     1      -2.864  -2.275   0.266  0.00  0.00    -0.035 A 
ATOM      3  C   UNL     1      -3.804  -1.331  -0.102  0.00  0.00    +0.053 A 
ATOM      4  C   UNL     1      -5.153  -1.578   0.103  0.00  0.00    +0.162 A 
ATOM      5  C   UNL     1      -5.558  -2.777   0.678  0.00  0.00    +0.163 A 
ATOM      6  C   UNL     1      -4.610  -3.720   1.047  0.00  0.00    +0.069 A 
ATOM      7  C   UNL     1      -3.265  -3.470   0.835  0.00  0.00    +0.047 A 
ATOM      8 CL   UNL     1      -2.081  -4.655   1.291  0.00  0.00    -0.083 Cl
ATOM      9  O   UNL     1      -6.877  -3.042   0.881  0.00  0.00    -0.485 OA
ATOM     10  C   UNL     1      -7.771  -1.925   0.843  0.00  0.00    +0.270 C 
ATOM     11  C   UNL     1      -7.425  -1.074  -0.386  0.00  0.00    +0.270 C 
ATOM     12  O   UNL     1      -6.067  -0.637  -0.261  0.00  0.00    -0.485 OA
ENDBRANCH   1   2
BRANCH   1  13
ATOM     13  C   UNL     1      -0.937  -2.733  -1.196  0.00  0.00    -0.016 A 
ATOM     14  C   UNL     1      -0.134  -3.896  -1.238  0.00  0.00    +0.043 A 
ATOM     15  C   UNL     1       0.034  -4.206  -2.536  0.00  0.00    +0.195 A 
ATOM     16  O   UNL     1      -0.621  -3.299  -3.278  0.00  0.00    -0.468 OA
ATOM     17  C   UNL     1      -1.217  -2.406  -2.470  0.00  0.00    +0.104 A 
ATOM     18  C   UNL     1      -2.053  -1.234  -2.916  0.00  0.00    +0.086 C 
ENDBRANCH   1  13
BRANCH   1  19
ATOM     19  N   UNL     1      -1.188  -0.561  -0.135  0.00  0.00    +0.386 N 
ATOM     20  H   UNL     1      -1.586  -0.066   0.648  0.00  0.00    -0.085 HD
ATOM     21  H   UNL     1      -1.635  -0.258  -0.987  0.00  0.00    -0.085 HD
BRANCH  19  23
ATOM     22  C   UNL     1       0.471   1.221  -0.394  0.00  0.00    -0.017 C 
ATOM     23  C   UNL     1       0.252  -0.282  -0.211  0.00  0.00    -0.085 C 
ENDBRANCH  19  23
ENDBRANCH   1  19
TORSDOF 4
