REMARK  Name = ZINC65968100
REMARK  7 active torsions:
REMARK  status: ('A' for Active; 'I' for Inactive)
REMARK    1  A    between atoms: C_1  and  C_2
REMARK    2  A    between atoms: C_2  and  C_3
REMARK    3  A    between atoms: C_2  and  N_13
REMARK    4  A    between atoms: N_8  and  C_9
REMARK    5  A    between atoms: C_9  and  C_10
REMARK    6  A    between atoms: C_9  and  C_11
REMARK    7  A    between atoms: C_9  and  C_12
REMARK                            x       y       z     vdW  Elec       q    Type
REMARK                         _______ _______ _______ _____ _____    ______ ____
ROOT
ATOM      1  C   UNL     1       0.699   1.264   0.501  0.00  0.00    -0.004 C 
ATOM      2  C   UNL     1       0.002  -0.004   0.002  0.00  0.00    +0.017 C 
ENDROOT
BRANCH   2   3
ATOM      3  N   UNL     1       0.194  -1.085   0.978  0.00  0.00    +0.389 N 
ATOM      4  C   UNL     1      -0.240  -2.314   0.380  0.00  0.00    -0.074 C 
ATOM      5  C   UNL     1      -0.613  -3.418   1.326  0.00  0.00    -0.027 C 
ATOM      6  C   UNL     1      -2.111  -3.382   1.617  0.00  0.00    +0.005 C 
ATOM      7  C   UNL     1      -2.402  -2.308   2.660  0.00  0.00    -0.012 C 
ATOM      8  C   UNL     1      -1.705  -2.689   3.968  0.00  0.00    +0.007 C 
ATOM      9  C   UNL     1      -0.195  -2.644   3.731  0.00  0.00    -0.012 C 
ATOM     10  C   UNL     1       0.214  -3.531   2.574  0.00  0.00    +0.005 C 
ATOM     11  C   UNL     1       0.209  -1.193   3.456  0.00  0.00    -0.012 C 
ATOM     12  C   UNL     1      -0.475  -0.717   2.193  0.00  0.00    -0.067 C 
ATOM     13  C   UNL     1      -1.972  -0.927   2.199  0.00  0.00    -0.012 C 
ATOM     14  H   UNL     1       1.181  -1.162   1.172  0.00  0.00    -0.080 HD
ENDBRANCH   2   3
BRANCH   2  15
ATOM     15  C   UNL     1       0.592  -0.413  -1.323  0.00  0.00    +0.207 C 
ATOM     16  O   UNL     1       1.548  -1.158  -1.356  0.00  0.00    -0.277 OA
ATOM     17  N   UNL     1       0.057   0.049  -2.470  0.00  0.00    -0.242 N 
ATOM     18  C   UNL     1       0.585  -0.318  -3.655  0.00  0.00    +0.306 C 
ATOM     19  O   UNL     1       1.543  -1.064  -3.689  0.00  0.00    -0.252 OA
ATOM     20  N   UNL     1       0.050   0.145  -4.803  0.00  0.00    -0.294 N 
ATOM     21  H   UNL     1      -0.708   0.645  -2.443  0.00  0.00    +0.159 HD
ATOM     22  H   UNL     1      -0.715   0.741  -4.776  0.00  0.00    +0.151 HD
BRANCH  20  23
ATOM     23  C   UNL     1       0.624  -0.253  -6.091  0.00  0.00    +0.028 C 
ATOM     24  C   UNL     1       0.549  -1.775  -6.234  0.00  0.00    +0.031 C 
ATOM     25  C   UNL     1      -0.164   0.405  -7.225  0.00  0.00    +0.031 C 
ATOM     26  C   UNL     1       2.085   0.194  -6.158  0.00  0.00    +0.031 C 
ENDBRANCH  20  23
ENDBRANCH   2  15
TORSDOF 3
