REMARK  Name = ZINC37745202
REMARK  5 active torsions:
REMARK  status: ('A' for Active; 'I' for Inactive)
REMARK    1  A    between atoms: C_1  and  C_2
REMARK    2  A    between atoms: C_4  and  C_7
REMARK    3  A    between atoms: C_7  and  N_22
REMARK    4  A    between atoms: N_10  and  S_13
REMARK    5  A    between atoms: S_13  and  C_16
REMARK                            x       y       z     vdW  Elec       q    Type
REMARK                         _______ _______ _______ _____ _____    ______ ____
ROOT
ATOM      1  C   UNL     1      -1.588  -3.254  -0.008  0.00  0.00    -0.004 C 
ATOM      2  C   UNL     1      -2.390  -3.275  -1.311  0.00  0.00    +0.012 C 
ATOM      3  C   UNL     1      -3.354  -4.465  -1.294  0.00  0.00    +0.108 C 
ATOM      4  N   UNL     1      -2.586  -5.691  -1.039  0.00  0.00    -0.177 NA
ATOM      5  C   UNL     1      -1.711  -5.745   0.140  0.00  0.00    +0.108 C 
ATOM      6  C   UNL     1      -0.765  -4.540   0.107  0.00  0.00    +0.012 C 
ENDROOT
BRANCH   1  10
ATOM      7  C   UNL     1      -0.018   1.503   0.010  0.00  0.00    +0.112 C 
ATOM      8  C   UNL     1       0.002  -0.004   0.002  0.00  0.00    +0.224 A 
ATOM      9  N   UNL     1      -1.044  -0.783   0.003  0.00  0.00    -0.198 NA
ATOM     10  C   UNL     1      -0.663  -2.065  -0.006  0.00  0.00    +0.161 A 
ATOM     11  N   UNL     1       0.638  -2.118  -0.012  0.00  0.00    -0.063 NA
ATOM     12  O   UNL     1       1.097  -0.774  -0.013  0.00  0.00    -0.338 OA
ENDBRANCH   1  10
BRANCH   1  13
ATOM     13  N   UNL     1      -2.509  -3.159   1.132  0.00  0.00    +0.387 N 
ATOM     14  H   UNL     1      -3.051  -2.312   1.057  0.00  0.00    -0.089 HD
ATOM     15  H   UNL     1      -3.129  -3.956   1.131  0.00  0.00    -0.089 HD
ATOM     16  H   UNL     1      -1.981  -3.145   1.992  0.00  0.00    -0.089 HD
ENDBRANCH   1  13
BRANCH   4  17
ATOM     17  S   UNL     1      -2.705  -6.989  -2.061  0.00  0.00    +0.064 S 
ATOM     18  O   UNL     1      -2.342  -8.136  -1.305  0.00  0.00    -0.153 OA
ATOM     19  O   UNL     1      -3.960  -6.876  -2.717  0.00  0.00    -0.153 OA
BRANCH  17  20
ATOM     20  C   UNL     1      -1.469  -6.791  -3.301  0.00  0.00    +0.142 A 
ATOM     21  C   UNL     1      -1.620  -6.144  -4.479  0.00  0.00    +0.133 A 
ATOM     22  N   UNL     1      -0.446  -6.216  -5.142  0.00  0.00    -0.283 N 
ATOM     23  H   UNL     1      -0.260  -5.838  -6.016  0.00  0.00    +0.188 HD
ATOM     24  N   UNL     1       0.456  -6.932  -4.344  0.00  0.00    -0.180 NA
ATOM     25  C   UNL     1      -0.156  -7.271  -3.238  0.00  0.00    +0.162 A 
ENDBRANCH  17  20
ENDBRANCH   4  17
TORSDOF 4
