REMARK  Name = ZINC61221373
REMARK  5 active torsions:
REMARK  status: ('A' for Active; 'I' for Inactive)
REMARK    1  A    between atoms: C_1  and  C_2
REMARK    2  A    between atoms: C_2  and  N_3
REMARK    3  A    between atoms: C_5  and  C_19
REMARK    4  A    between atoms: N_9  and  C_12
REMARK    5  A    between atoms: C_15  and  N_18
REMARK                            x       y       z     vdW  Elec       q    Type
REMARK                         _______ _______ _______ _____ _____    ______ ____
ROOT
ATOM      1  N   UNL     1      -1.605   0.137  -0.135  0.00  0.00    -0.284 N 
ATOM      2  C   UNL     1      -1.773  -0.613   1.111  0.00  0.00    +0.121 C 
ATOM      3  C   UNL     1      -3.243  -1.006   1.278  0.00  0.00    +0.090 C 
ATOM      4  C   UNL     1      -3.754  -1.576  -0.021  0.00  0.00    +0.232 C 
ATOM      5  O   UNL     1      -4.576  -2.467  -0.011  0.00  0.00    -0.274 OA
ATOM      6  N   UNL     1      -3.297  -1.095  -1.192  0.00  0.00    -0.194 N 
ATOM      7  C   UNL     1      -2.327  -0.167  -1.226  0.00  0.00    +0.316 C 
ATOM      8  O   UNL     1      -2.094   0.409  -2.271  0.00  0.00    -0.252 OA
ATOM      9  C   UNL     1      -4.063   0.230   1.653  0.00  0.00    +0.019 C 
ENDROOT
BRANCH   6  10
ATOM     10  C   UNL     1      -3.847  -1.566  -2.395  0.00  0.00    +0.046 A 
ATOM     11  C   UNL     1      -3.266  -2.645  -3.047  0.00  0.00    +0.026 A 
ATOM     12  C   UNL     1      -3.807  -3.109  -4.230  0.00  0.00    +0.024 A 
ATOM     13  C   UNL     1      -4.932  -2.497  -4.766  0.00  0.00    +0.025 A 
ATOM     14  C   UNL     1      -5.513  -1.418  -4.113  0.00  0.00    +0.024 A 
ATOM     15  C   UNL     1      -4.975  -0.958  -2.928  0.00  0.00    +0.026 A 
BRANCH  13  16
ATOM     16  N   UNL     1      -5.480  -2.967  -5.964  0.00  0.00    -0.358 N 
ATOM     17  H   UNL     1      -5.074  -3.720  -6.421  0.00  0.00    +0.142 HD
ATOM     18  H   UNL     1      -6.266  -2.539  -6.339  0.00  0.00    +0.142 HD
ENDBRANCH  13  16
ENDBRANCH   6  10
BRANCH   1  20
ATOM     19  C   UNL     1      -1.333   2.542   0.212  0.00  0.00    +0.024 C 
ATOM     20  C   UNL     1      -0.641   1.239  -0.191  0.00  0.00    +0.106 C 
ENDBRANCH   1  20
TORSDOF 3
