REMARK  Name = ZINC36296760
REMARK  7 active torsions:
REMARK  status: ('A' for Active; 'I' for Inactive)
REMARK    1  A    between atoms: C_1  and  O_2
REMARK    2  A    between atoms: O_2  and  C_3
REMARK    3  A    between atoms: C_8  and  C_9
REMARK    4  A    between atoms: C_14  and  C_23
REMARK    5  A    between atoms: C_15  and  C_17
REMARK    6  A    between atoms: C_23  and  C_24
REMARK    7  A    between atoms: C_24  and  N_25
REMARK                            x       y       z     vdW  Elec       q    Type
REMARK                         _______ _______ _______ _____ _____    ______ ____
ROOT
ATOM      1  C   UNL     1       0.056  -2.679   0.058  0.00  0.00    +0.066 A 
ATOM      2  C   UNL     1       0.917  -2.493  -0.961  0.00  0.00    +0.075 A 
ATOM      3  S   UNL     1       2.353  -3.396  -0.403  0.00  0.00    -0.057 S 
ATOM      4  C   UNL     1       1.696  -3.955   1.151  0.00  0.00    +0.179 A 
ATOM      5  N   UNL     1       0.433  -3.424   1.162  0.00  0.00    -0.290 N 
ATOM      6  C   UNL     1      -0.121  -3.832   2.368  0.00  0.00    +0.050 A 
ATOM      7  C   UNL     1       0.812  -4.570   3.019  0.00  0.00    +0.094 A 
ATOM      8  N   UNL     1       1.913  -4.632   2.241  0.00  0.00    -0.221 NA
ENDROOT
BRANCH   1  14
ATOM      9  C   UNL     1      -1.464  -0.707   0.204  0.00  0.00    +0.129 A 
ATOM     10  C   UNL     1      -2.733  -0.154   0.141  0.00  0.00    +0.046 A 
ATOM     11  C   UNL     1      -3.827  -0.959  -0.117  0.00  0.00    +0.004 A 
ATOM     12  C   UNL     1      -3.664  -2.319  -0.316  0.00  0.00    +0.001 A 
ATOM     13  C   UNL     1      -2.406  -2.884  -0.256  0.00  0.00    +0.013 A 
ATOM     14  C   UNL     1      -1.294  -2.081  -0.001  0.00  0.00    +0.041 A 
BRANCH   9  16
ATOM     15  C   UNL     1      -0.638   1.476   0.657  0.00  0.00    +0.277 C 
ATOM     16  O   UNL     1      -0.388   0.083   0.458  0.00  0.00    -0.494 OA
ENDBRANCH   9  16
ENDBRANCH   1  14
BRANCH   7  17
ATOM     17  C   UNL     1       0.648  -5.207   4.348  0.00  0.00    +0.005 A 
ATOM     18  C   UNL     1       1.098  -6.510   4.580  0.00  0.00    +0.030 A 
ATOM     19  C   UNL     1       0.925  -7.064   5.832  0.00  0.00    +0.111 A 
ATOM     20  N   UNL     1       0.344  -6.381   6.800  0.00  0.00    -0.263 NA
ATOM     21  C   UNL     1      -0.095  -5.150   6.622  0.00  0.00    +0.111 A 
ATOM     22  C   UNL     1       0.043  -4.518   5.404  0.00  0.00    +0.030 A 
ENDBRANCH   7  17
BRANCH   6  23
ATOM     23  C   UNL     1      -1.507  -3.513   2.864  0.00  0.00    +0.036 C 
BRANCH  23  24
ATOM     24  C   UNL     1      -2.451  -4.667   2.518  0.00  0.00    -0.080 C 
BRANCH  24  25
ATOM     25  N   UNL     1      -3.803  -4.355   3.002  0.00  0.00    +0.378 N 
ATOM     26  H   UNL     1      -4.131  -3.509   2.562  0.00  0.00    -0.090 HD
ATOM     27  H   UNL     1      -4.425  -5.116   2.774  0.00  0.00    -0.090 HD
ATOM     28  H   UNL     1      -3.781  -4.227   4.003  0.00  0.00    -0.090 HD
ENDBRANCH  24  25
ENDBRANCH  23  24
ENDBRANCH   6  23
TORSDOF 6
