REMARK  Name = ZINC62903259
REMARK  5 active torsions:
REMARK  status: ('A' for Active; 'I' for Inactive)
REMARK    1  A    between atoms: C_1  and  C_2
REMARK    2  A    between atoms: C_2  and  C_3
REMARK    3  A    between atoms: C_3  and  C_8
REMARK    4  A    between atoms: N_10  and  C_11
REMARK    5  A    between atoms: C_16  and  C_17
REMARK                            x       y       z     vdW  Elec       q    Type
REMARK                         _______ _______ _______ _____ _____    ______ ____
ROOT
ATOM      1  C   UNL     1       2.181   0.170  -1.198  0.00  0.00    +0.222 C 
ATOM      2  O   UNL     1       3.129  -0.576  -1.320  0.00  0.00    -0.275 OA
ATOM      3  N   UNL     1       2.381   1.486  -0.986  0.00  0.00    -0.284 N 
ATOM      4  H   UNL     1       1.625   2.092  -0.953  0.00  0.00    +0.155 HD
ENDROOT
BRANCH   1   5
ATOM      5  C   UNL     1       0.778  -0.374  -1.284  0.00  0.00    +0.030 C 
ATOM      6  C   UNL     1       0.074   0.150  -2.556  0.00  0.00    -0.005 C 
ATOM      7  C   UNL     1       0.271  -1.010  -3.564  0.00  0.00    -0.082 C 
ATOM      8  N   UNL     1       0.130  -2.223  -2.719  0.00  0.00    +0.380 N 
ATOM      9  C   UNL     1       0.808  -1.906  -1.443  0.00  0.00    -0.067 C 
ATOM     10  H   UNL     1      -0.846  -2.421  -2.554  0.00  0.00    -0.086 HD
ATOM     11  H   UNL     1       0.576  -3.011  -3.163  0.00  0.00    -0.086 HD
BRANCH   5  13
ATOM     12  C   UNL     1       0.703  -0.498   1.210  0.00  0.00    +0.005 C 
ATOM     13  C   UNL     1      -0.019   0.015  -0.037  0.00  0.00    +0.011 C 
ENDBRANCH   5  13
ENDBRANCH   1   5
BRANCH   3  14
ATOM     14  C   UNL     1       3.673   1.974  -0.814  0.00  0.00    +0.048 A 
ATOM     15  C   UNL     1       4.730   1.414  -1.519  0.00  0.00    +0.025 A 
ATOM     16  C   UNL     1       6.011   1.899  -1.347  0.00  0.00    +0.017 A 
ATOM     17  C   UNL     1       6.253   2.947  -0.471  0.00  0.00    +0.019 A 
ATOM     18  C   UNL     1       5.218   3.515   0.238  0.00  0.00    +0.032 A 
ATOM     19  C   UNL     1       3.913   3.039   0.070  0.00  0.00    +0.085 A 
ATOM     20 BR   UNL     1       8.015   3.598  -0.248  0.00  0.00    -0.050 Br
BRANCH  19  21
ATOM     21  C   UNL     1       2.801   3.645   0.818  0.00  0.00    +0.388 C 
ATOM     22  O   UNL     1       2.997   4.634   1.511  0.00  0.00    -0.241 OA
ATOM     23  O   UNL     1       1.680   3.161   0.747  0.00  0.00    -0.241 OA
ENDBRANCH  19  21
ENDBRANCH   3  14
TORSDOF 4
