REMARK  Name = ZINC04064165
REMARK  8 active torsions:
REMARK  status: ('A' for Active; 'I' for Inactive)
REMARK    1  A    between atoms: C_1  and  O_2
REMARK    2  A    between atoms: O_2  and  C_3
REMARK    3  A    between atoms: C_6  and  C_11
REMARK    4  A    between atoms: C_8  and  O_9
REMARK    5  A    between atoms: O_9  and  C_10
REMARK    6  A    between atoms: C_19  and  O_26
REMARK    7  A    between atoms: C_22  and  C_23
REMARK    8  A    between atoms: C_22  and  N_53
REMARK                            x       y       z     vdW  Elec       q    Type
REMARK                         _______ _______ _______ _____ _____    ______ ____
ROOT
ATOM      1  C   UNL     1      -1.514   3.562   0.106  0.00  0.00    -0.031 C 
ATOM      2  C   UNL     1      -0.814   3.124  -1.182  0.00  0.00    +0.011 C 
ATOM      3  C   UNL     1      -1.583   3.651  -2.393  0.00  0.00    +0.005 C 
ATOM      4  C   UNL     1      -3.004   3.084  -2.385  0.00  0.00    +0.000 C 
ATOM      5  C   UNL     1      -2.942   1.557  -2.446  0.00  0.00    +0.003 C 
ATOM      6  C   UNL     1      -2.175   1.019  -1.236  0.00  0.00    +0.035 C 
ATOM      7  C   UNL     1      -0.757   1.595  -1.231  0.00  0.00    +0.066 C 
ATOM      8  C   UNL     1      -0.013   1.086   0.008  0.00  0.00    +0.016 C 
ATOM      9  C   UNL     1      -0.732   1.581   1.265  0.00  0.00    -0.075 C 
ATOM     10  N   UNL     1      -0.743   3.059   1.264  0.00  0.00    +0.390 N 
ATOM     11  H   UNL     1       0.224   3.399   1.193  0.00  0.00    -0.080 HD
ENDROOT
BRANCH   1  15
ATOM     12  C   UNL     1      -1.636   7.834   0.276  0.00  0.00    +0.161 A 
ATOM     13  C   UNL     1      -0.479   7.156   0.627  0.00  0.00    +0.049 A 
ATOM     14  C   UNL     1      -0.443   5.776   0.570  0.00  0.00    +0.006 A 
ATOM     15  C   UNL     1      -1.559   5.067   0.165  0.00  0.00    -0.057 A 
ATOM     16  C   UNL     1      -2.715   5.737  -0.191  0.00  0.00    +0.051 A 
ATOM     17  C   UNL     1      -2.760   7.121  -0.132  0.00  0.00    +0.162 A 
BRANCH  12  19
ATOM     18  C   UNL     1      -0.484   9.857   0.758  0.00  0.00    +0.277 C 
ATOM     19  O   UNL     1      -1.674   9.192   0.331  0.00  0.00    -0.491 OA
ENDBRANCH  12  19
BRANCH  17  20
ATOM     20  O   UNL     1      -3.897   7.781  -0.477  0.00  0.00    -0.491 OA
ATOM     21  C   UNL     1      -5.011   6.984  -0.886  0.00  0.00    +0.277 C 
ENDBRANCH  17  20
ENDBRANCH   1  15
BRANCH   7  22
ATOM     22  O   UNL     1      -0.066   1.178  -2.411  0.00  0.00    -0.388 OA
ATOM     23  H   UNL     1       0.014   0.219  -2.502  0.00  0.00    +0.210 HD
ENDBRANCH   7  22
BRANCH  10  24
ATOM     24  C   UNL     1      -1.336   3.560   2.520  0.00  0.00    +0.019 C 
BRANCH  24  25
ATOM     25  C   UNL     1      -0.414   3.218   3.662  0.00  0.00    +0.194 C 
ATOM     26  O   UNL     1       0.612   2.608   3.450  0.00  0.00    -0.278 OA
ATOM     27  N   UNL     1      -0.730   3.590   4.918  0.00  0.00    -0.331 N 
ATOM     28  H   UNL     1      -1.551   4.078   5.087  0.00  0.00    +0.145 HD
ATOM     29  H   UNL     1      -0.137   3.370   5.653  0.00  0.00    +0.145 HD
ENDBRANCH  24  25
ENDBRANCH  10  24
TORSDOF 6
