REMARK  Name = ZINC05346367
REMARK  9 active torsions:
REMARK  status: ('A' for Active; 'I' for Inactive)
REMARK    1  A    between atoms: C_1  and  C_2
REMARK    2  A    between atoms: C_13  and  C_15
REMARK    3  A    between atoms: C_15  and  C_16
REMARK    4  A    between atoms: C_16  and  C_17
REMARK    5  A    between atoms: N_22  and  C_25
REMARK    6  A    between atoms: C_25  and  C_26
REMARK    7  A    between atoms: C_26  and  C_27
REMARK    8  A    between atoms: C_27  and  O_28
REMARK    9  A    between atoms: O_28  and  C_29
REMARK                            x       y       z     vdW  Elec       q    Type
REMARK                         _______ _______ _______ _____ _____    ______ ____
ROOT
ATOM      1  C   UNL     1       0.976   7.266   0.011  0.00  0.00    +0.044 C 
ATOM      2  C   UNL     1       0.361   5.891   0.016  0.00  0.00    -0.050 A 
ATOM      3  C   UNL     1      -1.014   5.746   0.029  0.00  0.00    +0.005 A 
ATOM      4  C   UNL     1      -1.582   4.489   0.033  0.00  0.00    +0.024 A 
ATOM      5  C   UNL     1      -0.774   3.355   0.024  0.00  0.00    +0.036 A 
ATOM      6  C   UNL     1       0.609   3.512   0.011  0.00  0.00    -0.027 A 
ATOM      7  C   UNL     1       1.171   4.769   0.008  0.00  0.00    +0.008 A 
ATOM      8  C   UNL     1       1.180   2.123   0.002  0.00  0.00    +0.050 C 
ATOM      9  C   UNL     1       2.062   1.886  -1.229  0.00  0.00    +0.088 C 
ATOM     10  C   UNL     1       3.209   0.970  -0.720  0.00  0.00    +0.073 C 
ATOM     11  C   UNL     1       2.889   0.728   0.771  0.00  0.00    -0.057 C 
ATOM     12  C   UNL     1       2.997  -0.315  -1.488  0.00  0.00    +0.224 C 
ATOM     13  O   UNL     1       3.684  -1.309  -1.394  0.00  0.00    -0.275 OA
ATOM     14  N   UNL     1       1.933  -0.183  -2.288  0.00  0.00    -0.242 N 
ATOM     15  C   UNL     1       1.325   1.024  -2.229  0.00  0.00    +0.225 C 
ATOM     16  O   UNL     1       0.351   1.365  -2.865  0.00  0.00    -0.275 OA
ATOM     17  C   UNL     1      -0.014   1.209   0.009  0.00  0.00    +0.211 C 
ATOM     18  O   UNL     1       0.002  -0.004   0.002  0.00  0.00    -0.277 OA
ATOM     19  N   UNL     1      -1.106   1.998   0.017  0.00  0.00    -0.286 N 
ATOM     20  H   UNL     1      -2.016   1.663   0.021  0.00  0.00    +0.155 HD
ATOM     21  N   UNL     1       2.045   1.867   1.140  0.00  0.00    +0.394 N 
ATOM     22  H   UNL     1       1.483   1.638   1.969  0.00  0.00    -0.083 HD
ATOM     23  H   UNL     1       2.626   2.690   1.338  0.00  0.00    -0.083 HD
ENDROOT
BRANCH  11  24
ATOM     24  C   UNL     1       4.178   0.697   1.595  0.00  0.00    -0.006 C 
BRANCH  24  25
ATOM     25  C   UNL     1       3.849   0.333   3.044  0.00  0.00    +0.094 C 
BRANCH  25  26
ATOM     26  C   UNL     1       5.118   0.303   3.855  0.00  0.00    +0.210 C 
ATOM     27  O   UNL     1       6.182   0.549   3.326  0.00  0.00    -0.276 OA
ATOM     28  N   UNL     1       5.072   0.003   5.168  0.00  0.00    -0.329 N 
ATOM     29  H   UNL     1       4.221  -0.193   5.591  0.00  0.00    +0.145 HD
ATOM     30  H   UNL     1       5.889  -0.016   5.690  0.00  0.00    +0.145 HD
ENDBRANCH  25  26
ENDBRANCH  24  25
ENDBRANCH  11  24
BRANCH  14  31
ATOM     31  C   UNL     1       1.463  -1.258  -3.166  0.00  0.00    +0.118 C 
BRANCH  31  32
ATOM     32  C   UNL     1       0.447  -2.121  -2.416  0.00  0.00    +0.047 C 
BRANCH  32  33
ATOM     33  C   UNL     1      -0.043  -3.244  -3.332  0.00  0.00    +0.161 C 
BRANCH  33  34
ATOM     34  O   UNL     1      -0.993  -4.050  -2.631  0.00  0.00    -0.383 OA
ATOM     35  C   UNL     1      -1.516  -5.134  -3.402  0.00  0.00    +0.193 C 
ENDBRANCH  33  34
ENDBRANCH  32  33
ENDBRANCH  31  32
ENDBRANCH  14  31
TORSDOF 7
