REMARK  Name = ZINC00149760
REMARK  6 active torsions:
REMARK  status: ('A' for Active; 'I' for Inactive)
REMARK    1  A    between atoms: C_1  and  C_2
REMARK    2  A    between atoms: C_5  and  C_8
REMARK    3  A    between atoms: C_8  and  S_9
REMARK    4  A    between atoms: S_9  and  C_10
REMARK    5  A    between atoms: C_13  and  C_16
REMARK    6  A    between atoms: N_14  and  N_15
REMARK                            x       y       z     vdW  Elec       q    Type
REMARK                         _______ _______ _______ _____ _____    ______ ____
ROOT
ATOM      1  C   UNL     1       1.366   3.863   0.010  0.00  0.00    +0.209 A 
ATOM      2  N   UNL     1       0.186   4.442   0.025  0.00  0.00    -0.121 NA
ATOM      3  N   UNL     1       0.322   5.720   0.030  0.00  0.00    -0.127 NA
ATOM      4  C   UNL     1       1.596   6.035   0.019  0.00  0.00    +0.182 A 
ATOM      5  N   UNL     1       2.304   4.856   0.012  0.00  0.00    -0.224 N 
ENDROOT
BRANCH   4   6
ATOM      6  C   UNL     1       2.163   7.401   0.021  0.00  0.00    +0.021 A 
ATOM      7  C   UNL     1       3.507   7.602  -0.298  0.00  0.00    +0.011 A 
ATOM      8  C   UNL     1       4.028   8.879  -0.301  0.00  0.00    +0.001 A 
ATOM      9  C   UNL     1       3.225   9.958   0.023  0.00  0.00    +0.000 A 
ATOM     10  C   UNL     1       1.894   9.765   0.346  0.00  0.00    +0.001 A 
ATOM     11  C   UNL     1       1.358   8.494   0.346  0.00  0.00    +0.011 A 
ENDBRANCH   4   6
BRANCH   5  12
ATOM     12  N   UNL     1       3.662   4.708   0.004  0.00  0.00    -0.295 N 
ATOM     13  H   UNL     1       4.017   4.676  -0.939  0.00  0.00    +0.163 HD
ATOM     14  H   UNL     1       4.108   5.443   0.533  0.00  0.00    +0.163 HD
ENDBRANCH   5  12
BRANCH   1  15
ATOM     15  S   UNL     1       1.680   2.129  -0.003  0.00  0.00    -0.080 S 
BRANCH  15  16
ATOM     16  C   UNL     1      -0.018   1.503   0.010  0.00  0.00    +0.112 C 
BRANCH  16  21
ATOM     17  C   UNL     1       0.059  -4.275  -0.021  0.00  0.00    +0.044 C 
ATOM     18  C   UNL     1       0.039  -2.768  -0.013  0.00  0.00    -0.050 A 
ATOM     19  C   UNL     1       0.042  -2.084   1.188  0.00  0.00    +0.003 A 
ATOM     20  C   UNL     1       0.023  -0.702   1.195  0.00  0.00    +0.005 A 
ATOM     21  C   UNL     1       0.002  -0.004   0.002  0.00  0.00    -0.037 A 
ATOM     22  C   UNL     1      -0.006  -0.689  -1.199  0.00  0.00    +0.005 A 
ATOM     23  C   UNL     1       0.018  -2.071  -1.206  0.00  0.00    +0.003 A 
ENDBRANCH  16  21
ENDBRANCH  15  16
ENDBRANCH   1  15
TORSDOF 5
