REMARK  Name = ZINC05818913
REMARK  11 active torsions:
REMARK  status: ('A' for Active; 'I' for Inactive)
REMARK    1  A    between atoms: C_1  and  C_2
REMARK    2  A    between atoms: C_2  and  C_3
REMARK    3  A    between atoms: C_3  and  C_4
REMARK    4  A    between atoms: C_3  and  C_5
REMARK    5  A    between atoms: C_3  and  N_40
REMARK    6  A    between atoms: C_6  and  C_7
REMARK    7  A    between atoms: C_6  and  N_40
REMARK    8  A    between atoms: C_7  and  C_9
REMARK    9  A    between atoms: C_7  and  O_21
REMARK   10  A    between atoms: C_11  and  C_17
REMARK   11  A    between atoms: C_12  and  N_16
REMARK                            x       y       z     vdW  Elec       q    Type
REMARK                         _______ _______ _______ _____ _____    ______ ____
ROOT
ATOM      1  C   UNL     1       2.052   1.121   1.219  0.00  0.00    -0.019 A 
ATOM      2  C   UNL     1       2.850   2.024   1.896  0.00  0.00    +0.020 A 
ATOM      3  C   UNL     1       3.550   1.625   3.018  0.00  0.00    +0.077 A 
ATOM      4  C   UNL     1       3.459   0.312   3.461  0.00  0.00    +0.055 A 
ATOM      5  C   UNL     1       2.660  -0.596   2.775  0.00  0.00    +0.062 A 
ATOM      6  C   UNL     1       1.959  -0.188   1.656  0.00  0.00    +0.028 A 
ATOM      7 CL   UNL     1       2.542  -2.238   3.324  0.00  0.00    -0.082 Cl
ENDROOT
BRANCH   3   8
ATOM      8  C   UNL     1       4.415   2.612   3.759  0.00  0.00    +0.419 C 
ATOM      9  F   UNL     1       4.344   3.859   3.128  0.00  0.00    -0.166 F 
ATOM     10  F   UNL     1       3.963   2.731   5.078  0.00  0.00    -0.166 F 
ATOM     11  F   UNL     1       5.740   2.163   3.758  0.00  0.00    -0.166 F 
ENDBRANCH   3   8
BRANCH   4  12
ATOM     12  N   UNL     1       4.168  -0.096   4.594  0.00  0.00    -0.356 N 
ATOM     13  H   UNL     1       4.104  -1.014   4.902  0.00  0.00    +0.142 HD
ATOM     14  H   UNL     1       4.726   0.538   5.071  0.00  0.00    +0.142 HD
ENDBRANCH   4  12
BRANCH   1  15
ATOM     15  C   UNL     1       1.286   1.562  -0.002  0.00  0.00    +0.128 C 
BRANCH  15  16
ATOM     16  O   UNL     1      -0.011   0.963   0.007  0.00  0.00    -0.389 OA
ATOM     17  H   UNL     1       0.002  -0.004   0.002  0.00  0.00    +0.210 HD
ENDBRANCH  15  16
BRANCH  15  18
ATOM     18  C   UNL     1       2.040   1.127  -1.261  0.00  0.00    -0.045 C 
BRANCH  18  19
ATOM     19  N   UNL     1       1.349   1.666  -2.447  0.00  0.00    +0.384 N 
ATOM     20  H   UNL     1       0.388   1.304  -2.474  0.00  0.00    -0.085 HD
ATOM     21  H   UNL     1       1.326   2.691  -2.391  0.00  0.00    -0.085 HD
BRANCH  19  22
ATOM     22  C   UNL     1       2.054   1.262  -3.678  0.00  0.00    -0.074 C 
ATOM     23  C   UNL     1       3.486   1.802  -3.651  0.00  0.00    -0.010 C 
ATOM     24  C   UNL     1       2.087  -0.265  -3.775  0.00  0.00    -0.010 C 
BRANCH  22  26
ATOM     25  C   UNL     1       2.042   1.419  -6.172  0.00  0.00    +0.002 C 
ATOM     26  C   UNL     1       1.316   1.834  -4.890  0.00  0.00    -0.016 C 
ENDBRANCH  22  26
ENDBRANCH  19  22
ENDBRANCH  18  19
ENDBRANCH  15  18
ENDBRANCH   1  15
TORSDOF 8
