REMARK  Name = ZINC13207346
REMARK  3 active torsions:
REMARK  status: ('A' for Active; 'I' for Inactive)
REMARK    1  A    between atoms: C_2  and  S_10
REMARK    2  A    between atoms: S_10  and  C_11
REMARK    3  A    between atoms: C_17  and  N_22
REMARK                            x       y       z     vdW  Elec       q    Type
REMARK                         _______ _______ _______ _____ _____    ______ ____
ROOT
ATOM      1  C   UNL     1       3.912   2.867  -0.169  0.00  0.00    +0.121 A 
ATOM      2  C   UNL     1       5.268   2.538  -0.324  0.00  0.00    +0.148 A 
ATOM      3  N   UNL     1       6.176   3.479  -0.440  0.00  0.00    -0.232 NA
ATOM      4  C   UNL     1       5.808   4.764  -0.411  0.00  0.00    +0.185 A 
ATOM      5  C   UNL     1       4.441   5.097  -0.256  0.00  0.00    +0.149 A 
ATOM      6  N   UNL     1       3.529   4.132  -0.144  0.00  0.00    -0.232 NA
ATOM      7  C   UNL     1       4.083   6.470  -0.229  0.00  0.00    +0.149 A 
ATOM      8  N   UNL     1       5.043   7.374  -0.350  0.00  0.00    -0.198 NA
ATOM      9  C   UNL     1       6.316   7.016  -0.494  0.00  0.00    +0.216 A 
ATOM     10  N   UNL     1       6.703   5.755  -0.525  0.00  0.00    -0.193 NA
ATOM     11  N   UNL     1       7.273   8.006  -0.615  0.00  0.00    -0.327 N 
ATOM     12  H   UNL     1       8.207   7.768  -0.721  0.00  0.00    +0.145 HD
ATOM     13  H   UNL     1       7.011   8.940  -0.595  0.00  0.00    +0.145 HD
ENDROOT
BRANCH   7  14
ATOM     14  N   UNL     1       2.766   6.854  -0.081  0.00  0.00    -0.341 N 
ATOM     15  H   UNL     1       2.535   7.796  -0.064  0.00  0.00    +0.144 HD
ATOM     16  H   UNL     1       2.072   6.182   0.007  0.00  0.00    +0.144 HD
ENDBRANCH   7  14
BRANCH   1  17
ATOM     17  S   UNL     1       2.712   1.586  -0.016  0.00  0.00    -0.067 S 
BRANCH  17  19
ATOM     18  C   UNL     1       0.254   2.606  -0.653  0.00  0.00    +0.038 A 
ATOM     19  C   UNL     1       1.214   2.445   0.337  0.00  0.00    +0.034 A 
ATOM     20  C   UNL     1       0.991   2.962   1.609  0.00  0.00    +0.056 A 
ATOM     21  C   UNL     1      -0.187   3.629   1.885  0.00  0.00    +0.042 A 
ATOM     22  C   UNL     1      -1.139   3.793   0.894  0.00  0.00    +0.061 A 
ATOM     23  C   UNL     1      -0.920   3.280  -0.373  0.00  0.00    +0.060 A 
ATOM     24 CL   UNL     1      -2.120   3.482  -1.611  0.00  0.00    -0.082 Cl
ATOM     25 CL   UNL     1      -2.615   4.638   1.243  0.00  0.00    -0.082 Cl
ATOM     26 CL   UNL     1       2.188   2.762   2.850  0.00  0.00    -0.082 Cl
ENDBRANCH  17  19
ENDBRANCH   1  17
TORSDOF 3
