REMARK  Name = ZINC58887251
REMARK  10 active torsions:
REMARK  status: ('A' for Active; 'I' for Inactive)
REMARK    1  A    between atoms: C_1  and  C_2
REMARK    2  A    between atoms: N_7  and  C_8
REMARK    3  A    between atoms: C_8  and  C_9
REMARK    4  A    between atoms: C_8  and  C_10
REMARK    5  A    between atoms: C_10  and  N_11
REMARK    6  A    between atoms: C_12  and  C_14
REMARK    7  A    between atoms: C_14  and  N_15
REMARK    8  A    between atoms: C_16  and  C_18
REMARK    9  A    between atoms: C_18  and  N_19
REMARK   10  A    between atoms: C_20  and  C_22
REMARK                            x       y       z     vdW  Elec       q    Type
REMARK                         _______ _______ _______ _____ _____    ______ ____
ROOT
ATOM      1  N   UNL     1      -0.778   1.937   0.763  0.00  0.00    -0.316 N 
ATOM      2  C   UNL     1      -1.053   3.210   0.418  0.00  0.00    +0.230 C 
ATOM      3  O   UNL     1      -0.601   4.127   1.071  0.00  0.00    -0.274 OA
ATOM      4  H   UNL     1      -1.079   1.206   0.201  0.00  0.00    +0.149 HD
ENDROOT
BRANCH   1   5
ATOM      5  C   UNL     1      -0.024   1.656   1.988  0.00  0.00    +0.089 C 
BRANCH   5   6
ATOM      6  C   UNL     1       0.049   0.143   2.207  0.00  0.00    -0.054 C 
ATOM      7  C   UNL     1       0.915  -0.153   3.433  0.00  0.00    -0.012 C 
BRANCH   6  14
ATOM      8  C   UNL     1      -0.815  -2.417   1.444  0.00  0.00    -0.013 C 
ATOM      9  C   UNL     1       0.621  -1.952   1.194  0.00  0.00    -0.071 C 
ATOM     10  C   UNL     1       1.161  -2.625  -0.069  0.00  0.00    -0.016 C 
ATOM     11  C   UNL     1       2.599  -2.158  -0.315  0.00  0.00    -0.003 C 
ATOM     12  C   UNL     1       2.618  -0.630  -0.418  0.00  0.00    -0.019 C 
ATOM     13  C   UNL     1       2.023  -0.031   0.859  0.00  0.00    -0.078 C 
ATOM     14  N   UNL     1       0.640  -0.495   1.023  0.00  0.00    +0.384 N 
ATOM     15  H   UNL     1       0.103  -0.246   0.206  0.00  0.00    -0.081 HD
ENDBRANCH   6  14
ENDBRANCH   5   6
ENDBRANCH   1   5
BRANCH   2  16
ATOM     16  C   UNL     1      -1.923   3.495  -0.778  0.00  0.00    +0.200 C 
BRANCH  16  17
ATOM     17  N   UNL     1      -1.971   4.940  -1.014  0.00  0.00    -0.305 N 
ATOM     18  C   UNL     1      -2.695   5.432  -2.039  0.00  0.00    +0.231 C 
ATOM     19  O   UNL     1      -3.306   4.678  -2.767  0.00  0.00    -0.274 OA
ATOM     20  H   UNL     1      -1.483   5.543  -0.432  0.00  0.00    +0.149 HD
BRANCH  18  21
ATOM     21  C   UNL     1      -2.744   6.919  -2.282  0.00  0.00    +0.200 C 
BRANCH  21  22
ATOM     22  N   UNL     1      -3.590   7.196  -3.446  0.00  0.00    -0.307 N 
ATOM     23  C   UNL     1      -3.782   8.466  -3.852  0.00  0.00    +0.210 C 
ATOM     24  O   UNL     1      -3.253   9.380  -3.255  0.00  0.00    -0.276 OA
ATOM     25  C   UNL     1      -4.652   8.752  -5.049  0.00  0.00    +0.109 C 
ATOM     26  H   UNL     1      -4.013   6.465  -3.923  0.00  0.00    +0.149 HD
ENDBRANCH  21  22
ENDBRANCH  18  21
ENDBRANCH  16  17
ENDBRANCH   2  16
TORSDOF 7
