REMARK  Name = ZINC52588344
REMARK  9 active torsions:
REMARK  status: ('A' for Active; 'I' for Inactive)
REMARK    1  A    between atoms: C_1  and  C_2
REMARK    2  A    between atoms: C_7  and  C_9
REMARK    3  A    between atoms: C_7  and  N_23
REMARK    4  A    between atoms: C_9  and  N_10
REMARK    5  A    between atoms: N_13  and  N_14
REMARK    6  A    between atoms: C_15  and  C_17
REMARK    7  A    between atoms: N_19  and  C_20
REMARK    8  A    between atoms: N_23  and  C_24
REMARK    9  A    between atoms: N_23  and  C_25
REMARK                            x       y       z     vdW  Elec       q    Type
REMARK                         _______ _______ _______ _____ _____    ______ ____
ROOT
ATOM      1  N   UNL     1       3.005  -2.111   2.094  0.00  0.00    -0.300 N 
ATOM      2  C   UNL     1       3.967  -2.473   2.966  0.00  0.00    +0.316 C 
ATOM      3  O   UNL     1       3.680  -3.124   3.952  0.00  0.00    -0.251 OA
ATOM      4  N   UNL     1       5.247  -2.115   2.744  0.00  0.00    -0.218 N 
ATOM      5  H   UNL     1       3.234  -1.593   1.307  0.00  0.00    +0.150 HD
ATOM      6  H   UNL     1       5.940  -2.375   3.371  0.00  0.00    +0.174 HD
ENDROOT
BRANCH   4   7
ATOM      7  N   UNL     1       5.578  -1.366   1.607  0.00  0.00    -0.225 N 
ATOM      8  C   UNL     1       6.858  -1.007   1.385  0.00  0.00    +0.315 C 
ATOM      9  O   UNL     1       7.724  -1.333   2.170  0.00  0.00    -0.264 OA
ATOM     10  H   UNL     1       4.885  -1.105   0.980  0.00  0.00    +0.173 HD
BRANCH   8  11
ATOM     11  C   UNL     1       7.210  -0.208   0.172  0.00  0.00    +0.301 C 
ATOM     12  O   UNL     1       6.344   0.118  -0.613  0.00  0.00    -0.265 OA
ATOM     13  N   UNL     1       8.490   0.151  -0.050  0.00  0.00    -0.305 N 
ATOM     14  H   UNL     1       9.183  -0.110   0.578  0.00  0.00    +0.149 HD
BRANCH  13  15
ATOM     15  C   UNL     1       8.836   0.934  -1.238  0.00  0.00    +0.073 C 
ATOM     16  C   UNL     1      10.084   0.520  -2.019  0.00  0.00    +0.024 C 
ATOM     17  C   UNL     1      10.099   1.795  -1.175  0.00  0.00    +0.024 C 
ENDBRANCH  13  15
ENDBRANCH   8  11
ENDBRANCH   4   7
BRANCH   1  18
ATOM     18  C   UNL     1       1.614  -2.501   2.335  0.00  0.00    +0.094 C 
BRANCH  18  24
ATOM     19  C   UNL     1       0.003   1.414  -0.319  0.00  0.00    +0.007 C 
ATOM     20  C   UNL     1      -0.056  -0.108  -0.177  0.00  0.00    -0.015 C 
ATOM     21  C   UNL     1       0.468  -0.761  -1.458  0.00  0.00    +0.003 C 
ATOM     22  C   UNL     1       0.409  -2.284  -1.315  0.00  0.00    -0.001 C 
ATOM     23  C   UNL     1       1.273  -2.719  -0.130  0.00  0.00    -0.010 C 
ATOM     24  C   UNL     1       0.749  -2.066   1.151  0.00  0.00    -0.050 C 
ATOM     25  C   UNL     1       0.808  -0.544   1.008  0.00  0.00    -0.007 C 
BRANCH  24  26
ATOM     26  N   UNL     1      -0.641  -2.483   1.379  0.00  0.00    +0.381 N 
ATOM     27  C   UNL     1      -0.701  -3.946   1.491  0.00  0.00    -0.096 C 
ATOM     28  C   UNL     1      -1.136  -1.876   2.622  0.00  0.00    -0.096 C 
ATOM     29  H   UNL     1      -1.214  -2.181   0.606  0.00  0.00    -0.082 HD
ENDBRANCH  24  26
ENDBRANCH  18  24
ENDBRANCH   1  18
TORSDOF 6
