REMARK  Name = ZINC43250001
REMARK  8 active torsions:
REMARK  status: ('A' for Active; 'I' for Inactive)
REMARK    1  A    between atoms: C_1  and  C_2
REMARK    2  A    between atoms: C_2  and  C_3
REMARK    3  A    between atoms: C_3  and  C_5
REMARK    4  A    between atoms: C_3  and  N_23
REMARK    5  A    between atoms: C_5  and  C_7
REMARK    6  A    between atoms: C_5  and  O_13
REMARK    7  A    between atoms: C_8  and  C_12
REMARK    8  A    between atoms: O_13  and  C_14
REMARK                            x       y       z     vdW  Elec       q    Type
REMARK                         _______ _______ _______ _____ _____    ______ ____
ROOT
ATOM      1  C   UNL     1      -1.417  -2.073   0.128  0.00  0.00    +0.196 C 
ENDROOT
BRANCH   1   2
ATOM      2  C   UNL     1      -2.794  -2.683   0.102  0.00  0.00    +0.031 A 
ATOM      3  C   UNL     1      -3.421  -3.334  -0.908  0.00  0.00    -0.037 A 
ATOM      4  C   UNL     1      -4.700  -3.816  -0.703  0.00  0.00    +0.011 A 
ATOM      5  C   UNL     1      -5.290  -3.623   0.501  0.00  0.00    +0.046 A 
ATOM      6  S   UNL     1      -4.022  -2.742   1.397  0.00  0.00    -0.098 S 
ATOM      7  C   UNL     1      -2.733  -3.530  -2.234  0.00  0.00    +0.045 C 
ENDBRANCH   1   2
BRANCH   1   8
ATOM      8  C   UNL     1      -1.532  -0.549   0.044  0.00  0.00    -0.029 C 
BRANCH   8   9
ATOM      9  N   UNL     1      -2.209  -0.177  -1.205  0.00  0.00    +0.383 N 
ATOM     10  H   UNL     1      -1.676  -0.518  -1.991  0.00  0.00    -0.089 HD
ATOM     11  H   UNL     1      -3.131  -0.586  -1.222  0.00  0.00    -0.089 HD
ATOM     12  H   UNL     1      -2.285   0.827  -1.260  0.00  0.00    -0.089 HD
ENDBRANCH   8   9
BRANCH   8  14
ATOM     13  C   UNL     1      -0.251   1.595   0.113  0.00  0.00    +0.002 C 
ATOM     14  C   UNL     1      -0.133   0.070   0.070  0.00  0.00    -0.016 C 
ENDBRANCH   8  14
ENDBRANCH   1   8
BRANCH   1  15
ATOM     15  O   UNL     1      -0.758  -2.435   1.343  0.00  0.00    -0.485 OA
BRANCH  15  16
ATOM     16  C   UNL     1       0.567  -2.730   1.263  0.00  0.00    +0.125 A 
ATOM     17  C   UNL     1       1.240  -3.207   2.378  0.00  0.00    +0.049 A 
ATOM     18  C   UNL     1       2.587  -3.508   2.299  0.00  0.00    +0.053 A 
ATOM     19  C   UNL     1       3.268  -3.333   1.105  0.00  0.00    +0.166 A 
ATOM     20  C   UNL     1       2.595  -2.854  -0.016  0.00  0.00    +0.170 A 
ATOM     21  C   UNL     1       1.244  -2.559   0.065  0.00  0.00    +0.095 A 
ATOM     22  O   UNL     1       3.478  -2.772  -1.053  0.00  0.00    -0.452 OA
ATOM     23  C   UNL     1       4.785  -2.816  -0.451  0.00  0.00    +0.466 C 
ATOM     24  O   UNL     1       4.574  -3.551   0.769  0.00  0.00    -0.453 OA
ENDBRANCH  15  16
ENDBRANCH   1  15
TORSDOF 6
