REMARK  Name = ZINC39377294
REMARK  2 active torsions:
REMARK  status: ('A' for Active; 'I' for Inactive)
REMARK    1  A    between atoms: C_4  and  N_11
REMARK    2  A    between atoms: C_5  and  N_8
REMARK                            x       y       z     vdW  Elec       q    Type
REMARK                         _______ _______ _______ _____ _____    ______ ____
ROOT
ATOM      1  C   UNL     1      -0.017   1.385   0.010  0.00  0.00    +0.037 A 
ATOM      2  C   UNL     1       1.177   2.077   0.002  0.00  0.00    +0.114 A 
ATOM      3  N   UNL     1       2.331   1.437  -0.013  0.00  0.00    -0.238 NA
ATOM      4  C   UNL     1       2.391   0.114  -0.021  0.00  0.00    +0.148 A 
ATOM      5  C   UNL     1       1.228  -0.648  -0.014  0.00  0.00    +0.179 A 
ATOM      6  C   UNL     1       0.002  -0.004   0.002  0.00  0.00    +0.053 A 
ATOM      7 BR   UNL     1      -1.610  -0.993   0.013  0.00  0.00    -0.048 Br
ENDROOT
BRANCH   5   8
ATOM      8  N   UNL     1       1.299  -2.126  -0.023  0.00  0.00    +0.061 N 
ATOM      9  O   UNL     1       1.338  -2.736   1.020  0.00  0.00    -0.126 OA
ATOM     10  O   UNL     1       1.317  -2.724  -1.074  0.00  0.00    -0.126 OA
ENDBRANCH   5   8
BRANCH   4  11
ATOM     11  N   UNL     1       3.629  -0.519  -0.036  0.00  0.00    -0.341 N 
ATOM     12  H   UNL     1       4.443   0.008  -0.042  0.00  0.00    +0.144 HD
ATOM     13  H   UNL     1       3.678  -1.488  -0.042  0.00  0.00    +0.144 HD
ENDBRANCH   4  11
TORSDOF 2
