REMARK  Name = ZINC41032815
REMARK  5 active torsions:
REMARK  status: ('A' for Active; 'I' for Inactive)
REMARK    1  A    between atoms: C_1  and  O_2
REMARK    2  A    between atoms: O_2  and  C_3
REMARK    3  A    between atoms: C_8  and  C_9
REMARK    4  A    between atoms: C_11  and  C_14
REMARK    5  A    between atoms: C_14  and  N_20
REMARK                            x       y       z     vdW  Elec       q    Type
REMARK                         _______ _______ _______ _____ _____    ______ ____
ROOT
ATOM      1  C   UNL     1      -0.006  -2.831  -0.014  0.00  0.00    +0.206 A 
ATOM      2  N   UNL     1       0.069  -4.174  -0.027  0.00  0.00    -0.192 NA
ATOM      3  C   UNL     1       1.315  -4.551  -0.040  0.00  0.00    +0.216 A 
ATOM      4  O   UNL     1       2.090  -3.458  -0.035  0.00  0.00    -0.339 OA
ATOM      5  N   UNL     1       1.211  -2.344  -0.024  0.00  0.00    -0.056 NA
ENDROOT
BRANCH   1  11
ATOM      6  C   UNL     1      -1.199  -0.637   0.010  0.00  0.00    +0.131 A 
ATOM      7  C   UNL     1      -2.374   0.100   0.019  0.00  0.00    +0.046 A 
ATOM      8  C   UNL     1      -3.595  -0.545   0.028  0.00  0.00    +0.004 A 
ATOM      9  C   UNL     1      -3.655  -1.928   0.027  0.00  0.00    +0.001 A 
ATOM     10  C   UNL     1      -2.494  -2.674   0.018  0.00  0.00    +0.015 A 
ATOM     11  C   UNL     1      -1.257  -2.034   0.003  0.00  0.00    +0.064 A 
BRANCH   6  13
ATOM     12  C   UNL     1      -0.017   1.425   0.010  0.00  0.00    +0.277 C 
ATOM     13  O   UNL     1       0.002  -0.004   0.002  0.00  0.00    -0.494 OA
ENDBRANCH   6  13
ENDBRANCH   1  11
BRANCH   3  14
ATOM     14  C   UNL     1       1.804  -5.976  -0.057  0.00  0.00    +0.010 C 
ATOM     15  C   UNL     1       1.296  -6.704   1.190  0.00  0.00    -0.004 C 
ATOM     16  C   UNL     1       1.823  -6.000   2.442  0.00  0.00    -0.001 C 
ATOM     17  C   UNL     1       3.353  -6.014   2.430  0.00  0.00    -0.000 C 
ATOM     18  C   UNL     1       3.860  -5.286   1.184  0.00  0.00    -0.001 C 
ATOM     19  C   UNL     1       3.334  -5.991  -0.068  0.00  0.00    -0.004 C 
BRANCH  14  20
ATOM     20  N   UNL     1       1.299  -6.653  -1.258  0.00  0.00    +0.388 N 
ATOM     21  H   UNL     1       1.633  -6.173  -2.080  0.00  0.00    -0.089 HD
ATOM     22  H   UNL     1       1.626  -7.608  -1.270  0.00  0.00    -0.089 HD
ATOM     23  H   UNL     1       0.290  -6.644  -1.251  0.00  0.00    -0.089 HD
ENDBRANCH  14  20
ENDBRANCH   3  14
TORSDOF 4
