REMARK  Name = ZINC66643801
REMARK  6 active torsions:
REMARK  status: ('A' for Active; 'I' for Inactive)
REMARK    1  A    between atoms: C_1  and  C_2
REMARK    2  A    between atoms: C_5  and  C_12
REMARK    3  A    between atoms: C_8  and  C_10
REMARK    4  A    between atoms: C_8  and  C_11
REMARK    5  A    between atoms: C_12  and  C_13
REMARK    6  A    between atoms: C_19  and  C_22
REMARK                            x       y       z     vdW  Elec       q    Type
REMARK                         _______ _______ _______ _____ _____    ______ ____
ROOT
ATOM      1  C   UNL     1       0.660  -2.126  -3.742  0.00  0.00    +0.216 C 
ATOM      2  O   UNL     1      -0.378  -1.511  -3.615  0.00  0.00    -0.276 OA
ATOM      3  N   UNL     1       1.101  -2.457  -4.971  0.00  0.00    -0.296 N 
ATOM      4  C   UNL     1       2.354  -3.208  -5.150  0.00  0.00    +0.136 C 
ATOM      5  C   UNL     1       2.075  -4.402  -6.070  0.00  0.00    +0.180 C 
ATOM      6  O   UNL     1       1.438  -3.938  -7.263  0.00  0.00    -0.364 OA
ATOM      7  C   UNL     1       0.164  -3.327  -7.046  0.00  0.00    +0.221 C 
ATOM      8  C   UNL     1       0.342  -2.083  -6.175  0.00  0.00    +0.149 C 
ENDROOT
BRANCH   7   9
ATOM      9  C   UNL     1      -0.439  -2.935  -8.370  0.00  0.00    +0.241 C 
ATOM     10  O   UNL     1       0.200  -3.074  -9.392  0.00  0.00    -0.273 OA
ATOM     11  N   UNL     1      -1.688  -2.430  -8.420  0.00  0.00    -0.327 N 
ATOM     12  H   UNL     1      -2.199  -2.319  -7.603  0.00  0.00    +0.145 HD
ATOM     13  H   UNL     1      -2.075  -2.178  -9.272  0.00  0.00    +0.145 HD
ENDBRANCH   7   9
BRANCH   1  14
ATOM     14  C   UNL     1       1.455  -2.521  -2.524  0.00  0.00    +0.099 C 
BRANCH  14  18
ATOM     15  C   UNL     1      -0.019   1.526   0.010  0.00  0.00    +0.007 C 
ATOM     16  C   UNL     1       0.002  -0.004   0.002  0.00  0.00    -0.013 C 
ATOM     17  C   UNL     1       0.718  -0.497  -1.257  0.00  0.00    +0.007 C 
ATOM     18  C   UNL     1       0.739  -2.027  -1.265  0.00  0.00    -0.002 C 
ATOM     19  C   UNL     1       1.479  -2.534  -0.026  0.00  0.00    +0.010 C 
ATOM     20  C   UNL     1       0.763  -2.041   1.233  0.00  0.00    -0.034 C 
ATOM     21  C   UNL     1       0.742  -0.511   1.242  0.00  0.00    +0.009 C 
ATOM     22  C   UNL     1      -0.673  -2.570   1.244  0.00  0.00    +0.011 C 
ATOM     23  C   UNL     1       1.503  -2.548   2.473  0.00  0.00    +0.011 C 
ENDBRANCH  14  18
ENDBRANCH   1  14
TORSDOF 3
