REMARK  Name = ZINC40701369
REMARK  6 active torsions:
REMARK  status: ('A' for Active; 'I' for Inactive)
REMARK    1  A    between atoms: C_1  and  C_2
REMARK    2  A    between atoms: C_5  and  S_8
REMARK    3  A    between atoms: S_8  and  C_9
REMARK    4  A    between atoms: C_10  and  N_23
REMARK    5  A    between atoms: C_11  and  N_15
REMARK    6  A    between atoms: C_18  and  C_22
REMARK                            x       y       z     vdW  Elec       q    Type
REMARK                         _______ _______ _______ _____ _____    ______ ____
ROOT
ATOM      1  C   UNL     1       0.212  -4.968   1.677  0.00  0.00    +0.127 A 
ATOM      2  C   UNL     1       0.380  -6.302   2.057  0.00  0.00    +0.098 A 
ATOM      3  C   UNL     1       0.510  -6.589   3.416  0.00  0.00    +0.149 A 
ATOM      4  N   UNL     1       0.469  -5.589   4.293  0.00  0.00    -0.219 NA
ATOM      5  C   UNL     1       0.308  -4.343   3.893  0.00  0.00    +0.224 A 
ATOM      6  N   UNL     1       0.187  -4.028   2.620  0.00  0.00    -0.227 NA
ENDROOT
BRANCH   3   7
ATOM      7  N   UNL     1       0.680  -7.901   3.848  0.00  0.00    -0.283 N 
ATOM      8  C   UNL     1       0.699  -8.188   5.210  0.00  0.00    +0.124 A 
ATOM      9  C   UNL     1       0.759  -9.511   5.634  0.00  0.00    +0.047 A 
ATOM     10  C   UNL     1       0.778  -9.782   6.990  0.00  0.00    -0.046 A 
ATOM     11  C   UNL     1       0.736  -8.716   7.880  0.00  0.00    +0.023 A 
ATOM     12  C   UNL     1       0.677  -7.428   7.389  0.00  0.00    +0.113 A 
ATOM     13  N   UNL     1       0.665  -7.199   6.089  0.00  0.00    -0.240 NA
ATOM     14  C   UNL     1       0.843 -11.202   7.492  0.00  0.00    +0.044 C 
ATOM     15  H   UNL     1       0.784  -8.615   3.200  0.00  0.00    +0.155 HD
ENDBRANCH   3   7
BRANCH   2  16
ATOM     16  N   UNL     1       0.418  -7.326   1.097  0.00  0.00    -0.353 N 
ATOM     17  H   UNL     1       0.326  -7.111   0.155  0.00  0.00    +0.142 HD
ATOM     18  H   UNL     1       0.535  -8.247   1.375  0.00  0.00    +0.142 HD
ENDBRANCH   2  16
BRANCH   1  19
ATOM     19  S   UNL     1       0.042  -4.536  -0.022  0.00  0.00    -0.068 S 
BRANCH  19  24
ATOM     20  C   UNL     1      -0.080   1.499   0.009  0.00  0.00    +0.044 C 
ATOM     21  C   UNL     1      -0.049  -0.008   0.002  0.00  0.00    -0.050 A 
ATOM     22  C   UNL     1       1.163  -0.673  -0.010  0.00  0.00    +0.004 A 
ATOM     23  C   UNL     1       1.195  -2.054  -0.018  0.00  0.00    +0.015 A 
ATOM     24  C   UNL     1       0.007  -2.774  -0.013  0.00  0.00    +0.014 A 
ATOM     25  C   UNL     1      -1.210  -2.102  -0.000  0.00  0.00    +0.015 A 
ATOM     26  C   UNL     1      -1.234  -0.722   0.012  0.00  0.00    +0.004 A 
ENDBRANCH  19  24
ENDBRANCH   1  19
TORSDOF 4
