REMARK  Name = ZINC40372667
REMARK  6 active torsions:
REMARK  status: ('A' for Active; 'I' for Inactive)
REMARK    1  A    between atoms: C_1  and  C_2
REMARK    2  A    between atoms: C_2  and  C_3
REMARK    3  A    between atoms: C_6  and  C_9
REMARK    4  A    between atoms: C_6  and  N_13
REMARK    5  A    between atoms: N_10  and  O_11
REMARK    6  A    between atoms: C_14  and  C_16
REMARK                            x       y       z     vdW  Elec       q    Type
REMARK                         _______ _______ _______ _____ _____    ______ ____
ROOT
ATOM      1  C   UNL     1      -1.382  -0.577  -0.033  0.00  0.00    -0.011 C 
ATOM      2  C   UNL     1      -2.088  -0.156   1.257  0.00  0.00    +0.006 C 
ATOM      3  C   UNL     1      -1.341  -0.736   2.460  0.00  0.00    +0.034 C 
ATOM      4  C   UNL     1      -1.325  -2.263   2.362  0.00  0.00    +0.093 C 
ATOM      5  C   UNL     1      -0.619  -2.684   1.072  0.00  0.00    +0.034 C 
ATOM      6  C   UNL     1      -1.365  -2.104  -0.131  0.00  0.00    +0.006 C 
ENDROOT
BRANCH   4   7
ATOM      7  C   UNL     1      -0.590  -2.834   3.547  0.00  0.00    +0.155 C 
ATOM      8  N   UNL     1      -0.010  -2.045   4.389  0.00  0.00    -0.075 NA
ATOM      9  N   UNL     1      -0.536  -4.198   3.732  0.00  0.00    -0.342 N 
ATOM     10  H   UNL     1      -0.909  -4.793   3.063  0.00  0.00    +0.144 HD
ATOM     11  H   UNL     1      -0.127  -4.563   4.532  0.00  0.00    +0.144 HD
BRANCH   8  12
ATOM     12  O   UNL     1       0.681  -2.582   5.502  0.00  0.00    -0.408 OA
ATOM     13  H   UNL     1       1.083  -1.914   6.075  0.00  0.00    +0.328 HD
ENDBRANCH   8  12
ENDBRANCH   4   7
BRANCH   4  14
ATOM     14  N   UNL     1      -2.701  -2.767   2.352  0.00  0.00    -0.301 N 
ATOM     15  C   UNL     1      -3.541  -2.451   3.357  0.00  0.00    +0.243 C 
ATOM     16  O   UNL     1      -3.132  -1.836   4.319  0.00  0.00    -0.273 OA
ATOM     17  H   UNL     1      -3.007  -3.327   1.622  0.00  0.00    +0.150 HD
BRANCH  15  18
ATOM     18  C   UNL     1      -4.989  -2.862   3.286  0.00  0.00    +0.204 C 
ATOM     19  C   UNL     1      -5.685  -2.131   2.118  0.00  0.00    +0.043 C 
ATOM     20  C   UNL     1      -7.078  -1.799   2.720  0.00  0.00    +0.031 C 
ATOM     21  C   UNL     1      -6.705  -1.543   4.202  0.00  0.00    +0.161 C 
ATOM     22  O   UNL     1      -5.661  -2.488   4.495  0.00  0.00    -0.367 OA
ENDBRANCH  15  18
ENDBRANCH   4  14
BRANCH   1  24
ATOM     23  C   UNL     1       0.039   1.478  -0.051  0.00  0.00    +0.004 C 
ATOM     24  C   UNL     1       0.055  -0.052  -0.023  0.00  0.00    -0.000 C 
ENDBRANCH   1  24
TORSDOF 5
