REMARK  Name = ZINC44466740
REMARK  6 active torsions:
REMARK  status: ('A' for Active; 'I' for Inactive)
REMARK    1  A    between atoms: C_5  and  O_13
REMARK    2  A    between atoms: C_6  and  C_7
REMARK    3  A    between atoms: C_7  and  CA_8
REMARK    4  A    between atoms: CA_8  and  C_10
REMARK    5  A    between atoms: CA_8  and  N_12
REMARK    6  A    between atoms: C_10  and  O_11
REMARK                            x       y       z     vdW  Elec       q    Type
REMARK                         _______ _______ _______ _____ _____    ______ ____
ROOT
ATOM      1  C   UNL     1      -0.017   1.377   0.010  0.00  0.00    +0.021 A 
ATOM      2  C   UNL     1       1.171   2.086   0.002  0.00  0.00    +0.015 A 
ATOM      3  C   UNL     1       2.380   1.415  -0.013  0.00  0.00    +0.032 A 
ATOM      4  C   UNL     1       2.404   0.033  -0.021  0.00  0.00    +0.056 A 
ATOM      5  C   UNL     1       1.213  -0.680  -0.013  0.00  0.00    +0.133 A 
ATOM      6  C   UNL     1       0.002  -0.004   0.002  0.00  0.00    -0.005 A 
ATOM      7  I   UNL     1       4.235  -0.984  -0.044  0.00  0.00    -0.040 I 
ATOM      8  I   UNL     1       1.139   4.181   0.013  0.00  0.00    -0.044 I 
ENDROOT
BRANCH   5   9
ATOM      9  O   UNL     1       1.234  -2.039  -0.021  0.00  0.00    -0.505 OA
ATOM     10  H   UNL     1       1.248  -2.438   0.860  0.00  0.00    +0.292 HD
ENDBRANCH   5   9
BRANCH   6  11
ATOM     11  C   UNL     1      -1.292  -0.776   0.011  0.00  0.00    +0.025 C 
BRANCH  11  12
ATOM     12  CA  UNL     1      -1.652  -1.153   1.449  0.00  0.00    -0.045 C 
BRANCH  12  13
ATOM     13  N   UNL     1      -0.643  -2.080   1.979  0.00  0.00    +0.382 N 
ATOM     14  H1  UNL     1       0.263  -1.636   1.964  0.00  0.00    -0.090 HD
ATOM     15  H2  UNL     1      -0.880  -2.328   2.928  0.00  0.00    -0.090 HD
ATOM     16  H3  UNL     1      -0.619  -2.912   1.409  0.00  0.00    -0.090 HD
ENDBRANCH  12  13
BRANCH  12  17
ATOM     17  C   UNL     1      -3.025  -1.826   1.472  0.00  0.00    +0.140 C 
BRANCH  17  18
ATOM     18  O   UNL     1      -3.413  -2.073   2.825  0.00  0.00    -0.397 OA
ATOM     19  H   UNL     1      -4.276  -2.499   2.916  0.00  0.00    +0.209 HD
ENDBRANCH  17  18
ENDBRANCH  12  17
ENDBRANCH  11  12
ENDBRANCH   6  11
TORSDOF 6
