REMARK  Name = ZINC61864842
REMARK  13 active torsions:
REMARK  status: ('A' for Active; 'I' for Inactive)
REMARK    1  A    between atoms: C_1  and  C_2
REMARK    2  A    between atoms: C_2  and  C_3
REMARK    3  A    between atoms: C_2  and  C_4
REMARK    4  A    between atoms: C_4  and  C_5
REMARK    5  A    between atoms: C_4  and  N_21
REMARK    6  A    between atoms: C_5  and  N_6
REMARK    7  A    between atoms: N_9  and  N_10
REMARK    8  A    between atoms: C_11  and  C_13
REMARK    9  A    between atoms: C_16  and  C_19
REMARK   10  A    between atoms: N_21  and  C_22
REMARK   11  A    between atoms: N_21  and  C_25
REMARK   12  A    between atoms: C_22  and  C_23
REMARK   13  A    between atoms: C_25  and  C_26
REMARK                            x       y       z     vdW  Elec       q    Type
REMARK                         _______ _______ _______ _____ _____    ______ ____
ROOT
ATOM      1  N   UNL     1      -2.328  -2.377   0.102  0.00  0.00    -0.300 N 
ATOM      2  C   UNL     1      -2.393  -3.670   0.475  0.00  0.00    +0.316 C 
ATOM      3  O   UNL     1      -1.380  -4.265   0.788  0.00  0.00    -0.251 OA
ATOM      4  N   UNL     1      -3.582  -4.305   0.501  0.00  0.00    -0.218 N 
ATOM      5  H   UNL     1      -3.136  -1.903  -0.148  0.00  0.00    +0.150 HD
ATOM      6  H   UNL     1      -3.629  -5.236   0.770  0.00  0.00    +0.174 HD
ENDROOT
BRANCH   4   7
ATOM      7  N   UNL     1      -4.750  -3.620   0.141  0.00  0.00    -0.229 N 
ATOM      8  C   UNL     1      -5.938  -4.254   0.167  0.00  0.00    +0.260 C 
ATOM      9  O   UNL     1      -5.998  -5.420   0.504  0.00  0.00    -0.269 OA
ATOM     10  H   UNL     1      -4.702  -2.689  -0.128  0.00  0.00    +0.173 HD
BRANCH   8  11
ATOM     11  C   UNL     1      -7.171  -3.531  -0.214  0.00  0.00    +0.038 A 
ATOM     12  C   UNL     1      -7.102  -2.192  -0.606  0.00  0.00    +0.014 A 
ATOM     13  C   UNL     1      -8.250  -1.519  -0.961  0.00  0.00    +0.019 A 
ATOM     14  C   UNL     1      -9.483  -2.174  -0.928  0.00  0.00    +0.052 A 
ATOM     15  C   UNL     1      -9.552  -3.513  -0.535  0.00  0.00    +0.019 A 
ATOM     16  C   UNL     1      -8.403  -4.188  -0.186  0.00  0.00    +0.014 A 
BRANCH  14  17
ATOM     17  C   UNL     1     -10.677  -1.474  -1.296  0.00  0.00    +0.099 C 
ATOM     18  N   UNL     1     -11.623  -0.918  -1.588  0.00  0.00    -0.191 NA
ENDBRANCH  14  17
ENDBRANCH   8  11
ENDBRANCH   4   7
BRANCH   1  19
ATOM     19  C   UNL     1      -1.035  -1.688   0.073  0.00  0.00    +0.091 C 
BRANCH  19  20
ATOM     20  C   UNL     1      -1.207  -0.308  -0.567  0.00  0.00    -0.048 C 
BRANCH  20  22
ATOM     21  C   UNL     1      -0.139   1.922  -0.924  0.00  0.00    +0.005 C 
ATOM     22  C   UNL     1       0.045   0.533  -0.309  0.00  0.00    -0.029 C 
ATOM     23  C   UNL     1       0.266   0.669   1.199  0.00  0.00    +0.005 C 
ENDBRANCH  20  22
BRANCH  20  24
ATOM     24  N   UNL     1      -1.405  -0.461  -2.014  0.00  0.00    +0.387 N 
ATOM     25  H   UNL     1      -1.408   0.449  -2.451  0.00  0.00    -0.080 HD
BRANCH  24  26
ATOM     26  C   UNL     1      -0.315  -1.269  -2.575  0.00  0.00    -0.051 C 
BRANCH  26  27
ATOM     27  C   UNL     1      -0.435  -1.302  -4.077  0.00  0.00    -0.053 C 
ATOM     28  C   UNL     1       0.577  -0.931  -4.823  0.00  0.00    +0.002 C 
ENDBRANCH  26  27
ENDBRANCH  24  26
BRANCH  24  29
ATOM     29  C   UNL     1      -2.689  -1.129  -2.265  0.00  0.00    -0.051 C 
BRANCH  29  30
ATOM     30  C   UNL     1      -3.814  -0.258  -1.766  0.00  0.00    -0.053 C 
ATOM     31  C   UNL     1      -4.773   0.104  -2.582  0.00  0.00    +0.002 C 
ENDBRANCH  29  30
ENDBRANCH  24  29
ENDBRANCH  20  24
ENDBRANCH  19  20
ENDBRANCH   1  19
TORSDOF 11
