REMARK  Name = ZINC14589505
REMARK  6 active torsions:
REMARK  status: ('A' for Active; 'I' for Inactive)
REMARK    1  A    between atoms: C_1  and  C_2
REMARK    2  A    between atoms: C_4  and  O_19
REMARK    3  A    between atoms: C_10  and  O_18
REMARK    4  A    between atoms: C_11  and  O_17
REMARK    5  A    between atoms: C_13  and  C_16
REMARK    6  A    between atoms: O_19  and  C_20
REMARK                            x       y       z     vdW  Elec       q    Type
REMARK                         _______ _______ _______ _____ _____    ______ ____
ROOT
ATOM      1  C   UNL     1      -0.860   1.675   6.060  0.00  0.00    +0.048 C 
ATOM      2  C   UNL     1      -0.207   1.225   4.779  0.00  0.00    -0.001 A 
ATOM      3  C   UNL     1      -0.744   1.599   3.560  0.00  0.00    +0.052 A 
ATOM      4  C   UNL     1      -0.148   1.182   2.380  0.00  0.00    +0.124 A 
ATOM      5  C   UNL     1       0.995   0.397   2.420  0.00  0.00    +0.095 A 
ATOM      6  C   UNL     1       1.537   0.026   3.638  0.00  0.00    +0.174 A 
ATOM      7  C   UNL     1       0.934   0.442   4.822  0.00  0.00    +0.174 A 
ATOM      8  O   UNL     1       1.466   0.078   6.021  0.00  0.00    -0.445 OA
ATOM      9  C   UNL     1       2.587  -0.692   6.061  0.00  0.00    +0.216 A 
ATOM     10  C   UNL     1       3.131  -1.064   7.283  0.00  0.00    +0.205 A 
ATOM     11  C   UNL     1       4.277  -1.852   7.320  0.00  0.00    +0.162 A 
ATOM     12  C   UNL     1       4.873  -2.263   6.139  0.00  0.00    +0.056 A 
ATOM     13  C   UNL     1       4.331  -1.891   4.921  0.00  0.00    -0.001 A 
ATOM     14  C   UNL     1       3.190  -1.107   4.879  0.00  0.00    +0.177 A 
ATOM     15  O   UNL     1       2.658  -0.744   3.680  0.00  0.00    -0.448 OA
ATOM     16  C   UNL     1       4.983  -2.341   3.639  0.00  0.00    +0.048 C 
ENDROOT
BRANCH  11  17
ATOM     17  O   UNL     1       4.812  -2.218   8.516  0.00  0.00    -0.503 OA
ATOM     18  H   UNL     1       5.467  -1.596   8.861  0.00  0.00    +0.292 HD
ENDBRANCH  11  17
BRANCH  10  19
ATOM     19  O   UNL     1       2.544  -0.659   8.442  0.00  0.00    -0.501 OA
ATOM     20  H   UNL     1       1.874  -1.271   8.778  0.00  0.00    +0.292 HD
ENDBRANCH  10  19
BRANCH   4  21
ATOM     21  O   UNL     1      -0.682   1.547   1.184  0.00  0.00    -0.495 OA
ATOM     22  C   UNL     1      -0.013   1.086   0.008  0.00  0.00    +0.277 C 
ENDBRANCH   4  21
TORSDOF 3
