REMARK  Name = ZINC04794739
REMARK  6 active torsions:
REMARK  status: ('A' for Active; 'I' for Inactive)
REMARK    1  A    between atoms: C_1  and  O_2
REMARK    2  A    between atoms: O_2  and  C_3
REMARK    3  A    between atoms: C_9  and  C_14
REMARK    4  A    between atoms: C_14  and  C_16
REMARK    5  A    between atoms: C_14  and  O_28
REMARK    6  A    between atoms: C_24  and  C_26
REMARK                            x       y       z     vdW  Elec       q    Type
REMARK                         _______ _______ _______ _____ _____    ______ ____
ROOT
ATOM      1  C   UNL     1      -2.365   1.361   0.621  0.00  0.00    +0.132 C 
ENDROOT
BRANCH   1   8
ATOM      2  C   UNL     1      -2.289   5.591  -0.021  0.00  0.00    +0.121 A 
ATOM      3  C   UNL     1      -1.096   6.312   0.094  0.00  0.00    +0.048 A 
ATOM      4  C   UNL     1       0.070   5.691   0.415  0.00  0.00    +0.033 A 
ATOM      5  C   UNL     1       0.084   4.302   0.637  0.00  0.00    +0.092 A 
ATOM      6  C   UNL     1      -1.125   3.571   0.521  0.00  0.00    +0.011 A 
ATOM      7  C   UNL     1      -2.312   4.241   0.188  0.00  0.00    +0.056 A 
ATOM      8  C   UNL     1      -1.106   2.181   0.739  0.00  0.00    -0.010 A 
ATOM      9  C   UNL     1       0.085   1.595   1.064  0.00  0.00    +0.028 A 
ATOM     10  C   UNL     1       1.237   2.371   1.162  0.00  0.00    +0.134 A 
ATOM     11  N   UNL     1       1.217   3.666   0.954  0.00  0.00    -0.139 N 
ATOM     12  O   UNL     1       2.419   4.406   1.067  0.00  0.00    -0.164 OA
BRANCH   2  14
ATOM     13  C   UNL     1      -3.350   7.652  -0.548  0.00  0.00    +0.277 C 
ATOM     14  O   UNL     1      -3.438   6.241  -0.343  0.00  0.00    -0.495 OA
ENDBRANCH   2  14
ENDBRANCH   1   8
BRANCH   1  15
ATOM     15  C   UNL     1      -2.964   1.143   2.012  0.00  0.00    -0.035 C 
ATOM     16  C   UNL     1      -3.648   2.431   2.480  0.00  0.00    -0.009 C 
ATOM     17  C   UNL     1      -5.134   2.139   2.729  0.00  0.00    -0.009 C 
ATOM     18  C   UNL     1      -5.245   1.037   3.790  0.00  0.00    -0.015 C 
ATOM     19  C   UNL     1      -4.517  -0.212   3.285  0.00  0.00    -0.078 C 
ATOM     20  C   UNL     1      -5.014   0.361   0.985  0.00  0.00    -0.071 C 
ATOM     21  C   UNL     1      -5.756   1.627   1.424  0.00  0.00    -0.003 C 
ATOM     22  N   UNL     1      -3.939   0.034   1.946  0.00  0.00    +0.384 N 
ATOM     23  H   UNL     1      -3.457  -0.816   1.630  0.00  0.00    -0.081 HD
BRANCH  21  24
ATOM     24  C   UNL     1      -5.633   2.683   0.356  0.00  0.00    -0.033 C 
ATOM     25  C   UNL     1      -6.708   3.267  -0.115  0.00  0.00    +0.004 C 
ENDBRANCH  21  24
ENDBRANCH   1  15
BRANCH   1  26
ATOM     26  O   UNL     1      -2.056   0.096   0.032  0.00  0.00    -0.389 OA
ATOM     27  H   UNL     1      -1.495  -0.468   0.582  0.00  0.00    +0.210 HD
ENDBRANCH   1  26
TORSDOF 5
