REMARK  Name = ZINC36792681
REMARK  5 active torsions:
REMARK  status: ('A' for Active; 'I' for Inactive)
REMARK    1  A    between atoms: C_1  and  C_2
REMARK    2  A    between atoms: C_5  and  C_10
REMARK    3  A    between atoms: C_10  and  C_11
REMARK    4  A    between atoms: C_18  and  C_20
REMARK    5  A    between atoms: C_20  and  O_21
REMARK                            x       y       z     vdW  Elec       q    Type
REMARK                         _______ _______ _______ _____ _____    ______ ____
ROOT
ATOM      1  C   UNL     1      -1.392  -3.364  -3.234  0.00  0.00    +0.222 C 
ATOM      2  O   UNL     1      -2.314  -3.216  -2.460  0.00  0.00    -0.275 OA
ATOM      3  N   UNL     1      -1.635  -3.518  -4.550  0.00  0.00    -0.296 N 
ATOM      4  C   UNL     1      -0.527  -3.580  -5.514  0.00  0.00    +0.108 C 
ATOM      5  C   UNL     1      -0.673  -4.854  -6.352  0.00  0.00    +0.019 C 
ATOM      6  C   UNL     1      -2.064  -4.882  -6.990  0.00  0.00    +0.003 C 
ATOM      7  C   UNL     1      -3.131  -4.901  -5.893  0.00  0.00    +0.025 C 
ATOM      8  C   UNL     1      -3.012  -3.634  -5.049  0.00  0.00    +0.101 C 
ENDROOT
BRANCH   1   9
ATOM      9  C   UNL     1       0.026  -3.374  -2.723  0.00  0.00    +0.150 C 
BRANCH   9  14
ATOM     10  C   UNL     1      -0.143   1.718  -0.130  0.00  0.00    +0.067 C 
ATOM     11  C   UNL     1      -0.091   0.213  -0.095  0.00  0.00    +0.058 A 
ATOM     12  C   UNL     1      -0.066  -0.597  -1.166  0.00  0.00    +0.116 A 
ATOM     13  N   UNL     1      -0.020  -1.910  -0.704  0.00  0.00    -0.297 N 
ATOM     14  C   UNL     1       0.022  -3.184  -1.228  0.00  0.00    +0.041 A 
ATOM     15  C   UNL     1       0.060  -4.249  -0.428  0.00  0.00    +0.070 A 
ATOM     16  S   UNL     1       0.038  -3.496   1.191  0.00  0.00    -0.057 S 
ATOM     17  C   UNL     1      -0.021  -1.800   0.661  0.00  0.00    +0.178 A 
ATOM     18  N   UNL     1      -0.058  -0.547   1.011  0.00  0.00    -0.227 NA
ENDBRANCH   9  14
ENDBRANCH   1   9
BRANCH   8  19
ATOM     19  C   UNL     1      -3.980  -3.715  -3.867  0.00  0.00    +0.178 C 
BRANCH  19  20
ATOM     20  O   UNL     1      -3.700  -4.889  -3.102  0.00  0.00    -0.393 OA
ATOM     21  H   UNL     1      -4.278  -5.005  -2.335  0.00  0.00    +0.209 HD
ENDBRANCH  19  20
ENDBRANCH   8  19
TORSDOF 4
