REMARK  Name = ZINC00176919
REMARK  3 active torsions:
REMARK  status: ('A' for Active; 'I' for Inactive)
REMARK    1  A    between atoms: C_3  and  C_6
REMARK    2  A    between atoms: C_9  and  C_11
REMARK    3  A    between atoms: C_14  and  N_17
REMARK                            x       y       z     vdW  Elec       q    Type
REMARK                         _______ _______ _______ _____ _____    ______ ____
ROOT
ATOM      1  C   UNL     1       1.250  -0.424  -0.012  0.00  0.00    +0.284 A 
ATOM      2  N   UNL     1       0.002  -0.004   0.002  0.00  0.00    -0.104 NA
ATOM      3  N   UNL     1      -0.015   1.282   0.009  0.00  0.00    -0.107 NA
ATOM      4  C   UNL     1       1.218   1.737  -0.000  0.00  0.00    +0.249 A 
ATOM      5  O   UNL     1       2.043   0.669  -0.014  0.00  0.00    -0.413 OA
ENDROOT
BRANCH   4   6
ATOM      6  C   UNL     1       1.626   3.155   0.003  0.00  0.00    +0.039 A 
ATOM      7  C   UNL     1       2.981   3.494  -0.003  0.00  0.00    +0.015 A 
ATOM      8  C   UNL     1       3.358   4.819  -0.005  0.00  0.00    +0.023 A 
ATOM      9  C   UNL     1       2.392   5.819   0.009  0.00  0.00    +0.025 A 
ATOM     10  C   UNL     1       1.041   5.485   0.020  0.00  0.00    +0.023 A 
ATOM     11  C   UNL     1       0.657   4.162   0.017  0.00  0.00    +0.015 A 
BRANCH   9  12
ATOM     12  N   UNL     1       2.777   7.159   0.013  0.00  0.00    -0.358 N 
ATOM     13  H   UNL     1       2.103   7.857   0.023  0.00  0.00    +0.142 HD
ATOM     14  H   UNL     1       3.718   7.393   0.006  0.00  0.00    +0.142 HD
ENDBRANCH   9  12
ENDBRANCH   4   6
BRANCH   1  17
ATOM     15  C   UNL     1       1.735  -4.046  -0.037  0.00  0.00    +0.042 A 
ATOM     16  C   UNL     1       0.889  -2.922  -0.022  0.00  0.00    +0.055 A 
ATOM     17  C   UNL     1       1.696  -1.823  -0.024  0.00  0.00    +0.191 A 
ATOM     18  O   UNL     1       2.977  -2.245  -0.045  0.00  0.00    -0.458 OA
ATOM     19  C   UNL     1       3.003  -3.588  -0.048  0.00  0.00    +0.196 A 
ENDBRANCH   1  17
TORSDOF 3
