REMARK  Name = ZINC64376060
REMARK  8 active torsions:
REMARK  status: ('A' for Active; 'I' for Inactive)
REMARK    1  A    between atoms: C_1  and  C_2
REMARK    2  A    between atoms: C_5  and  S_7
REMARK    3  A    between atoms: S_7  and  N_10
REMARK    4  A    between atoms: N_10  and  N_11
REMARK    5  A    between atoms: N_14  and  C_15
REMARK    6  A    between atoms: C_15  and  C_16
REMARK    7  A    between atoms: C_16  and  C_17
REMARK    8  A    between atoms: C_17  and  N_18
REMARK                            x       y       z     vdW  Elec       q    Type
REMARK                         _______ _______ _______ _____ _____    ______ ____
ROOT
ATOM      1  N   UNL     1       2.146  -4.022  -2.462  0.00  0.00    -0.216 N 
ATOM      2  C   UNL     1       3.127  -4.653  -3.138  0.00  0.00    +0.315 C 
ATOM      3  O   UNL     1       3.861  -4.022  -3.874  0.00  0.00    -0.251 OA
ATOM      4  N   UNL     1       3.293  -5.983  -2.998  0.00  0.00    -0.298 N 
ATOM      5  H   UNL     1       2.026  -3.064  -2.563  0.00  0.00    +0.172 HD
ATOM      6  H   UNL     1       2.708  -6.486  -2.411  0.00  0.00    +0.150 HD
ENDROOT
BRANCH   1   7
ATOM      7  N   UNL     1       1.300  -4.748  -1.614  0.00  0.00    -0.106 NA
ATOM      8  H   UNL     1       0.812  -5.514  -1.956  0.00  0.00    +0.172 HD
BRANCH   7   9
ATOM      9  S   UNL     1       1.134  -4.300  -0.029  0.00  0.00    +0.080 S 
ATOM     10  O   UNL     1       2.445  -4.240   0.516  0.00  0.00    -0.151 OA
ATOM     11  O   UNL     1       0.117  -5.126   0.522  0.00  0.00    -0.151 OA
BRANCH   9  16
ATOM     12  C   UNL     1      -0.018   1.503   0.010  0.00  0.00    +0.051 C 
ATOM     13  C   UNL     1       0.002  -0.004   0.002  0.00  0.00    -0.011 A 
ATOM     14  C   UNL     1      -1.039  -0.872   0.002  0.00  0.00    +0.013 A 
ATOM     15  C   UNL     1      -0.780  -2.230  -0.007  0.00  0.00    +0.037 A 
ATOM     16  C   UNL     1       0.507  -2.653  -0.016  0.00  0.00    +0.144 A 
ATOM     17  S   UNL     1       1.404  -1.109  -0.018  0.00  0.00    -0.074 S 
ENDBRANCH   9  16
ENDBRANCH   7   9
ENDBRANCH   1   7
BRANCH   4  18
ATOM     18  C   UNL     1       4.359  -6.669  -3.733  0.00  0.00    +0.107 C 
BRANCH  18  19
ATOM     19  C   UNL     1       4.330  -8.161  -3.398  0.00  0.00    +0.040 C 
BRANCH  19  20
ATOM     20  C   UNL     1       5.443  -8.878  -4.166  0.00  0.00    +0.124 C 
BRANCH  20  21
ATOM     21  N   UNL     1       5.416 -10.307  -3.845  0.00  0.00    -0.338 N 
ATOM     22  C   UNL     1       6.087 -10.923  -2.824  0.00  0.00    +0.104 A 
ATOM     23  C   UNL     1       5.782 -12.233  -2.891  0.00  0.00    +0.101 A 
ATOM     24  N   UNL     1       4.946 -12.412  -3.925  0.00  0.00    -0.352 N 
ATOM     25  C   UNL     1       4.718 -11.261  -4.498  0.00  0.00    +0.173 A 
ATOM     26  H   UNL     1       4.567 -13.261  -4.201  0.00  0.00    +0.166 HD
ENDBRANCH  20  21
ENDBRANCH  19  20
ENDBRANCH  18  19
ENDBRANCH   4  18
TORSDOF 7
