REMARK  Name = ZINC62893018
REMARK  5 active torsions:
REMARK  status: ('A' for Active; 'I' for Inactive)
REMARK    1  A    between atoms: C_1  and  C_2
REMARK    2  A    between atoms: C_2  and  C_4
REMARK    3  A    between atoms: C_2  and  N_13
REMARK    4  A    between atoms: C_14  and  C_16
REMARK    5  A    between atoms: C_16  and  C_21
REMARK                            x       y       z     vdW  Elec       q    Type
REMARK                         _______ _______ _______ _____ _____    ______ ____
ROOT
ATOM      1  N   UNL     1       0.688  -0.476  -1.203  0.00  0.00    -0.305 N 
ATOM      2  C   UNL     1       0.006  -0.608  -2.358  0.00  0.00    +0.218 C 
ATOM      3  O   UNL     1      -1.175  -0.336  -2.400  0.00  0.00    -0.275 OA
ATOM      4  H   UNL     1       1.632  -0.695  -1.170  0.00  0.00    +0.149 HD
ENDROOT
BRANCH   2   5
ATOM      5  C   UNL     1       0.712  -1.094  -3.598  0.00  0.00    +0.027 C 
ATOM      6  C   UNL     1       1.204  -2.546  -3.401  0.00  0.00    -0.005 C 
ATOM      7  C   UNL     1       0.084  -3.385  -4.064  0.00  0.00    -0.082 C 
ATOM      8  N   UNL     1      -0.304  -2.566  -5.241  0.00  0.00    +0.380 N 
ATOM      9  C   UNL     1      -0.272  -1.161  -4.782  0.00  0.00    -0.067 C 
ATOM     10  C   UNL     1       1.886  -0.174  -3.935  0.00  0.00    +0.019 C 
ATOM     11  H   UNL     1       0.356  -2.701  -5.992  0.00  0.00    -0.086 HD
ATOM     12  H   UNL     1      -1.234  -2.812  -5.545  0.00  0.00    -0.086 HD
ENDBRANCH   2   5
BRANCH   1  14
ATOM     13  C   UNL     1      -0.019   1.526   0.010  0.00  0.00    +0.036 C 
ATOM     14  C   UNL     1       0.002  -0.004   0.002  0.00  0.00    +0.136 C 
BRANCH  14  15
ATOM     15  C   UNL     1       0.731  -0.503   1.223  0.00  0.00    +0.126 A 
ATOM     16  C   UNL     1       0.140  -0.958   2.336  0.00  0.00    +0.055 A 
ATOM     17  C   UNL     1       1.225  -1.333   3.251  0.00  0.00    +0.020 A 
ATOM     18  C   UNL     1       1.275  -1.860   4.541  0.00  0.00    +0.011 A 
ATOM     19  C   UNL     1       2.486  -2.101   5.129  0.00  0.00    +0.001 A 
ATOM     20  C   UNL     1       3.663  -1.824   4.450  0.00  0.00    +0.004 A 
ATOM     21  C   UNL     1       3.634  -1.302   3.174  0.00  0.00    +0.047 A 
ATOM     22  C   UNL     1       2.414  -1.051   2.558  0.00  0.00    +0.135 A 
ATOM     23  O   UNL     1       2.068  -0.562   1.351  0.00  0.00    -0.458 OA
ENDBRANCH  14  15
ENDBRANCH   1  14
TORSDOF 3
