REMARK  Name = ZINC02368769
REMARK  5 active torsions:
REMARK  status: ('A' for Active; 'I' for Inactive)
REMARK    1  A    between atoms: C_1  and  C_2
REMARK    2  A    between atoms: C_2  and  O_3
REMARK    3  A    between atoms: O_3  and  C_4
REMARK    4  A    between atoms: C_7  and  C_10
REMARK    5  A    between atoms: C_13  and  C_22
REMARK                            x       y       z     vdW  Elec       q    Type
REMARK                         _______ _______ _______ _____ _____    ______ ____
ROOT
ATOM      1  C   UNL     1      -2.001  -6.092  -0.011  0.00  0.00    +0.106 C 
ATOM      2  C   UNL     1      -2.312  -6.579   1.409  0.00  0.00    +0.058 C 
ATOM      3  C   UNL     1      -3.564  -5.868   1.937  0.00  0.00    +0.143 C 
ATOM      4  N   UNL     1      -4.618  -5.956   0.927  0.00  0.00    -0.224 N 
ATOM      5  C   UNL     1      -4.401  -6.231  -0.381  0.00  0.00    +0.216 A 
ATOM      6  N   UNL     1      -5.555  -6.235  -0.994  0.00  0.00    -0.180 NA
ATOM      7  C   UNL     1      -6.529  -5.966  -0.112  0.00  0.00    +0.233 A 
ATOM      8  N   UNL     1      -5.996  -5.788   1.076  0.00  0.00    -0.132 NA
ATOM      9  N   UNL     1      -7.891  -5.887  -0.409  0.00  0.00    -0.326 N 
ATOM     10  N   UNL     1      -3.126  -6.454  -0.894  0.00  0.00    -0.307 N 
ATOM     11  H   UNL     1      -8.199  -6.034  -1.317  0.00  0.00    +0.145 HD
ATOM     12  H   UNL     1      -8.530  -5.686   0.293  0.00  0.00    +0.145 HD
ATOM     13  H   UNL     1      -2.984  -6.827  -1.779  0.00  0.00    +0.149 HD
ENDROOT
BRANCH   3  14
ATOM     14  C   UNL     1      -4.023  -6.533   3.209  0.00  0.00    -0.022 A 
ATOM     15  C   UNL     1      -4.372  -7.870   3.204  0.00  0.00    +0.006 A 
ATOM     16  C   UNL     1      -4.793  -8.480   4.370  0.00  0.00    +0.001 A 
ATOM     17  C   UNL     1      -4.865  -7.753   5.544  0.00  0.00    +0.015 A 
ATOM     18  C   UNL     1      -4.515  -6.415   5.550  0.00  0.00    +0.018 A 
ATOM     19  C   UNL     1      -4.089  -5.806   4.383  0.00  0.00    +0.021 A 
ATOM     20 BR   UNL     1      -4.614  -5.419   7.155  0.00  0.00    -0.050 Br
ENDBRANCH   3  14
BRANCH   1  24
ATOM     21  C   UNL     1      -1.498  -1.848   0.006  0.00  0.00    +0.121 A 
ATOM     22  C   UNL     1      -0.388  -2.679  -0.003  0.00  0.00    +0.046 A 
ATOM     23  C   UNL     1      -0.553  -4.051  -0.008  0.00  0.00    +0.009 A 
ATOM     24  C   UNL     1      -1.823  -4.596  -0.005  0.00  0.00    -0.027 A 
ATOM     25  C   UNL     1      -2.932  -3.769   0.004  0.00  0.00    +0.009 A 
ATOM     26  C   UNL     1      -2.772  -2.397   0.016  0.00  0.00    +0.046 A 
BRANCH  21  27
ATOM     27  O   UNL     1      -1.339  -0.499   0.012  0.00  0.00    -0.492 OA
BRANCH  27  29
ATOM     28  C   UNL     1      -0.019   1.526   0.010  0.00  0.00    +0.048 C 
ATOM     29  C   UNL     1       0.002  -0.004   0.002  0.00  0.00    +0.225 C 
ENDBRANCH  27  29
ENDBRANCH  21  27
ENDBRANCH   1  24
TORSDOF 4
