REMARK  Name = ZINC55503501
REMARK  3 active torsions:
REMARK  status: ('A' for Active; 'I' for Inactive)
REMARK    1  A    between atoms: C_3  and  C_6
REMARK    2  A    between atoms: C_15  and  C_17
REMARK    3  A    between atoms: C_20  and  O_23
REMARK                            x       y       z     vdW  Elec       q    Type
REMARK                         _______ _______ _______ _____ _____    ______ ____
ROOT
ATOM      1  C   UNL     1       3.574   0.618  -0.029  0.00  0.00    +0.039 A 
ATOM      2  C   UNL     1       4.276   1.361  -0.922  0.00  0.00    +0.059 A 
ATOM      3  S   UNL     1       5.973   0.976  -0.537  0.00  0.00    -0.076 S 
ATOM      4  C   UNL     1       5.707  -0.160   0.799  0.00  0.00    +0.116 A 
ATOM      5  C   UNL     1       4.308  -0.211   0.921  0.00  0.00    +0.083 A 
ATOM      6  C   UNL     1       3.802  -1.068   1.950  0.00  0.00    +0.261 A 
ATOM      7  O   UNL     1       2.600  -1.179   2.125  0.00  0.00    -0.267 OA
ATOM      8  N   UNL     1       4.669  -1.750   2.720  0.00  0.00    -0.306 N 
ATOM      9  H   UNL     1       4.330  -2.332   3.418  0.00  0.00    +0.170 HD
ATOM     10  C   UNL     1       6.019  -1.637   2.535  0.00  0.00    +0.142 A 
ATOM     11  N   UNL     1       6.509  -0.863   1.589  0.00  0.00    -0.222 NA
ENDROOT
BRANCH  10  12
ATOM     12  C   UNL     1       6.939  -2.401   3.401  0.00  0.00    +0.018 A 
ATOM     13  C   UNL     1       6.431  -3.237   4.398  0.00  0.00    +0.015 A 
ATOM     14  C   UNL     1       7.293  -3.949   5.203  0.00  0.00    +0.046 A 
ATOM     15  C   UNL     1       8.666  -3.835   5.025  0.00  0.00    +0.117 A 
ATOM     16  C   UNL     1       9.176  -3.004   4.035  0.00  0.00    +0.046 A 
ATOM     17  C   UNL     1       8.321  -2.293   3.222  0.00  0.00    +0.015 A 
BRANCH  15  18
ATOM     18  O   UNL     1       9.513  -4.537   5.822  0.00  0.00    -0.507 OA
ATOM     19  H   UNL     1       9.739  -5.412   5.479  0.00  0.00    +0.292 HD
ENDBRANCH  15  18
ENDBRANCH  10  12
BRANCH   1  22
ATOM     20  C   UNL     1      -0.016   1.343   0.009  0.00  0.00    +0.042 A 
ATOM     21  C   UNL     1       1.326   1.774  -0.001  0.00  0.00    +0.050 A 
ATOM     22  C   UNL     1       2.098   0.654  -0.015  0.00  0.00    +0.136 A 
ATOM     23  O   UNL     1       1.281  -0.417  -0.012  0.00  0.00    -0.463 OA
ATOM     24  C   UNL     1       0.002  -0.004   0.002  0.00  0.00    +0.196 A 
ENDBRANCH   1  22
TORSDOF 3
