REMARK  Name = ZINC42168527
REMARK  4 active torsions:
REMARK  status: ('A' for Active; 'I' for Inactive)
REMARK    1  A    between atoms: C_4  and  O_22
REMARK    2  A    between atoms: C_5  and  N_7
REMARK    3  A    between atoms: C_13  and  C_15
REMARK    4  A    between atoms: C_15  and  C_16
REMARK                            x       y       z     vdW  Elec       q    Type
REMARK                         _______ _______ _______ _____ _____    ______ ____
ROOT
ATOM      1  N   UNL     1       1.235  -2.080  -0.021  0.00  0.00    -0.324 N 
ATOM      2  C   UNL     1       1.252  -2.836   1.239  0.00  0.00    +0.124 C 
ATOM      3  C   UNL     1       0.073  -3.816   1.240  0.00  0.00    +0.126 C 
ATOM      4  N   UNL     1       0.078  -4.557  -0.030  0.00  0.00    -0.299 N 
ATOM      5  C   UNL     1       0.060  -3.802  -1.290  0.00  0.00    +0.126 C 
ATOM      6  C   UNL     1       1.234  -2.821  -1.291  0.00  0.00    +0.124 C 
ATOM      7  C   UNL     1       0.099  -5.904  -0.038  0.00  0.00    +0.214 C 
ATOM      8  O   UNL     1       0.114  -6.517   1.009  0.00  0.00    -0.276 OA
ENDROOT
BRANCH   1  13
ATOM      9  C   UNL     1      -0.017   1.378   0.010  0.00  0.00    +0.002 A 
ATOM     10  C   UNL     1       1.169   2.089   0.002  0.00  0.00    +0.004 A 
ATOM     11  C   UNL     1       2.380   1.421  -0.013  0.00  0.00    +0.047 A 
ATOM     12  C   UNL     1       2.407   0.036  -0.021  0.00  0.00    +0.138 A 
ATOM     13  C   UNL     1       1.213  -0.681  -0.013  0.00  0.00    +0.072 A 
ATOM     14  C   UNL     1       0.002  -0.004   0.002  0.00  0.00    +0.027 A 
BRANCH  12  15
ATOM     15  O   UNL     1       3.598  -0.622  -0.036  0.00  0.00    -0.505 OA
ATOM     16  H   UNL     1       3.950  -0.817   0.843  0.00  0.00    +0.292 HD
ENDBRANCH  12  15
ENDBRANCH   1  13
BRANCH   7  17
ATOM     17  C   UNL     1       0.104  -6.650  -1.347  0.00  0.00    +0.080 C 
BRANCH  17  18
ATOM     18  C   UNL     1       0.129  -8.156  -1.077  0.00  0.00    -0.063 C 
ATOM     19  C   UNL     1       0.216  -8.928  -2.410  0.00  0.00    -0.017 C 
ATOM     20  C   UNL     1      -0.703 -10.153  -2.166  0.00  0.00    -0.021 C 
ATOM     21  C   UNL     1      -1.821  -9.536  -1.288  0.00  0.00    -0.082 C 
ATOM     22  N   UNL     1      -1.122  -8.567  -0.412  0.00  0.00    +0.381 N 
ATOM     23  H   UNL     1      -0.909  -8.999   0.475  0.00  0.00    -0.086 HD
ATOM     24  H   UNL     1      -1.708  -7.759  -0.262  0.00  0.00    -0.086 HD
ENDBRANCH  17  18
ENDBRANCH   7  17
TORSDOF 4
