REMARK  Name = ZINC51871409
REMARK  6 active torsions:
REMARK  status: ('A' for Active; 'I' for Inactive)
REMARK    1  A    between atoms: C_2  and  N_20
REMARK    2  A    between atoms: C_5  and  O_10
REMARK    3  A    between atoms: C_6  and  C_7
REMARK    4  A    between atoms: O_10  and  C_11
REMARK    5  A    between atoms: C_11  and  C_12
REMARK    6  A    between atoms: C_12  and  C_13
REMARK                            x       y       z     vdW  Elec       q    Type
REMARK                         _______ _______ _______ _____ _____    ______ ____
ROOT
ATOM      1  C   UNL     1      -0.017   1.395   0.010  0.00  0.00    +0.052 A 
ATOM      2  C   UNL     1       1.192   2.069   0.002  0.00  0.00    +0.145 A 
ATOM      3  C   UNL     1       2.372   1.348  -0.013  0.00  0.00    +0.147 A 
ATOM      4  N   UNL     1       2.367   0.029  -0.021  0.00  0.00    -0.218 NA
ATOM      5  C   UNL     1       1.241  -0.663  -0.014  0.00  0.00    +0.227 A 
ATOM      6  C   UNL     1       0.002  -0.004   0.002  0.00  0.00    +0.100 A 
ENDROOT
BRANCH   6   7
ATOM      7  C   UNL     1      -1.257  -0.772   0.010  0.00  0.00    +0.247 C 
ATOM      8  O   UNL     1      -1.228  -1.988   0.004  0.00  0.00    -0.270 OA
ATOM      9  N   UNL     1      -2.440  -0.127   0.026  0.00  0.00    -0.325 N 
ATOM     10  H   UNL     1      -2.464   0.843   0.031  0.00  0.00    +0.145 HD
ATOM     11  H   UNL     1      -3.268  -0.632   0.031  0.00  0.00    +0.145 HD
ENDBRANCH   6   7
BRANCH   2  12
ATOM     12  N   UNL     1       1.221   3.549   0.009  0.00  0.00    +0.058 N 
ATOM     13  O   UNL     1       0.187   4.174   0.022  0.00  0.00    -0.126 OA
ATOM     14  O   UNL     1       2.280   4.132   0.002  0.00  0.00    -0.126 OA
ENDBRANCH   2  12
BRANCH   5  15
ATOM     15  O   UNL     1       1.282  -2.017  -0.022  0.00  0.00    -0.476 OA
BRANCH  15  16
ATOM     16  C   UNL     1       2.575  -2.626  -0.039  0.00  0.00    +0.229 C 
BRANCH  16  17
ATOM     17  C   UNL     1       2.422  -4.148  -0.046  0.00  0.00    +0.025 C 
BRANCH  17  18
ATOM     18  C   UNL     1       3.806  -4.800  -0.064  0.00  0.00    -0.069 C 
ATOM     19  C   UNL     1       3.653  -6.317  -0.199  0.00  0.00    -0.016 C 
ATOM     20  C   UNL     1       5.040  -6.965  -0.217  0.00  0.00    -0.003 C 
ATOM     21  C   UNL     1       5.794  -6.568   1.056  0.00  0.00    -0.019 C 
ATOM     22  C   UNL     1       5.868  -5.043   1.145  0.00  0.00    -0.082 C 
ATOM     23  N   UNL     1       4.510  -4.486   1.185  0.00  0.00    +0.381 N 
ATOM     24  H   UNL     1       4.562  -3.484   1.297  0.00  0.00    -0.086 HD
ATOM     25  H   UNL     1       4.007  -4.884   1.963  0.00  0.00    -0.086 HD
ENDBRANCH  17  18
ENDBRANCH  16  17
ENDBRANCH  15  16
ENDBRANCH   5  15
TORSDOF 6
