REMARK  Name = ZINC08739952
REMARK  1 active torsions:
REMARK  status: ('A' for Active; 'I' for Inactive)
REMARK    1  A    between atoms: C_15  and  C_18
REMARK                            x       y       z     vdW  Elec       q    Type
REMARK                         _______ _______ _______ _____ _____    ______ ____
ROOT
ATOM      1  C   UNL     1      -0.017   1.375   0.010  0.00  0.00    +0.002 A 
ATOM      2  C   UNL     1       1.170   2.094   0.002  0.00  0.00    +0.002 A 
ATOM      3  C   UNL     1       2.382   1.442  -0.013  0.00  0.00    +0.030 A 
ATOM      4  C   UNL     1       2.418   0.045  -0.021  0.00  0.00    +0.091 A 
ATOM      5  C   UNL     1       1.214  -0.678  -0.013  0.00  0.00    +0.068 A 
ATOM      6  C   UNL     1       0.002  -0.004   0.002  0.00  0.00    +0.028 A 
ATOM      7  N   UNL     1       1.569  -2.016  -0.024  0.00  0.00    -0.322 N 
ATOM      8  H   UNL     1       0.961  -2.772  -0.022  0.00  0.00    +0.169 HD
ATOM      9  C   UNL     1       2.933  -2.074  -0.037  0.00  0.00    +0.232 A 
ATOM     10  N   UNL     1       3.429  -0.862  -0.035  0.00  0.00    -0.211 NA
ATOM     11  N   UNL     1       3.679  -3.238  -0.050  0.00  0.00    -0.185 N 
ATOM     12  C   UNL     1       3.188  -4.493  -0.057  0.00  0.00    +0.275 A 
ATOM     13  O   UNL     1       2.009  -4.801  -0.054  0.00  0.00    -0.266 OA
ATOM     14  C   UNL     1       4.277  -5.386  -0.070  0.00  0.00    +0.099 A 
ATOM     15  C   UNL     1       5.425  -4.651  -0.070  0.00  0.00    +0.068 A 
ATOM     16  N   UNL     1       5.077  -3.320  -0.064  0.00  0.00    -0.287 N 
ATOM     17  H   UNL     1       5.692  -2.570  -0.066  0.00  0.00    +0.188 HD
ENDROOT
BRANCH  15  18
ATOM     18  C   UNL     1       6.800  -5.189  -0.082  0.00  0.00    -0.000 A 
ATOM     19  C   UNL     1       7.893  -4.319  -0.074  0.00  0.00    +0.011 A 
ATOM     20  C   UNL     1       9.175  -4.828  -0.085  0.00  0.00    +0.020 A 
ATOM     21  C   UNL     1       9.380  -6.197  -0.103  0.00  0.00    +0.041 A 
ATOM     22  C   UNL     1       8.300  -7.065  -0.111  0.00  0.00    +0.020 A 
ATOM     23  C   UNL     1       7.013  -6.569  -0.094  0.00  0.00    +0.011 A 
ATOM     24 CL   UNL     1      10.996  -6.830  -0.118  0.00  0.00    -0.084 Cl
ENDBRANCH  15  18
TORSDOF 1
