REMARK  Name = ZINC40468404
REMARK  12 active torsions:
REMARK  status: ('A' for Active; 'I' for Inactive)
REMARK    1  A    between atoms: C_1  and  C_2
REMARK    2  A    between atoms: C_2  and  N_3
REMARK    3  A    between atoms: N_3  and  C_4
REMARK    4  A    between atoms: C_4  and  C_5
REMARK    5  A    between atoms: C_5  and  C_7
REMARK    6  A    between atoms: C_5  and  C_8
REMARK    7  A    between atoms: C_10  and  C_12
REMARK    8  A    between atoms: C_12  and  C_14
REMARK    9  A    between atoms: C_12  and  N_23
REMARK   10  A    between atoms: C_14  and  C_15
REMARK   11  A    between atoms: C_18  and  O_22
REMARK   12  A    between atoms: C_19  and  O_21
REMARK                            x       y       z     vdW  Elec       q    Type
REMARK                         _______ _______ _______ _____ _____    ______ ____
ROOT
ATOM      1  C   UNL     1       2.801  -0.427  -0.132  0.00  0.00    +0.017 C 
ENDROOT
BRANCH   1   2
ATOM      2  N   UNL     1       4.228  -0.257   0.175  0.00  0.00    +0.386 N 
ATOM      3  H   UNL     1       4.581  -1.098   0.607  0.00  0.00    -0.089 HD
ATOM      4  H   UNL     1       4.736  -0.077  -0.678  0.00  0.00    -0.089 HD
ATOM      5  H   UNL     1       4.345   0.521   0.807  0.00  0.00    -0.089 HD
ENDBRANCH   1   2
BRANCH   1   7
ATOM      6  N   UNL     1       0.711  -0.489   1.189  0.00  0.00    -0.302 N 
ATOM      7  C   UNL     1       2.042  -0.696   1.142  0.00  0.00    +0.201 C 
ATOM      8  O   UNL     1       2.628  -1.097   2.124  0.00  0.00    -0.277 OA
BRANCH   6  10
ATOM      9  C   UNL     1      -0.019   1.526   0.010  0.00  0.00    +0.024 C 
ATOM     10  C   UNL     1       0.002  -0.004   0.002  0.00  0.00    +0.104 C 
ENDBRANCH   6  10
BRANCH   6  11
ATOM     11  C   UNL     1      -0.028  -0.750   2.427  0.00  0.00    +0.125 C 
BRANCH  11  12
ATOM     12  C   UNL     1      -0.511  -2.202   2.437  0.00  0.00    +0.106 C 
ATOM     13  C   UNL     1       0.697  -3.141   2.480  0.00  0.00    +0.025 C 
BRANCH  12  14
ATOM     14  C   UNL     1      -1.353  -2.431   3.622  0.00  0.00    +0.067 C 
ATOM     15  N   UNL     1      -2.003  -2.608   4.536  0.00  0.00    -0.196 NA
ENDBRANCH  12  14
ENDBRANCH  11  12
ENDBRANCH   6  11
ENDBRANCH   1   7
BRANCH   1  16
ATOM     16  C   UNL     1       2.623  -1.607  -1.090  0.00  0.00    +0.028 C 
BRANCH  16  17
ATOM     17  C   UNL     1       3.279  -1.286  -2.409  0.00  0.00    -0.045 A 
ATOM     18  C   UNL     1       2.555  -0.658  -3.405  0.00  0.00    +0.007 A 
ATOM     19  C   UNL     1       3.152  -0.362  -4.616  0.00  0.00    +0.049 A 
ATOM     20  C   UNL     1       4.480  -0.694  -4.833  0.00  0.00    +0.158 A 
ATOM     21  C   UNL     1       5.209  -1.326  -3.830  0.00  0.00    +0.158 A 
ATOM     22  C   UNL     1       4.605  -1.615  -2.617  0.00  0.00    +0.052 A 
BRANCH  21  23
ATOM     23  O   UNL     1       6.512  -1.654  -4.039  0.00  0.00    -0.503 OA
ATOM     24  H   UNL     1       7.137  -0.962  -3.784  0.00  0.00    +0.292 HD
ENDBRANCH  21  23
BRANCH  20  25
ATOM     25  O   UNL     1       5.069  -0.404  -6.024  0.00  0.00    -0.503 OA
ATOM     26  H   UNL     1       5.487   0.467  -6.054  0.00  0.00    +0.292 HD
ENDBRANCH  20  25
ENDBRANCH  16  17
ENDBRANCH   1  16
TORSDOF 10
