REMARK  Name = ZINC47772614
REMARK  7 active torsions:
REMARK  status: ('A' for Active; 'I' for Inactive)
REMARK    1  A    between atoms: C_1  and  C_2
REMARK    2  A    between atoms: C_12  and  C_14
REMARK    3  A    between atoms: C_14  and  C_16
REMARK    4  A    between atoms: C_14  and  N_17
REMARK    5  A    between atoms: C_20  and  C_23
REMARK    6  A    between atoms: C_23  and  N_24
REMARK    7  A    between atoms: C_25  and  C_27
REMARK                            x       y       z     vdW  Elec       q    Type
REMARK                         _______ _______ _______ _____ _____    ______ ____
ROOT
ATOM      1  C   UNL     1       2.550  -0.834   2.992  0.00  0.00    +0.017 C 
ATOM      2  C   UNL     1       2.598  -2.348   2.781  0.00  0.00    -0.004 C 
ENDROOT
BRANCH   1  13
ATOM      3  C   UNL     1      -0.277  -1.442   3.784  0.00  0.00    +0.029 C 
ATOM      4  C   UNL     1      -0.252   0.014   3.316  0.00  0.00    +0.083 C 
ATOM      5  C   UNL     1      -1.678   0.500   3.010  0.00  0.00    +0.059 C 
ATOM      6  C   UNL     1      -1.649   0.865   1.543  0.00  0.00    -0.024 A 
ATOM      7  C   UNL     1      -2.637   1.359   0.712  0.00  0.00    +0.005 A 
ATOM      8  C   UNL     1      -2.360   1.617  -0.618  0.00  0.00    +0.000 A 
ATOM      9  C   UNL     1      -1.092   1.381  -1.115  0.00  0.00    +0.002 A 
ATOM     10  C   UNL     1      -0.103   0.889  -0.290  0.00  0.00    +0.024 A 
ATOM     11  C   UNL     1      -0.375   0.625   1.054  0.00  0.00    +0.040 A 
ATOM     12  N   UNL     1       0.476   0.129   2.050  0.00  0.00    -0.269 N 
ATOM     13  C   UNL     1       1.772  -0.194   1.872  0.00  0.00    +0.206 C 
ATOM     14  O   UNL     1       2.312   0.030   0.809  0.00  0.00    -0.277 OA
ENDBRANCH   1  13
BRANCH   1  15
ATOM     15  N   UNL     1       3.918  -0.298   3.007  0.00  0.00    +0.387 N 
ATOM     16  C   UNL     1       3.873   1.148   3.252  0.00  0.00    -0.077 C 
ATOM     17  C   UNL     1       5.289   1.725   3.188  0.00  0.00    -0.014 C 
ATOM     18  C   UNL     1       6.157   1.051   4.254  0.00  0.00    +0.003 C 
ATOM     19  C   UNL     1       6.137  -0.464   4.033  0.00  0.00    -0.014 C 
ATOM     20  C   UNL     1       4.689  -0.959   4.066  0.00  0.00    -0.077 C 
ATOM     21  H   UNL     1       4.356  -0.472   2.115  0.00  0.00    -0.081 HD
BRANCH  18  22
ATOM     22  C   UNL     1       7.594   1.565   4.144  0.00  0.00    +0.107 C 
BRANCH  22  23
ATOM     23  N   UNL     1       8.396   1.012   5.237  0.00  0.00    -0.315 N 
ATOM     24  C   UNL     1       9.702   1.329   5.343  0.00  0.00    +0.210 C 
ATOM     25  O   UNL     1      10.213   2.073   4.532  0.00  0.00    -0.276 OA
ATOM     26  C   UNL     1      10.527   0.760   6.468  0.00  0.00    +0.109 C 
ATOM     27  H   UNL     1       7.988   0.417   5.886  0.00  0.00    +0.149 HD
ENDBRANCH  22  23
ENDBRANCH  18  22
ENDBRANCH   1  15
TORSDOF 4
