REMARK  Name = ZINC19634495
REMARK  11 active torsions:
REMARK  status: ('A' for Active; 'I' for Inactive)
REMARK    1  A    between atoms: C_1  and  C_2
REMARK    2  A    between atoms: C_5  and  C_9
REMARK    3  A    between atoms: C_7  and  C_8
REMARK    4  A    between atoms: C_12  and  N_20
REMARK    5  A    between atoms: C_13  and  C_14
REMARK    6  A    between atoms: C_14  and  O_16
REMARK    7  A    between atoms: O_16  and  C_17
REMARK    8  A    between atoms: C_17  and  C_18
REMARK    9  A    between atoms: C_17  and  C_19
REMARK   10  A    between atoms: C_21  and  C_23
REMARK   11  A    between atoms: C_29  and  C_31
REMARK                            x       y       z     vdW  Elec       q    Type
REMARK                         _______ _______ _______ _____ _____    ______ ____
ROOT
ATOM      1  C   UNL     1      -4.936  -2.872  -2.025  0.00  0.00    +0.005 A 
ATOM      2  C   UNL     1      -5.876  -1.905  -1.867  0.00  0.00    +0.056 A 
ATOM      3  S   UNL     1      -4.910  -0.433  -1.602  0.00  0.00    -0.080 S 
ATOM      4  C   UNL     1      -3.317  -1.103  -1.713  0.00  0.00    +0.086 A 
ATOM      5  C   UNL     1      -3.549  -2.452  -1.945  0.00  0.00    +0.095 A 
ENDROOT
BRANCH   1  10
ATOM      6  C   UNL     1      -6.379  -8.365  -2.970  0.00  0.00    +0.044 C 
ATOM      7  C   UNL     1      -6.001  -6.927  -2.723  0.00  0.00    -0.048 A 
ATOM      8  C   UNL     1      -5.076  -6.307  -3.543  0.00  0.00    +0.004 A 
ATOM      9  C   UNL     1      -4.726  -4.991  -3.322  0.00  0.00    +0.009 A 
ATOM     10  C   UNL     1      -5.307  -4.286  -2.269  0.00  0.00    -0.016 A 
ATOM     11  C   UNL     1      -6.235  -4.918  -1.442  0.00  0.00    +0.012 A 
ATOM     12  C   UNL     1      -6.581  -6.233  -1.677  0.00  0.00    -0.047 A 
ATOM     13  C   UNL     1      -7.588  -6.915  -0.788  0.00  0.00    +0.044 C 
ENDBRANCH   1  10
BRANCH   4  14
ATOM     14  N   UNL     1      -2.101  -0.449  -1.593  0.00  0.00    -0.279 N 
ATOM     15  C   UNL     1      -2.070   0.879  -1.367  0.00  0.00    +0.222 C 
ATOM     16  O   UNL     1      -3.105   1.502  -1.267  0.00  0.00    -0.275 OA
ATOM     17  H   UNL     1      -1.162  -1.014  -1.683  0.00  0.00    +0.155 HD
BRANCH  15  18
ATOM     18  C   UNL     1      -0.747   1.590  -1.236  0.00  0.00    +0.093 C 
ATOM     19  C   UNL     1      -0.842   2.655  -0.141  0.00  0.00    +0.040 C 
ATOM     20  C   UNL     1      -1.720   3.784  -0.596  0.00  0.00    -0.030 C 
ATOM     21  C   UNL     1      -2.041   4.003  -1.829  0.00  0.00    -0.030 C 
ATOM     22  C   UNL     1      -1.594   3.148  -2.978  0.00  0.00    +0.042 C 
ATOM     23  C   UNL     1      -0.402   2.284  -2.560  0.00  0.00    +0.118 C 
BRANCH  23  24
ATOM     24  C   UNL     1      -0.126   1.248  -3.618  0.00  0.00    +0.360 C 
ATOM     25  O   UNL     1      -0.197   0.072  -3.346  0.00  0.00    -0.246 OA
ATOM     26  O   UNL     1       0.198   1.630  -4.863  0.00  0.00    -0.246 OA
ENDBRANCH  23  24
ENDBRANCH  15  18
ENDBRANCH   4  14
BRANCH   5  27
ATOM     27  C   UNL     1      -2.449  -3.404  -2.100  0.00  0.00    +0.342 C 
ATOM     28  O   UNL     1      -1.999  -3.977  -1.125  0.00  0.00    -0.245 OA
BRANCH  27  29
ATOM     29  O   UNL     1      -1.934  -3.647  -3.323  0.00  0.00    -0.458 OA
BRANCH  29  30
ATOM     30  C   UNL     1      -0.845  -4.603  -3.401  0.00  0.00    +0.171 C 
ATOM     31  C   UNL     1      -1.413  -6.007  -3.617  0.00  0.00    +0.052 C 
ATOM     32  C   UNL     1       0.071  -4.238  -4.571  0.00  0.00    +0.052 C 
ENDBRANCH  29  30
ENDBRANCH  27  29
ENDBRANCH   5  27
TORSDOF 7
