REMARK  Name = ZINC45166016
REMARK  7 active torsions:
REMARK  status: ('A' for Active; 'I' for Inactive)
REMARK    1  A    between atoms: C_1  and  C_2
REMARK    2  A    between atoms: C_4  and  C_21
REMARK    3  A    between atoms: C_5  and  N_9
REMARK    4  A    between atoms: C_6  and  C_8
REMARK    5  A    between atoms: N_9  and  S_10
REMARK    6  A    between atoms: S_10  and  C_13
REMARK    7  A    between atoms: C_14  and  N_20
REMARK                            x       y       z     vdW  Elec       q    Type
REMARK                         _______ _______ _______ _____ _____    ______ ____
ROOT
ATOM      1  S   UNL     1       1.399  -4.994  -0.445  0.00  0.00    +0.076 S 
ATOM      2  O   UNL     1       1.057  -6.357  -0.658  0.00  0.00    -0.150 OA
ATOM      3  O   UNL     1       2.168  -4.247  -1.377  0.00  0.00    -0.150 OA
ENDROOT
BRANCH   1   4
ATOM      4  C   UNL     1       2.263  -4.926   1.090  0.00  0.00    +0.147 A 
ATOM      5  C   UNL     1       2.993  -3.793   1.427  0.00  0.00    +0.053 A 
ATOM      6  C   UNL     1       3.672  -3.743   2.638  0.00  0.00    +0.025 A 
ATOM      7  C   UNL     1       3.620  -4.819   3.502  0.00  0.00    +0.003 A 
ATOM      8  C   UNL     1       2.894  -5.946   3.164  0.00  0.00    +0.022 A 
ATOM      9  C   UNL     1       2.210  -5.997   1.961  0.00  0.00    +0.069 A 
ATOM     10 CL   UNL     1       1.293  -7.410   1.545  0.00  0.00    -0.081 Cl
BRANCH   5  11
ATOM     11  N   UNL     1       3.043  -2.707   0.551  0.00  0.00    -0.356 N 
ATOM     12  H   UNL     1       2.449  -2.673  -0.215  0.00  0.00    +0.142 HD
ATOM     13  H   UNL     1       3.673  -1.986   0.708  0.00  0.00    +0.142 HD
ENDBRANCH   5  11
ENDBRANCH   1   4
BRANCH   1  14
ATOM     14  N   UNL     1      -0.025  -4.174  -0.241  0.00  0.00    -0.216 N 
ATOM     15  H   UNL     1      -0.869  -4.650  -0.286  0.00  0.00    +0.174 HD
BRANCH  14  20
ATOM     16  C   UNL     1       0.029   1.415   0.716  0.00  0.00    +0.044 C 
ATOM     17  C   UNL     1       0.015  -0.071   0.461  0.00  0.00    -0.050 A 
ATOM     18  C   UNL     1       0.352  -0.560  -0.787  0.00  0.00    +0.008 A 
ATOM     19  C   UNL     1       0.340  -1.921  -1.024  0.00  0.00    -0.028 A 
ATOM     20  C   UNL     1      -0.012  -2.798  -0.006  0.00  0.00    +0.054 A 
ATOM     21  C   UNL     1      -0.350  -2.303   1.247  0.00  0.00    -0.028 A 
ATOM     22  C   UNL     1      -0.330  -0.941   1.479  0.00  0.00    +0.008 A 
ATOM     23  C   UNL     1      -0.733  -3.251   2.355  0.00  0.00    +0.046 C 
ATOM     24  C   UNL     1       0.708  -2.453  -2.385  0.00  0.00    +0.046 C 
ENDBRANCH  14  20
ENDBRANCH   1  14
TORSDOF 4
