REMARK  Name = ZINC66187815
REMARK  5 active torsions:
REMARK  status: ('A' for Active; 'I' for Inactive)
REMARK    1  A    between atoms: C_4  and  N_6
REMARK    2  A    between atoms: C_7  and  C_9
REMARK    3  A    between atoms: C_9  and  C_10
REMARK    4  A    between atoms: C_10  and  N_11
REMARK    5  A    between atoms: C_17  and  N_20
REMARK                            x       y       z     vdW  Elec       q    Type
REMARK                         _______ _______ _______ _____ _____    ______ ____
ROOT
ATOM      1  N   UNL     1       0.381  -5.613  -3.847  0.00  0.00    -0.299 N 
ATOM      2  C   UNL     1       0.219  -6.948  -3.768  0.00  0.00    +0.302 C 
ATOM      3  O   UNL     1       0.253  -7.502  -2.686  0.00  0.00    -0.253 OA
ATOM      4  N   UNL     1       0.019  -7.670  -4.888  0.00  0.00    -0.287 N 
ATOM      5  C   UNL     1      -0.038  -7.133  -6.255  0.00  0.00    +0.108 C 
ATOM      6  C   UNL     1      -0.256  -8.326  -7.208  0.00  0.00    +0.005 C 
ATOM      7  C   UNL     1       0.256  -9.533  -6.377  0.00  0.00    -0.049 C 
ATOM      8  C   UNL     1      -0.172  -9.131  -4.946  0.00  0.00    +0.094 C 
ATOM      9  H   UNL     1       0.354  -5.171  -4.710  0.00  0.00    +0.150 HD
ENDROOT
BRANCH   7  10
ATOM     10  N   UNL     1      -0.400 -10.778  -6.797  0.00  0.00    +0.383 N 
ATOM     11  C   UNL     1      -0.050 -11.092  -8.206  0.00  0.00    -0.078 C 
ATOM     12  C   UNL     1      -0.313 -12.616  -8.305  0.00  0.00    -0.020 C 
ATOM     13  C   UNL     1       0.155 -13.138  -6.927  0.00  0.00    -0.020 C 
ATOM     14  C   UNL     1       0.101 -11.914  -5.994  0.00  0.00    -0.078 C 
ATOM     15  H   UNL     1      -1.401 -10.695  -6.696  0.00  0.00    -0.081 HD
ENDBRANCH   7  10
BRANCH   1  16
ATOM     16  C   UNL     1       0.598  -4.828  -2.629  0.00  0.00    +0.115 C 
BRANCH  16  17
ATOM     17  C   UNL     1       0.751  -3.350  -2.995  0.00  0.00    +0.114 C 
BRANCH  17  19
ATOM     18  N   UNL     1       1.136  -1.207  -1.821  0.00  0.00    -0.312 N 
ATOM     19  C   UNL     1       0.974  -2.543  -1.742  0.00  0.00    +0.215 C 
ATOM     20  O   UNL     1       1.008  -3.095  -0.663  0.00  0.00    -0.276 OA
ATOM     21  H   UNL     1       1.109  -0.765  -2.685  0.00  0.00    +0.149 HD
BRANCH  18  25
ATOM     22  C   UNL     1      -0.019   1.538   0.011  0.00  0.00    +0.002 C 
ATOM     23  C   UNL     1       1.477   1.939  -0.002  0.00  0.00    +0.002 C 
ATOM     24  C   UNL     1       2.107   0.881  -0.942  0.00  0.00    +0.022 C 
ATOM     25  C   UNL     1       1.353  -0.422  -0.604  0.00  0.00    +0.073 C 
ATOM     26  C   UNL     1       0.002  -0.004   0.002  0.00  0.00    +0.022 C 
ENDBRANCH  18  25
ENDBRANCH  17  19
ENDBRANCH  16  17
ENDBRANCH   1  16
TORSDOF 5
