REMARK  Name = ZINC41160457
REMARK  10 active torsions:
REMARK  status: ('A' for Active; 'I' for Inactive)
REMARK    1  A    between atoms: C_1  and  C_2
REMARK    2  A    between atoms: C_2  and  C_3
REMARK    3  A    between atoms: C_2  and  N_4
REMARK    4  A    between atoms: N_4  and  C_5
REMARK    5  A    between atoms: N_4  and  S_8
REMARK    6  A    between atoms: C_5  and  C_6
REMARK    7  A    between atoms: C_6  and  N_7
REMARK    8  A    between atoms: S_8  and  C_11
REMARK    9  A    between atoms: N_13  and  C_20
REMARK   10  A    between atoms: N_16  and  C_19
REMARK                            x       y       z     vdW  Elec       q    Type
REMARK                         _______ _______ _______ _____ _____    ______ ____
ROOT
ATOM      1  S   UNL     1      -1.948  -1.644  -0.938  0.00  0.00    +0.068 S 
ATOM      2  O   UNL     1      -3.366  -1.586  -0.864  0.00  0.00    -0.153 OA
ATOM      3  O   UNL     1      -1.240  -1.449  -2.155  0.00  0.00    -0.153 OA
ENDROOT
BRANCH   1   4
ATOM      4  C   UNL     1      -1.476  -3.228  -0.328  0.00  0.00    +0.186 A 
ATOM      5  C   UNL     1      -0.464  -3.910  -0.906  0.00  0.00    +0.124 A 
ATOM      6  N   UNL     1      -0.110  -5.139  -0.419  0.00  0.00    -0.301 N 
ATOM      7  C   UNL     1      -0.762  -5.675   0.629  0.00  0.00    +0.332 A 
ATOM      8  O   UNL     1      -0.431  -6.768   1.044  0.00  0.00    -0.246 OA
ATOM      9  N   UNL     1      -1.774  -5.016   1.224  0.00  0.00    -0.262 N 
ATOM     10  C   UNL     1      -2.149  -3.800   0.778  0.00  0.00    +0.283 A 
ATOM     11  O   UNL     1      -3.061  -3.202   1.320  0.00  0.00    -0.265 OA
ATOM     12  C   UNL     1      -2.467  -5.621   2.364  0.00  0.00    +0.157 C 
ATOM     13  C   UNL     1       0.988  -5.879  -1.046  0.00  0.00    +0.153 C 
ENDBRANCH   1   4
BRANCH   1  14
ATOM     14  N   UNL     1      -1.372  -0.516   0.130  0.00  0.00    -0.176 NA
BRANCH  14  16
ATOM     15  C   UNL     1      -0.131   1.578  -0.104  0.00  0.00    +0.025 C 
ATOM     16  C   UNL     1      -0.035   0.052  -0.055  0.00  0.00    +0.074 C 
ATOM     17  C   UNL     1       0.863  -0.365   1.112  0.00  0.00    +0.025 C 
ENDBRANCH  14  16
BRANCH  14  18
ATOM     18  C   UNL     1      -2.200  -0.087   1.260  0.00  0.00    +0.090 C 
BRANCH  18  19
ATOM     19  C   UNL     1      -2.978   1.172   0.873  0.00  0.00    -0.069 C 
BRANCH  19  20
ATOM     20  N   UNL     1      -3.902   1.529   1.957  0.00  0.00    +0.379 N 
ATOM     21  H   UNL     1      -4.548   0.770   2.112  0.00  0.00    -0.090 HD
ATOM     22  H   UNL     1      -3.379   1.704   2.802  0.00  0.00    -0.090 HD
ATOM     23  H   UNL     1      -4.415   2.360   1.702  0.00  0.00    -0.090 HD
ENDBRANCH  19  20
ENDBRANCH  18  19
ENDBRANCH  14  18
ENDBRANCH   1  14
TORSDOF 6
