REMARK  Name = ZINC20590039
REMARK  4 active torsions:
REMARK  status: ('A' for Active; 'I' for Inactive)
REMARK    1  A    between atoms: C_3  and  C_6
REMARK    2  A    between atoms: N_8  and  C_9
REMARK    3  A    between atoms: C_9  and  C_10
REMARK    4  A    between atoms: C_10  and  C_11
REMARK                            x       y       z     vdW  Elec       q    Type
REMARK                         _______ _______ _______ _____ _____    ______ ____
ROOT
ATOM      1  C   UNL     1       7.652  -2.090  -0.083  0.00  0.00    +0.217 C 
ATOM      2  O   UNL     1       8.284  -1.055  -0.084  0.00  0.00    -0.276 OA
ATOM      3  N   UNL     1       8.297  -3.273  -0.096  0.00  0.00    -0.301 N 
ATOM      4  C   UNL     1       7.546  -4.536  -0.101  0.00  0.00    +0.110 C 
ATOM      5  C   UNL     1       8.025  -5.389  -1.280  0.00  0.00    +0.047 C 
ATOM      6  C   UNL     1       9.543  -5.559  -1.200  0.00  0.00    +0.064 C 
ATOM      7  C   UNL     1      10.222  -4.191  -1.283  0.00  0.00    +0.047 C 
ATOM      8  C   UNL     1       9.766  -3.325  -0.111  0.00  0.00    +0.110 C 
ATOM      9  C   UNL     1      10.015  -6.429  -2.337  0.00  0.00    +0.057 A 
ATOM     10  C   UNL     1      10.920  -7.423  -2.182  0.00  0.00    +0.039 A 
ATOM     11  N   UNL     1      11.104  -7.991  -3.402  0.00  0.00    -0.349 N 
ATOM     12  H   UNL     1      11.694  -8.732  -3.610  0.00  0.00    +0.166 HD
ATOM     13  C   UNL     1      10.308  -7.326  -4.272  0.00  0.00    +0.171 A 
ATOM     14  N   UNL     1       9.661  -6.393  -3.622  0.00  0.00    -0.348 N 
ATOM     15  C   UNL     1      11.558  -7.767  -0.861  0.00  0.00    +0.070 C 
ATOM     16  C   UNL     1      11.320  -6.592   0.098  0.00  0.00    +0.088 C 
ATOM     17  N   UNL     1       9.900  -6.211   0.069  0.00  0.00    -0.305 NA
ATOM     18  H   UNL     1       9.667  -5.625   0.855  0.00  0.00    +0.123 HD
ATOM     19  H   UNL     1       9.025  -5.773  -4.013  0.00  0.00    +0.166 HD
ENDROOT
BRANCH   1  20
ATOM     20  C   UNL     1       6.146  -2.054  -0.068  0.00  0.00    +0.114 C 
BRANCH  20  21
ATOM     21  C   UNL     1       5.671  -0.599  -0.056  0.00  0.00    +0.114 C 
BRANCH  21  24
ATOM     22  C   UNL     1       3.561   0.619  -0.029  0.00  0.00    +0.279 C 
ATOM     23  O   UNL     1       4.195   1.658  -0.030  0.00  0.00    -0.267 OA
ATOM     24  N   UNL     1       4.206  -0.564  -0.042  0.00  0.00    -0.308 N 
ATOM     25  H   UNL     1       3.701  -1.392  -0.041  0.00  0.00    +0.149 HD
BRANCH  22  28
ATOM     26  C   UNL     1      -0.016   1.347   0.009  0.00  0.00    +0.042 A 
ATOM     27  C   UNL     1       1.319   1.778  -0.001  0.00  0.00    +0.054 A 
ATOM     28  C   UNL     1       2.095   0.654  -0.014  0.00  0.00    +0.189 A 
ATOM     29  O   UNL     1       1.276  -0.418  -0.012  0.00  0.00    -0.458 OA
ATOM     30  C   UNL     1       0.002  -0.004   0.002  0.00  0.00    +0.196 A 
ENDBRANCH  22  28
ENDBRANCH  21  24
ENDBRANCH  20  21
ENDBRANCH   1  20
TORSDOF 4
