REMARK  Name = ZINC06150548
REMARK  6 active torsions:
REMARK  status: ('A' for Active; 'I' for Inactive)
REMARK    1  A    between atoms: C_7  and  S_32
REMARK    2  A    between atoms: C_9  and  N_12
REMARK    3  A    between atoms: C_10  and  O_11
REMARK    4  A    between atoms: N_13  and  C_14
REMARK    5  A    between atoms: C_18  and  C_20
REMARK    6  A    between atoms: C_21  and  C_22
REMARK                            x       y       z     vdW  Elec       q    Type
REMARK                         _______ _______ _______ _____ _____    ______ ____
ROOT
ATOM      1  N   UNL     1       1.256  -2.028  -0.144  0.00  0.00    -0.146 NA
ATOM      2  N   UNL     1       2.387  -2.646  -0.214  0.00  0.00    -0.149 NA
ENDROOT
BRANCH   1  11
ATOM      3  C   UNL     1      -0.008   4.172   0.209  0.00  0.00    +0.001 A 
ATOM      4  C   UNL     1      -1.210   3.470   0.217  0.00  0.00    +0.001 A 
ATOM      5  C   UNL     1      -1.227   2.110   0.145  0.00  0.00    +0.012 A 
ATOM      6  C   UNL     1      -0.016   1.402   0.072  0.00  0.00    +0.028 A 
ATOM      7  C   UNL     1       1.208   2.117   0.065  0.00  0.00    +0.013 A 
ATOM      8  C   UNL     1       1.185   3.519   0.135  0.00  0.00    +0.010 A 
ATOM      9  C   UNL     1       2.427   1.415  -0.013  0.00  0.00    +0.130 A 
ATOM     10  C   UNL     1       2.431   0.060  -0.081  0.00  0.00    +0.063 A 
ATOM     11  C   UNL     1       1.226  -0.668  -0.075  0.00  0.00    +0.130 A 
ATOM     12  C   UNL     1       0.002  -0.004   0.002  0.00  0.00    +0.152 A 
BRANCH   9  13
ATOM     13  S   UNL     1       3.951   2.299  -0.022  0.00  0.00    +0.140 S 
ATOM     14  O   UNL     1       4.945   1.391  -0.477  0.00  0.00    -0.140 OA
ATOM     15  O   UNL     1       3.697   3.538  -0.670  0.00  0.00    -0.140 OA
ATOM     16  O   UNL     1       4.290   2.627   1.425  0.00  0.00    -0.043 OA
ENDBRANCH   9  13
BRANCH  12  17
ATOM     17  O   UNL     1      -1.158  -0.705   0.007  0.00  0.00    -0.504 OA
ATOM     18  H   UNL     1      -1.526  -0.864  -0.873  0.00  0.00    +0.292 HD
ENDBRANCH  12  17
ENDBRANCH   1  11
BRANCH   2  19
ATOM     19  C   UNL     1       2.417  -4.011  -0.283  0.00  0.00    +0.087 A 
ATOM     20  C   UNL     1       1.223  -4.740  -0.277  0.00  0.00    +0.029 A 
ATOM     21  C   UNL     1       1.251  -6.118  -0.347  0.00  0.00    +0.003 A 
ATOM     22  C   UNL     1       2.456  -6.788  -0.423  0.00  0.00    +0.008 A 
ATOM     23  C   UNL     1       3.659  -6.074  -0.430  0.00  0.00    -0.023 A 
ATOM     24  C   UNL     1       3.638  -4.680  -0.366  0.00  0.00    +0.037 A 
BRANCH  23  25
ATOM     25  C   UNL     1       4.943  -6.790  -0.511  0.00  0.00    +0.011 C 
ATOM     26  C   UNL     1       4.961  -8.134  -0.579  0.00  0.00    +0.047 C 
BRANCH  26  27
ATOM     27  C   UNL     1       6.240  -8.848  -0.660  0.00  0.00    +0.132 A 
ATOM     28  N   UNL     1       6.382 -10.211  -0.728  0.00  0.00    -0.338 N 
ATOM     29  H   UNL     1       5.645 -10.886  -0.729  0.00  0.00    +0.167 HD
ATOM     30  C   UNL     1       7.737 -10.474  -0.795  0.00  0.00    +0.066 A 
ATOM     31  C   UNL     1       8.488 -11.637  -0.879  0.00  0.00    +0.028 A 
ATOM     32  C   UNL     1       9.865 -11.561  -0.923  0.00  0.00    +0.002 A 
ATOM     33  C   UNL     1      10.503 -10.329  -0.884  0.00  0.00    +0.002 A 
ATOM     34  C   UNL     1       9.781  -9.172  -0.801  0.00  0.00    +0.030 A 
ATOM     35  C   UNL     1       8.383  -9.225  -0.754  0.00  0.00    +0.089 A 
ATOM     36  N   UNL     1       7.425  -8.279  -0.673  0.00  0.00    -0.228 NA
ENDBRANCH  26  27
ENDBRANCH  23  25
ENDBRANCH   2  19
TORSDOF 6
