REMARK  Name = ZINC11879172
REMARK  5 active torsions:
REMARK  status: ('A' for Active; 'I' for Inactive)
REMARK    1  A    between atoms: C_4  and  C_7
REMARK    2  A    between atoms: C_7  and  N_8
REMARK    3  A    between atoms: C_12  and  C_15
REMARK    4  A    between atoms: C_12  and  O_21
REMARK    5  A    between atoms: C_15  and  N_54
REMARK                            x       y       z     vdW  Elec       q    Type
REMARK                         _______ _______ _______ _____ _____    ______ ____
ROOT
ATOM      1  N   UNL     1       1.934  -1.603   0.866  0.00  0.00    -0.299 N 
ATOM      2  C   UNL     1       2.579  -1.876  -0.413  0.00  0.00    +0.108 C 
ATOM      3  C   UNL     1       2.076  -0.906  -1.483  0.00  0.00    +0.022 C 
ATOM      4  C   UNL     1       0.543  -0.912  -1.470  0.00  0.00    +0.044 C 
ATOM      5  C   UNL     1       0.068  -0.291  -0.154  0.00  0.00    +0.127 C 
ATOM      6  C   UNL     1       0.800  -0.915   0.999  0.00  0.00    +0.245 C 
ATOM      7  O   UNL     1       0.334  -0.786   2.111  0.00  0.00    -0.273 OA
ENDROOT
BRANCH   5   8
ATOM      8  O   UNL     1       0.324   1.115  -0.174  0.00  0.00    -0.381 OA
ATOM      9  H   UNL     1       1.258   1.343  -0.278  0.00  0.00    +0.211 HD
ENDBRANCH   5   8
BRANCH   1  10
ATOM     10  C   UNL     1       2.572  -2.118   2.080  0.00  0.00    +0.111 C 
BRANCH  10  14
ATOM     11  C   UNL     1       6.240  -0.314   3.500  0.00  0.00    +0.000 C 
ATOM     12  C   UNL     1       5.101  -0.516   4.501  0.00  0.00    +0.000 C 
ATOM     13  C   UNL     1       4.122  -1.559   3.957  0.00  0.00    +0.005 C 
ATOM     14  C   UNL     1       3.550  -1.075   2.624  0.00  0.00    +0.006 C 
ATOM     15  C   UNL     1       4.689  -0.873   1.623  0.00  0.00    +0.005 C 
ATOM     16  C   UNL     1       5.667   0.170   2.166  0.00  0.00    +0.000 C 
ENDBRANCH  10  14
ENDBRANCH   1  10
BRANCH   5  17
ATOM     17  C   UNL     1      -1.434  -0.532   0.009  0.00  0.00    -0.034 C 
BRANCH  17  23
ATOM     18  C   UNL     1      -2.195   1.423  -1.200  0.00  0.00    -0.079 C 
ATOM     19  C   UNL     1      -2.805   1.898  -2.520  0.00  0.00    -0.019 C 
ATOM     20  C   UNL     1      -4.214   1.315  -2.664  0.00  0.00    -0.004 C 
ATOM     21  C   UNL     1      -4.135  -0.213  -2.596  0.00  0.00    -0.019 C 
ATOM     22  C   UNL     1      -3.486  -0.626  -1.273  0.00  0.00    -0.079 C 
ATOM     23  N   UNL     1      -2.124  -0.054  -1.207  0.00  0.00    +0.382 N 
ATOM     24  H   UNL     1      -1.595  -0.358  -2.033  0.00  0.00    -0.082 HD
ENDBRANCH  17  23
ENDBRANCH   5  17
TORSDOF 5
