REMARK  Name = ZINC36786625
REMARK  12 active torsions:
REMARK  status: ('A' for Active; 'I' for Inactive)
REMARK    1  A    between atoms: C_1  and  C_2
REMARK    2  A    between atoms: C_2  and  C_3
REMARK    3  A    between atoms: C_3  and  C_4
REMARK    4  A    between atoms: C_8  and  C_21
REMARK    5  A    between atoms: C_10  and  N_13
REMARK    6  A    between atoms: N_13  and  C_14
REMARK    7  A    between atoms: N_13  and  C_15
REMARK    8  A    between atoms: C_15  and  C_17
REMARK    9  A    between atoms: C_15  and  C_18
REMARK   10  A    between atoms: C_18  and  C_19
REMARK   11  A    between atoms: C_18  and  C_20
REMARK   12  A    between atoms: C_21  and  N_22
REMARK                            x       y       z     vdW  Elec       q    Type
REMARK                         _______ _______ _______ _____ _____    ______ ____
ROOT
ATOM      1  C   UNL     1      -2.045  -3.470  -1.092  0.00  0.00    -0.012 C 
ATOM      2  C   UNL     1      -1.114  -3.204   0.093  0.00  0.00    +0.003 C 
ATOM      3  C   UNL     1      -0.177  -4.398   0.284  0.00  0.00    +0.000 C 
ATOM      4  C   UNL     1       0.655  -4.602  -0.984  0.00  0.00    -0.042 C 
ATOM      5  C   UNL     1      -0.276  -4.869  -2.168  0.00  0.00    -0.067 C 
ATOM      6  C   UNL     1      -1.213  -3.674  -2.359  0.00  0.00    -0.012 C 
ENDROOT
BRANCH   5   7
ATOM      7  N   UNL     1       0.523  -5.064  -3.385  0.00  0.00    +0.382 N 
ATOM      8  C   UNL     1       1.262  -6.330  -3.287  0.00  0.00    -0.095 C 
ATOM      9  H   UNL     1       1.175  -4.301  -3.485  0.00  0.00    -0.081 HD
BRANCH   7  10
ATOM     10  C   UNL     1      -0.366  -5.105  -4.553  0.00  0.00    -0.069 C 
ATOM     11  C   UNL     1      -1.669  -5.814  -4.178  0.00  0.00    -0.013 C 
BRANCH  10  12
ATOM     12  C   UNL     1      -0.675  -3.677  -5.009  0.00  0.00    -0.031 C 
ATOM     13  C   UNL     1       0.608  -3.014  -5.514  0.00  0.00    +0.005 C 
ATOM     14  C   UNL     1      -1.708  -3.714  -6.138  0.00  0.00    +0.005 C 
ENDBRANCH  10  12
ENDBRANCH   7  10
ENDBRANCH   5   7
BRANCH   1  15
ATOM     15  C   UNL     1      -2.982  -2.276  -1.283  0.00  0.00    +0.003 C 
BRANCH  15  17
ATOM     16  C   UNL     1      -4.837  -0.954  -0.258  0.00  0.00    +0.004 C 
ATOM     17  C   UNL     1      -3.901  -2.148  -0.066  0.00  0.00    -0.003 C 
ENDBRANCH  15  17
ENDBRANCH   1  15
BRANCH   4  18
ATOM     18  C   UNL     1       1.592  -5.796  -0.792  0.00  0.00    -0.085 C 
BRANCH  18  19
ATOM     19  N   UNL     1       1.916  -5.941   0.633  0.00  0.00    +0.378 N 
ATOM     20  H   UNL     1       2.369  -5.102   0.962  0.00  0.00    -0.090 HD
ATOM     21  H   UNL     1       1.067  -6.092   1.157  0.00  0.00    -0.090 HD
ATOM     22  H   UNL     1       2.533  -6.729   0.759  0.00  0.00    -0.090 HD
ENDBRANCH  18  19
ENDBRANCH   4  18
TORSDOF 7
