REMARK  Name = ZINC38101825
REMARK  8 active torsions:
REMARK  status: ('A' for Active; 'I' for Inactive)
REMARK    1  A    between atoms: C_1  and  O_2
REMARK    2  A    between atoms: O_2  and  C_3
REMARK    3  A    between atoms: C_11  and  C_13
REMARK    4  A    between atoms: C_13  and  C_15
REMARK    5  A    between atoms: C_13  and  N_21
REMARK    6  A    between atoms: C_15  and  C_16
REMARK    7  A    between atoms: C_16  and  S_17
REMARK    8  A    between atoms: S_17  and  C_20
REMARK                            x       y       z     vdW  Elec       q    Type
REMARK                         _______ _______ _______ _____ _____    ______ ____
ROOT
ATOM      1  C   UNL     1      -1.189  -0.632   0.010  0.00  0.00    +0.403 C 
ATOM      2  O   UNL     1      -2.217   0.016   0.023  0.00  0.00    -0.226 OA
ATOM      3  N   UNL     1      -1.241  -1.978   0.003  0.00  0.00    -0.264 N 
ATOM      4  C   UNL     1      -0.006  -2.775  -0.007  0.00  0.00    +0.130 C 
ATOM      5  C   UNL     1      -0.038  -3.743   1.183  0.00  0.00    +0.127 C 
ATOM      6  N   UNL     1      -1.331  -4.441   1.186  0.00  0.00    -0.300 N 
ATOM      7  C   UNL     1      -2.566  -3.645   1.196  0.00  0.00    +0.127 C 
ATOM      8  C   UNL     1      -2.534  -2.677   0.012  0.00  0.00    +0.130 C 
ATOM      9  C   UNL     1      -1.383  -5.788   1.179  0.00  0.00    +0.201 C 
ATOM     10  O   UNL     1      -0.357  -6.434   1.170  0.00  0.00    -0.277 OA
ENDROOT
BRANCH   1  12
ATOM     11  C   UNL     1      -0.017   1.425   0.010  0.00  0.00    +0.282 C 
ATOM     12  O   UNL     1       0.002  -0.004   0.002  0.00  0.00    -0.454 OA
ENDBRANCH   1  12
BRANCH   9  13
ATOM     13  C   UNL     1      -2.716  -6.490   1.182  0.00  0.00    +0.014 C 
BRANCH  13  14
ATOM     14  N   UNL     1      -2.546  -7.867   0.700  0.00  0.00    +0.386 N 
ATOM     15  H   UNL     1      -1.905  -8.358   1.306  0.00  0.00    -0.089 HD
ATOM     16  H   UNL     1      -3.438  -8.338   0.702  0.00  0.00    -0.089 HD
ATOM     17  H   UNL     1      -2.176  -7.852  -0.238  0.00  0.00    -0.089 HD
ENDBRANCH  13  14
BRANCH  13  18
ATOM     18  C   UNL     1      -3.277  -6.514   2.605  0.00  0.00    +0.015 C 
BRANCH  18  19
ATOM     19  C   UNL     1      -4.684  -7.114   2.589  0.00  0.00    +0.164 C 
BRANCH  19  20
ATOM     20  S   UNL     1      -5.349  -7.142   4.277  0.00  0.00    -0.034 S 
ATOM     21  O   UNL     1      -4.563  -8.034   5.055  0.00  0.00    -0.175 OA
ATOM     22  O   UNL     1      -5.513  -5.801   4.718  0.00  0.00    -0.175 OA
ATOM     23  C   UNL     1      -6.992  -7.875   4.048  0.00  0.00    +0.194 C 
ENDBRANCH  19  20
ENDBRANCH  18  19
ENDBRANCH  13  18
ENDBRANCH   9  13
TORSDOF 6
