REMARK  Name = ZINC17268832
REMARK  7 active torsions:
REMARK  status: ('A' for Active; 'I' for Inactive)
REMARK    1  A    between atoms: C_4  and  N_7
REMARK    2  A    between atoms: C_10  and  C_15
REMARK    3  A    between atoms: C_15  and  S_16
REMARK    4  A    between atoms: S_16  and  C_17
REMARK    5  A    between atoms: N_21  and  C_22
REMARK    6  A    between atoms: C_25  and  O_28
REMARK    7  A    between atoms: O_28  and  C_29
REMARK                            x       y       z     vdW  Elec       q    Type
REMARK                         _______ _______ _______ _____ _____    ______ ____
ROOT
ATOM      1  C   UNL     1       6.150  -4.710   0.344  0.00  0.00    +0.153 C 
ENDROOT
BRANCH   1   5
ATOM      2  N   UNL     1       3.621  -0.650  -0.037  0.00  0.00    -0.284 N 
ATOM      3  C   UNL     1       3.645  -2.028   0.059  0.00  0.00    +0.224 A 
ATOM      4  N   UNL     1       4.808  -2.670   0.150  0.00  0.00    -0.198 NA
ATOM      5  C   UNL     1       4.831  -3.987   0.242  0.00  0.00    +0.146 A 
ATOM      6  N   UNL     1       3.702  -4.674   0.245  0.00  0.00    -0.199 NA
ATOM      7  C   UNL     1       2.535  -4.039   0.155  0.00  0.00    +0.217 A 
ATOM      8  N   UNL     1       2.507  -2.714   0.068  0.00  0.00    -0.181 NA
ATOM      9  N   UNL     1       1.356  -4.757   0.158  0.00  0.00    -0.327 N 
ATOM     10  H   UNL     1       4.451  -0.155  -0.124  0.00  0.00    +0.155 HD
ATOM     11  H   UNL     1       1.378  -5.724   0.226  0.00  0.00    +0.145 HD
ATOM     12  H   UNL     1       0.507  -4.293   0.093  0.00  0.00    +0.145 HD
BRANCH   2  16
ATOM     13  C   UNL     1      -0.014   1.382   0.044  0.00  0.00    +0.000 A 
ATOM     14  C   UNL     1       0.143   0.219   0.777  0.00  0.00    +0.002 A 
ATOM     15  C   UNL     1       1.347  -0.457   0.752  0.00  0.00    +0.023 A 
ATOM     16  C   UNL     1       2.400   0.032  -0.010  0.00  0.00    +0.034 A 
ATOM     17  C   UNL     1       2.239   1.199  -0.745  0.00  0.00    +0.023 A 
ATOM     18  C   UNL     1       1.032   1.871  -0.716  0.00  0.00    +0.002 A 
ENDBRANCH   2  16
ENDBRANCH   1   5
BRANCH   1  19
ATOM     19  S   UNL     1       6.612  -4.881   2.090  0.00  0.00    -0.076 S 
BRANCH  19  20
ATOM     20  C   UNL     1       8.154  -5.734   2.041  0.00  0.00    +0.214 A 
ATOM     21  N   UNL     1       8.793  -6.132   0.962  0.00  0.00    -0.101 NA
ATOM     22  N   UNL     1       9.888  -6.722   1.280  0.00  0.00    -0.022 NA
ATOM     23  N   UNL     1      10.030  -6.746   2.561  0.00  0.00    -0.038 NA
ATOM     24  N   UNL     1       8.908  -6.099   3.107  0.00  0.00    -0.187 N 
BRANCH  24  25
ATOM     25  C   UNL     1       8.627  -5.879   4.465  0.00  0.00    +0.070 A 
ATOM     26  C   UNL     1       7.976  -4.718   4.860  0.00  0.00    +0.031 A 
ATOM     27  C   UNL     1       7.700  -4.503   6.196  0.00  0.00    +0.048 A 
ATOM     28  C   UNL     1       8.073  -5.446   7.143  0.00  0.00    +0.130 A 
ATOM     29  C   UNL     1       8.724  -6.606   6.748  0.00  0.00    +0.048 A 
ATOM     30  C   UNL     1       8.995  -6.825   5.412  0.00  0.00    +0.031 A 
BRANCH  28  31
ATOM     31  O   UNL     1       7.801  -5.233   8.457  0.00  0.00    -0.406 OA
BRANCH  31  32
ATOM     32  C   UNL     1       8.213  -6.246   9.377  0.00  0.00    +0.575 C 
ATOM     33  F   UNL     1       9.601  -6.408   9.302  0.00  0.00    -0.133 F 
ATOM     34  F   UNL     1       7.857  -5.869  10.677  0.00  0.00    -0.133 F 
ATOM     35  F   UNL     1       7.585  -7.453   9.054  0.00  0.00    -0.133 F 
ENDBRANCH  31  32
ENDBRANCH  28  31
ENDBRANCH  24  25
ENDBRANCH  19  20
ENDBRANCH   1  19
TORSDOF 7
