REMARK  Name = ZINC00068187
REMARK  6 active torsions:
REMARK  status: ('A' for Active; 'I' for Inactive)
REMARK    1  A    between atoms: C_1  and  C_2
REMARK    2  A    between atoms: C_2  and  C_3
REMARK    3  A    between atoms: C_10  and  N_15
REMARK    4  A    between atoms: C_11  and  C_12
REMARK    5  A    between atoms: C_16  and  C_18
REMARK    6  A    between atoms: C_21  and  C_24
REMARK                            x       y       z     vdW  Elec       q    Type
REMARK                         _______ _______ _______ _____ _____    ______ ____
ROOT
ATOM      1  C   UNL     1      -6.864   6.625  -0.312  0.00  0.00    -0.006 C 
ATOM      2  C   UNL     1      -5.980   7.553   0.526  0.00  0.00    +0.008 C 
ATOM      3  C   UNL     1      -4.526   7.444   0.063  0.00  0.00    +0.037 C 
ATOM      4  C   UNL     1      -4.123   5.975   0.054  0.00  0.00    -0.023 A 
ATOM      5  C   UNL     1      -5.056   4.998   0.053  0.00  0.00    -0.004 A 
ATOM      6  S   UNL     1      -4.131   3.489   0.041  0.00  0.00    -0.077 S 
ATOM      7  C   UNL     1      -2.527   4.144   0.036  0.00  0.00    +0.085 A 
ATOM      8  C   UNL     1      -2.745   5.514   0.051  0.00  0.00    +0.068 A 
ATOM      9  C   UNL     1      -6.544   5.170   0.059  0.00  0.00    +0.046 C 
ENDROOT
BRANCH   8  10
ATOM     10  C   UNL     1      -1.627   6.462   0.058  0.00  0.00    +0.244 C 
ATOM     11  O   UNL     1      -1.165   6.867  -0.993  0.00  0.00    -0.270 OA
ATOM     12  N   UNL     1      -1.111   6.886   1.229  0.00  0.00    -0.325 N 
ATOM     13  H   UNL     1      -1.479   6.564   2.066  0.00  0.00    +0.145 HD
ATOM     14  H   UNL     1      -0.370   7.513   1.234  0.00  0.00    +0.145 HD
ENDBRANCH   8  10
BRANCH   7  15
ATOM     15  N   UNL     1      -1.320   3.464   0.027  0.00  0.00    -0.275 N 
ATOM     16  C   UNL     1      -1.305   2.117   0.020  0.00  0.00    +0.249 C 
ATOM     17  O   UNL     1      -2.351   1.497   0.021  0.00  0.00    -0.270 OA
ATOM     18  H   UNL     1      -0.485   3.958   0.026  0.00  0.00    +0.156 HD
BRANCH  16  19
ATOM     19  C   UNL     1      -0.017   1.392   0.010  0.00  0.00    +0.037 A 
ATOM     20  C   UNL     1       1.186   2.100   0.002  0.00  0.00    +0.013 A 
ATOM     21  C   UNL     1       2.385   1.417  -0.013  0.00  0.00    +0.004 A 
ATOM     22  C   UNL     1       2.396   0.034  -0.021  0.00  0.00    -0.050 A 
ATOM     23  C   UNL     1       1.208  -0.674  -0.013  0.00  0.00    +0.004 A 
ATOM     24  C   UNL     1       0.002  -0.004   0.002  0.00  0.00    +0.013 A 
ATOM     25  C   UNL     1       3.710  -0.705  -0.038  0.00  0.00    +0.044 C 
ENDBRANCH  16  19
ENDBRANCH   7  15
BRANCH   1  27
ATOM     26  C   UNL     1      -9.218   6.079  -0.948  0.00  0.00    +0.004 C 
ATOM     27  C   UNL     1      -8.337   6.919  -0.021  0.00  0.00    +0.000 C 
ENDBRANCH   1  27
TORSDOF 4
