REMARK  Name = ZINC37725424
REMARK  12 active torsions:
REMARK  status: ('A' for Active; 'I' for Inactive)
REMARK    1  A    between atoms: C_1  and  C_2
REMARK    2  A    between atoms: C_2  and  C_3
REMARK    3  A    between atoms: C_3  and  C_5
REMARK    4  A    between atoms: C_3  and  N_22
REMARK    5  A    between atoms: C_5  and  C_6
REMARK    6  A    between atoms: C_11  and  O_12
REMARK    7  A    between atoms: O_12  and  C_13
REMARK    8  A    between atoms: C_13  and  C_14
REMARK    9  A    between atoms: N_16  and  C_17
REMARK   10  A    between atoms: C_17  and  C_18
REMARK   11  A    between atoms: C_17  and  C_19
REMARK   12  A    between atoms: C_17  and  C_20
REMARK                            x       y       z     vdW  Elec       q    Type
REMARK                         _______ _______ _______ _____ _____    ______ ____
ROOT
ATOM      1  C   UNL     1      -2.829  -2.568  -0.234  0.00  0.00    -0.006 A 
ATOM      2  C   UNL     1      -3.500  -3.000   0.894  0.00  0.00    +0.022 A 
ATOM      3  C   UNL     1      -4.797  -3.469   0.791  0.00  0.00    +0.018 A 
ATOM      4  C   UNL     1      -5.426  -3.507  -0.441  0.00  0.00    +0.019 A 
ATOM      5  C   UNL     1      -4.758  -3.076  -1.571  0.00  0.00    +0.047 A 
ATOM      6  C   UNL     1      -3.459  -2.600  -1.469  0.00  0.00    +0.124 A 
ATOM      7 BR   UNL     1      -5.713  -4.059   2.336  0.00  0.00    -0.050 Br
ENDROOT
BRANCH   1   8
ATOM      8  C   UNL     1      -1.416  -2.058  -0.121  0.00  0.00    +0.022 C 
BRANCH   8   9
ATOM      9  C   UNL     1      -1.433  -0.534   0.013  0.00  0.00    -0.071 C 
BRANCH   9  10
ATOM     10  N   UNL     1      -2.083  -0.161   1.276  0.00  0.00    +0.380 N 
ATOM     11  H   UNL     1      -1.571  -0.560   2.049  0.00  0.00    -0.090 HD
ATOM     12  H   UNL     1      -2.095   0.844   1.365  0.00  0.00    -0.090 HD
ATOM     13  H   UNL     1      -3.030  -0.510   1.284  0.00  0.00    -0.090 HD
ENDBRANCH   9  10
BRANCH   9  15
ATOM     14  C   UNL     1      -0.019   1.526   0.010  0.00  0.00    +0.002 C 
ATOM     15  C   UNL     1       0.002  -0.004   0.002  0.00  0.00    -0.019 C 
ENDBRANCH   9  15
ENDBRANCH   8   9
ENDBRANCH   1   8
BRANCH   6  16
ATOM     16  O   UNL     1      -2.802  -2.171  -2.579  0.00  0.00    -0.483 OA
BRANCH  16  17
ATOM     17  C   UNL     1      -3.513  -2.233  -3.818  0.00  0.00    +0.324 C 
BRANCH  17  18
ATOM     18  C   UNL     1      -2.632  -1.720  -4.928  0.00  0.00    +0.251 C 
ATOM     19  O   UNL     1      -1.507  -1.339  -4.683  0.00  0.00    -0.272 OA
ATOM     20  N   UNL     1      -3.095  -1.684  -6.193  0.00  0.00    -0.308 N 
ATOM     21  H   UNL     1      -3.995  -1.988  -6.389  0.00  0.00    +0.149 HD
BRANCH  20  22
ATOM     22  C   UNL     1      -2.239  -1.186  -7.272  0.00  0.00    +0.026 C 
ATOM     23  C   UNL     1      -0.979  -2.049  -7.364  0.00  0.00    +0.031 C 
ATOM     24  C   UNL     1      -2.999  -1.251  -8.598  0.00  0.00    +0.031 C 
ATOM     25  C   UNL     1      -1.844   0.264  -6.982  0.00  0.00    +0.031 C 
ENDBRANCH  20  22
ENDBRANCH  17  18
ENDBRANCH  16  17
ENDBRANCH   6  16
TORSDOF 8
