REMARK  Name = ZINC43564136
REMARK  10 active torsions:
REMARK  status: ('A' for Active; 'I' for Inactive)
REMARK    1  A    between atoms: C_1  and  C_2
REMARK    2  A    between atoms: C_5  and  N_8
REMARK    3  A    between atoms: C_9  and  C_11
REMARK    4  A    between atoms: C_11  and  N_12
REMARK    5  A    between atoms: N_12  and  C_13
REMARK    6  A    between atoms: N_12  and  C_14
REMARK    7  A    between atoms: C_14  and  C_16
REMARK    8  A    between atoms: C_14  and  C_17
REMARK    9  A    between atoms: N_22  and  C_23
REMARK   10  A    between atoms: C_26  and  C_29
REMARK                            x       y       z     vdW  Elec       q    Type
REMARK                         _______ _______ _______ _____ _____    ______ ____
ROOT
ATOM      1  C   UNL     1       0.833  -8.277   2.563  0.00  0.00    +0.017 C 
ATOM      2  C   UNL     1       1.134  -8.553   4.037  0.00  0.00    -0.004 C 
ENDROOT
BRANCH   1   3
ATOM      3  C   UNL     1       2.090  -8.454   1.752  0.00  0.00    +0.207 C 
ATOM      4  O   UNL     1       2.695  -7.483   1.351  0.00  0.00    -0.277 OA
ATOM      5  N   UNL     1       2.542  -9.693   1.471  0.00  0.00    -0.241 N 
ATOM      6  C   UNL     1       3.667  -9.852   0.746  0.00  0.00    +0.310 C 
ATOM      7  O   UNL     1       4.273  -8.878   0.344  0.00  0.00    -0.252 OA
ATOM      8  N   UNL     1       4.119 -11.090   0.465  0.00  0.00    -0.269 N 
ATOM      9  H   UNL     1       2.058 -10.470   1.792  0.00  0.00    +0.159 HD
ATOM     10  H   UNL     1       3.596 -11.866   0.720  0.00  0.00    +0.156 HD
BRANCH   8  11
ATOM     11  C   UNL     1       5.342 -11.256  -0.194  0.00  0.00    +0.035 A 
ATOM     12  C   UNL     1       5.522 -12.319  -1.069  0.00  0.00    +0.023 A 
ATOM     13  C   UNL     1       6.731 -12.480  -1.718  0.00  0.00    +0.005 A 
ATOM     14  C   UNL     1       7.760 -11.584  -1.497  0.00  0.00    -0.050 A 
ATOM     15  C   UNL     1       7.584 -10.524  -0.626  0.00  0.00    +0.005 A 
ATOM     16  C   UNL     1       6.376 -10.354   0.021  0.00  0.00    +0.023 A 
ATOM     17  C   UNL     1       9.078 -11.762  -2.207  0.00  0.00    +0.044 C 
ENDBRANCH   8  11
ENDBRANCH   1   3
BRANCH   1  18
ATOM     18  N   UNL     1       0.343  -6.900   2.413  0.00  0.00    +0.391 N 
ATOM     19  C   UNL     1      -0.845  -6.708   3.255  0.00  0.00    -0.094 C 
ATOM     20  H   UNL     1       1.064  -6.254   2.697  0.00  0.00    -0.080 HD
BRANCH  18  21
ATOM     21  C   UNL     1      -0.007  -6.655   1.008  0.00  0.00    +0.020 C 
BRANCH  21  23
ATOM     22  N   UNL     1      -0.685  -4.737  -0.399  0.00  0.00    -0.287 N 
ATOM     23  C   UNL     1      -0.333  -5.196   0.818  0.00  0.00    +0.201 C 
ATOM     24  O   UNL     1      -0.279  -4.435   1.761  0.00  0.00    -0.278 OA
ATOM     25  H   UNL     1      -0.795  -5.356  -1.138  0.00  0.00    +0.155 HD
BRANCH  22  30
ATOM     26  C   UNL     1      -1.522   0.816  -1.204  0.00  0.00    +0.044 C 
ATOM     27  C   UNL     1      -1.300  -0.659  -0.990  0.00  0.00    -0.050 A 
ATOM     28  C   UNL     1      -0.327  -1.089  -0.107  0.00  0.00    +0.005 A 
ATOM     29  C   UNL     1      -0.121  -2.441   0.092  0.00  0.00    +0.023 A 
ATOM     30  C   UNL     1      -0.892  -3.368  -0.597  0.00  0.00    +0.033 A 
ATOM     31  C   UNL     1      -1.868  -2.932  -1.484  0.00  0.00    +0.023 A 
ATOM     32  C   UNL     1      -2.073  -1.580  -1.674  0.00  0.00    +0.005 A 
ENDBRANCH  22  30
ENDBRANCH  21  23
ENDBRANCH  18  21
ENDBRANCH   1  18
TORSDOF 6
