REMARK  Name = ZINC64479944
REMARK  7 active torsions:
REMARK  status: ('A' for Active; 'I' for Inactive)
REMARK    1  A    between atoms: C_7  and  C_10
REMARK    2  A    between atoms: C_10  and  C_11
REMARK    3  A    between atoms: C_11  and  N_12
REMARK    4  A    between atoms: C_15  and  C_20
REMARK    5  A    between atoms: C_20  and  C_21
REMARK    6  A    between atoms: C_21  and  C_22
REMARK    7  A    between atoms: N_24  and  C_25
REMARK                            x       y       z     vdW  Elec       q    Type
REMARK                         _______ _______ _______ _____ _____    ______ ____
ROOT
ATOM      1  N   UNL     1      -0.457  -4.803  -1.448  0.00  0.00    -0.224 N 
ATOM      2  C   UNL     1      -0.059  -6.088  -1.366  0.00  0.00    +0.243 C 
ATOM      3  O   UNL     1       1.079  -6.498  -1.282  0.00  0.00    -0.273 OA
ATOM      4  C   UNL     1      -1.329  -6.914  -1.399  0.00  0.00    +0.161 C 
ATOM      5  N   UNL     1      -2.396  -5.904  -1.507  0.00  0.00    -0.288 N 
ATOM      6  C   UNL     1      -1.789  -4.704  -1.523  0.00  0.00    +0.309 C 
ATOM      7  O   UNL     1      -2.384  -3.647  -1.601  0.00  0.00    -0.252 OA
ATOM      8  H   UNL     1      -3.350  -6.072  -1.554  0.00  0.00    +0.151 HD
ENDROOT
BRANCH   1   9
ATOM      9  C   UNL     1       0.455  -3.657  -1.449  0.00  0.00    +0.122 C 
BRANCH   9  10
ATOM     10  C   UNL     1       0.696  -3.196  -0.010  0.00  0.00    +0.052 C 
BRANCH  10  17
ATOM     11  C   UNL     1      -0.020   1.336   0.050  0.00  0.00    +0.001 A 
ATOM     12  C   UNL     1       1.161   2.092   0.040  0.00  0.00    +0.002 A 
ATOM     13  C   UNL     1       2.387   1.528   0.016  0.00  0.00    +0.026 A 
ATOM     14  C   UNL     1       2.527   0.113  -0.001  0.00  0.00    +0.043 A 
ATOM     15  N   UNL     1       3.587  -0.659  -0.025  0.00  0.00    -0.380 N 
ATOM     16  C   UNL     1       3.146  -2.058  -0.034  0.00  0.00    +0.144 C 
ATOM     17  C   UNL     1       1.634  -2.017  -0.011  0.00  0.00    -0.040 C 
ATOM     18  C   UNL     1       1.295  -0.708   0.009  0.00  0.00    -0.001 A 
ATOM     19  C   UNL     1       0.001  -0.016   0.035  0.00  0.00    +0.010 A 
ATOM     20  H   UNL     1       4.508  -0.355  -0.036  0.00  0.00    +0.160 HD
ENDBRANCH  10  17
ENDBRANCH   9  10
ENDBRANCH   1   9
BRANCH   4  21
ATOM     21  C   UNL     1      -1.337  -7.841  -2.617  0.00  0.00    +0.041 C 
BRANCH  21  22
ATOM     22  C   UNL     1      -2.567  -8.749  -2.559  0.00  0.00    +0.098 C 
BRANCH  22  23
ATOM     23  C   UNL     1      -2.574  -9.662  -3.758  0.00  0.00    +0.217 C 
ATOM     24  O   UNL     1      -1.683  -9.594  -4.578  0.00  0.00    -0.275 OA
ATOM     25  N   UNL     1      -3.571 -10.555  -3.919  0.00  0.00    -0.285 N 
ATOM     26  H   UNL     1      -4.247 -10.657  -3.231  0.00  0.00    +0.155 HD
BRANCH  25  27
ATOM     27  C   UNL     1      -3.630 -11.336  -5.080  0.00  0.00    +0.035 A 
ATOM     28  C   UNL     1      -4.860 -11.669  -5.631  0.00  0.00    +0.026 A 
ATOM     29  C   UNL     1      -4.918 -12.439  -6.776  0.00  0.00    +0.041 A 
ATOM     30  C   UNL     1      -3.749 -12.879  -7.375  0.00  0.00    +0.142 A 
ATOM     31  C   UNL     1      -2.521 -12.548  -6.827  0.00  0.00    +0.078 A 
ATOM     32  C   UNL     1      -2.459 -11.773  -5.684  0.00  0.00    +0.046 A 
ATOM     33 CL   UNL     1      -1.057 -13.100  -7.581  0.00  0.00    -0.081 Cl
ATOM     34  F   UNL     1      -3.808 -13.633  -8.495  0.00  0.00    -0.204 F 
ENDBRANCH  25  27
ENDBRANCH  22  23
ENDBRANCH  21  22
ENDBRANCH   4  21
TORSDOF 7
