REMARK  Name = ZINC20686378
REMARK  7 active torsions:
REMARK  status: ('A' for Active; 'I' for Inactive)
REMARK    1  A    between atoms: C_1  and  N_2
REMARK    2  A    between atoms: N_5  and  S_8
REMARK    3  A    between atoms: S_8  and  C_11
REMARK    4  A    between atoms: C_24  and  C_27
REMARK    5  A    between atoms: C_30  and  N_33
REMARK    6  A    between atoms: N_33  and  C_34
REMARK    7  A    between atoms: N_33  and  C_35
REMARK                            x       y       z     vdW  Elec       q    Type
REMARK                         _______ _______ _______ _____ _____    ______ ____
ROOT
ATOM      1  C   UNL     1      -5.291   2.258   0.974  0.00  0.00    +0.106 A 
ATOM      2  C   UNL     1      -5.176   3.329   1.841  0.00  0.00    +0.030 A 
ATOM      3  C   UNL     1      -3.920   3.733   2.281  0.00  0.00    +0.025 A 
ATOM      4  C   UNL     1      -2.787   3.063   1.838  0.00  0.00    +0.031 A 
ATOM      5  C   UNL     1      -2.902   1.987   0.961  0.00  0.00    -0.018 A 
ATOM      6  C   UNL     1      -4.164   1.592   0.537  0.00  0.00    +0.034 A 
ATOM      7  C   UNL     1      -1.710   1.234   0.462  0.00  0.00    +0.049 C 
ATOM      8  C   UNL     1      -1.395   1.584  -0.973  0.00  0.00    -0.023 C 
ATOM      9  C   UNL     1      -0.099   1.600  -1.163  0.00  0.00    -0.030 C 
ATOM     10  C   UNL     1       0.630   1.257   0.123  0.00  0.00    +0.033 C 
ATOM     11  C   UNL     1      -0.414   1.580   1.231  0.00  0.00    +0.029 C 
ATOM     12  C   UNL     1      -0.350   3.087   1.494  0.00  0.00    +0.105 C 
ATOM     13  N   UNL     1      -1.526   3.484   2.275  0.00  0.00    -0.336 N 
ATOM     14  H   UNL     1      -1.404   4.097   3.180  0.00  0.00    +0.147 HD
ENDROOT
BRANCH  12  15
ATOM     15  C   UNL     1      -0.342   3.829   0.182  0.00  0.00    -0.027 A 
ATOM     16  C   UNL     1       0.859   4.131  -0.432  0.00  0.00    +0.007 A 
ATOM     17  C   UNL     1       0.870   4.806  -1.637  0.00  0.00    +0.023 A 
ATOM     18  C   UNL     1      -0.328   5.190  -2.227  0.00  0.00    +0.029 A 
ATOM     19  C   UNL     1      -1.533   4.889  -1.604  0.00  0.00    +0.023 A 
ATOM     20  C   UNL     1      -1.536   4.210  -0.402  0.00  0.00    +0.007 A 
BRANCH  18  21
ATOM     21  N   UNL     1      -0.321   5.877  -3.443  0.00  0.00    -0.336 N 
ATOM     22  C   UNL     1      -1.575   6.388  -4.003  0.00  0.00    +0.129 C 
ATOM     23  C   UNL     1       0.940   6.085  -4.159  0.00  0.00    +0.129 C 
ENDBRANCH  18  21
ENDBRANCH  12  15
BRANCH   1  24
ATOM     24  S   UNL     1      -6.883   1.742   0.423  0.00  0.00    +0.061 S 
ATOM     25  O   UNL     1      -7.740   2.869   0.546  0.00  0.00    -0.153 OA
ATOM     26  O   UNL     1      -6.687   1.064  -0.810  0.00  0.00    -0.153 OA
BRANCH  24  31
ATOM     27  C   UNL     1      -7.012  -1.738   4.955  0.00  0.00    -0.096 C 
ATOM     28  N   UNL     1      -7.456  -1.071   3.723  0.00  0.00    +0.380 N 
ATOM     29  C   UNL     1      -7.580   0.378   3.924  0.00  0.00    -0.062 C 
ATOM     30  C   UNL     1      -8.215   1.011   2.681  0.00  0.00    +0.091 C 
ATOM     31  N   UNL     1      -7.431   0.611   1.502  0.00  0.00    -0.180 NA
ATOM     32  C   UNL     1      -7.153  -0.819   1.304  0.00  0.00    +0.091 C 
ATOM     33  C   UNL     1      -6.555  -1.379   2.604  0.00  0.00    -0.062 C 
ATOM     34  H   UNL     1      -8.452  -1.460   3.467  0.00  0.00    -0.082 HD
ENDBRANCH  24  31
ENDBRANCH   1  24
TORSDOF 4
