REMARK  Name = ZINC47998332
REMARK  8 active torsions:
REMARK  status: ('A' for Active; 'I' for Inactive)
REMARK    1  A    between atoms: C_1  and  C_2
REMARK    2  A    between atoms: C_2  and  C_3
REMARK    3  A    between atoms: C_2  and  C_4
REMARK    4  A    between atoms: C_2  and  C_5
REMARK    5  A    between atoms: C_11  and  N_13
REMARK    6  A    between atoms: C_14  and  C_16
REMARK    7  A    between atoms: N_18  and  C_19
REMARK    8  A    between atoms: C_20  and  C_24
REMARK                            x       y       z     vdW  Elec       q    Type
REMARK                         _______ _______ _______ _____ _____    ______ ____
ROOT
ATOM      1  N   UNL     1       2.163   1.387  -1.333  0.00  0.00    -0.304 N 
ATOM      2  C   UNL     1       3.323   1.978  -0.984  0.00  0.00    +0.300 C 
ATOM      3  O   UNL     1       4.293   1.300  -0.719  0.00  0.00    -0.265 OA
ATOM      4  H   UNL     1       1.387   1.930  -1.546  0.00  0.00    +0.149 HD
ENDROOT
BRANCH   1  10
ATOM      5  C   UNL     1       0.644  -0.511  -1.067  0.00  0.00    +0.015 C 
ATOM      6  C   UNL     1      -0.321   0.101  -2.085  0.00  0.00    +0.006 C 
ATOM      7  C   UNL     1       0.051  -0.376  -3.491  0.00  0.00    +0.000 C 
ATOM      8  C   UNL     1       1.480   0.061  -3.816  0.00  0.00    +0.002 C 
ATOM      9  C   UNL     1       2.445  -0.550  -2.799  0.00  0.00    +0.022 C 
ATOM     10  C   UNL     1       2.074  -0.074  -1.393  0.00  0.00    +0.077 C 
BRANCH   5  12
ATOM     11  C   UNL     1       0.204   1.494   0.357  0.00  0.00    +0.011 C 
ATOM     12  C   UNL     1       0.273  -0.034   0.338  0.00  0.00    -0.033 C 
ATOM     13  C   UNL     1       1.332  -0.510   1.335  0.00  0.00    +0.011 C 
ATOM     14  C   UNL     1      -1.090  -0.610   0.728  0.00  0.00    +0.011 C 
ENDBRANCH   5  12
ENDBRANCH   1  10
BRANCH   2  15
ATOM     15  C   UNL     1       3.413   3.467  -0.924  0.00  0.00    +0.304 C 
ATOM     16  O   UNL     1       2.442   4.146  -1.189  0.00  0.00    -0.265 OA
ATOM     17  N   UNL     1       4.573   4.058  -0.574  0.00  0.00    -0.272 N 
ATOM     18  H   UNL     1       5.349   3.516  -0.362  0.00  0.00    +0.156 HD
BRANCH  17  19
ATOM     19  C   UNL     1       4.657   5.438  -0.518  0.00  0.00    +0.084 A 
ATOM     20  C   UNL     1       5.760   6.213  -0.187  0.00  0.00    +0.065 A 
ATOM     21  C   UNL     1       5.573   7.645  -0.207  0.00  0.00    +0.022 A 
ATOM     22  C   UNL     1       4.342   8.072  -0.546  0.00  0.00    +0.048 A 
ATOM     23  S   UNL     1       3.452   6.559  -0.842  0.00  0.00    -0.081 S 
BRANCH  20  24
ATOM     24  C   UNL     1       7.050   5.609   0.165  0.00  0.00    +0.244 C 
ATOM     25  O   UNL     1       7.172   4.398   0.172  0.00  0.00    -0.270 OA
ATOM     26  N   UNL     1       8.098   6.395   0.481  0.00  0.00    -0.325 N 
ATOM     27  H   UNL     1       8.000   7.360   0.476  0.00  0.00    +0.145 HD
ATOM     28  H   UNL     1       8.951   5.995   0.714  0.00  0.00    +0.145 HD
ENDBRANCH  20  24
ENDBRANCH  17  19
ENDBRANCH   2  15
TORSDOF 5
