REMARK  Name = ZINC36978898
REMARK  8 active torsions:
REMARK  status: ('A' for Active; 'I' for Inactive)
REMARK    1  A    between atoms: C_1  and  C_2
REMARK    2  A    between atoms: C_5  and  N_13
REMARK    3  A    between atoms: C_7  and  C_12
REMARK    4  A    between atoms: N_10  and  C_11
REMARK    5  A    between atoms: N_13  and  C_14
REMARK    6  A    between atoms: C_18  and  S_20
REMARK    7  A    between atoms: S_20  and  N_23
REMARK    8  A    between atoms: N_23  and  C_24
REMARK                            x       y       z     vdW  Elec       q    Type
REMARK                         _______ _______ _______ _____ _____    ______ ____
ROOT
ATOM      1  N   UNL     1      -2.777  -2.578   0.086  0.00  0.00    -0.341 N 
ATOM      2  H   UNL     1      -3.153  -2.820   0.947  0.00  0.00    +0.146 HD
ENDROOT
BRANCH   1   6
ATOM      3  C   UNL     1      -0.019   1.526   0.010  0.00  0.00    -0.013 C 
ATOM      4  C   UNL     1       0.002  -0.004   0.002  0.00  0.00    -0.070 C 
ATOM      5  C   UNL     1      -1.434  -0.533   0.011  0.00  0.00    +0.007 C 
ATOM      6  C   UNL     1      -1.408  -2.064   0.003  0.00  0.00    +0.070 C 
ATOM      7  C   UNL     1      -0.600  -2.558   1.206  0.00  0.00    -0.011 C 
ATOM      8  C   UNL     1       0.805  -1.954   1.152  0.00  0.00    -0.074 C 
ATOM      9  N   UNL     1       0.713  -0.490   1.191  0.00  0.00    +0.380 N 
ATOM     10  C   UNL     1       2.066   0.083   1.218  0.00  0.00    -0.096 C 
ATOM     11  C   UNL     1      -1.293  -2.127   2.499  0.00  0.00    +0.007 C 
ATOM     12  H   UNL     1       0.213  -0.206   2.020  0.00  0.00    -0.082 HD
ENDBRANCH   1   6
BRANCH   1  13
ATOM     13  C   UNL     1      -3.543  -2.718  -1.074  0.00  0.00    +0.029 A 
ATOM     14  C   UNL     1      -3.005  -2.377  -2.308  0.00  0.00    +0.023 A 
ATOM     15  C   UNL     1      -3.764  -2.518  -3.453  0.00  0.00    +0.004 A 
ATOM     16  C   UNL     1      -5.058  -2.997  -3.372  0.00  0.00    +0.028 A 
ATOM     17  C   UNL     1      -5.597  -3.337  -2.145  0.00  0.00    +0.107 A 
ATOM     18  C   UNL     1      -4.841  -3.205  -0.996  0.00  0.00    +0.051 A 
BRANCH  17  19
ATOM     19  S   UNL     1      -7.247  -3.947  -2.046  0.00  0.00    +0.058 S 
ATOM     20  O   UNL     1      -7.702  -3.678  -0.727  0.00  0.00    -0.153 OA
ATOM     21  O   UNL     1      -7.927  -3.467  -3.199  0.00  0.00    -0.153 OA
BRANCH  19  22
ATOM     22  N   UNL     1      -7.170  -5.595  -2.194  0.00  0.00    -0.193 NA
ATOM     23  C   UNL     1      -6.499  -6.392  -1.164  0.00  0.00    +0.127 C 
ATOM     24  H   UNL     1      -7.570  -6.032  -2.962  0.00  0.00    +0.148 HD
ENDBRANCH  19  22
ENDBRANCH  17  19
ENDBRANCH   1  13
TORSDOF 4
