REMARK  Name = ZINC31122747
REMARK  5 active torsions:
REMARK  status: ('A' for Active; 'I' for Inactive)
REMARK    1  A    between atoms: C_1  and  C_2
REMARK    2  A    between atoms: C_2  and  C_4
REMARK    3  A    between atoms: C_2  and  N_10
REMARK    4  A    between atoms: N_13  and  C_14
REMARK    5  A    between atoms: C_14  and  C_15
REMARK                            x       y       z     vdW  Elec       q    Type
REMARK                         _______ _______ _______ _____ _____    ______ ____
ROOT
ATOM      1  N   UNL     1      -0.698   1.558   1.213  0.00  0.00    -0.294 N 
ATOM      2  C   UNL     1      -1.741   0.865   1.711  0.00  0.00    +0.300 C 
ATOM      3  O   UNL     1      -2.113  -0.153   1.160  0.00  0.00    -0.253 OA
ATOM      4  N   UNL     1      -2.372   1.299   2.820  0.00  0.00    -0.295 N 
ATOM      5  H   UNL     1      -0.362   2.479   1.712  0.00  0.00    +0.151 HD
ATOM      6  H   UNL     1      -2.036   2.220   3.319  0.00  0.00    +0.151 HD
ENDROOT
BRANCH   1   8
ATOM      7  C   UNL     1      -0.753   1.593  -1.232  0.00  0.00    +0.030 C 
ATOM      8  C   UNL     1      -0.013   1.086   0.008  0.00  0.00    +0.100 C 
BRANCH   8   9
ATOM      9  C   UNL     1       1.423   1.615  -0.003  0.00  0.00    +0.138 C 
ATOM     10  C   UNL     1       2.191   1.023  -1.200  0.00  0.00    +0.035 C 
ATOM     11  C   UNL     1       2.650   2.263  -2.007  0.00  0.00    +0.031 C 
ATOM     12  C   UNL     1       2.583   3.386  -0.942  0.00  0.00    +0.160 C 
ATOM     13  O   UNL     1       1.415   3.044  -0.164  0.00  0.00    -0.375 OA
ENDBRANCH   8   9
ENDBRANCH   1   8
BRANCH   4  14
ATOM     14  C   UNL     1      -3.506   0.545   3.361  0.00  0.00    +0.142 C 
BRANCH  14  15
ATOM     15  C   UNL     1      -4.027   1.238   4.593  0.00  0.00    -0.014 A 
ATOM     16  C   UNL     1      -5.021   2.202   4.488  0.00  0.00    +0.010 A 
ATOM     17  C   UNL     1      -5.473   2.814   5.644  0.00  0.00    +0.042 A 
ATOM     18  C   UNL     1      -4.919   2.444   6.865  0.00  0.00    +0.099 A 
ATOM     19  N   UNL     1      -3.972   1.520   6.924  0.00  0.00    -0.349 N 
ATOM     20  C   UNL     1      -3.526   0.916   5.839  0.00  0.00    +0.089 A 
ATOM     21  N   UNL     1      -5.363   3.050   8.035  0.00  0.00    -0.317 N 
ATOM     22  C   UNL     1      -6.802   2.764   8.269  0.00  0.00    +0.106 C 
ATOM     23  C   UNL     1      -6.974   3.034   9.785  0.00  0.00    +0.020 C 
ATOM     24  C   UNL     1      -5.650   2.505  10.383  0.00  0.00    +0.020 C 
ATOM     25  C   UNL     1      -4.648   2.516   9.214  0.00  0.00    +0.106 C 
ATOM     26  H   UNL     1      -3.538   1.239   7.895  0.00  0.00    +0.167 HD
ENDBRANCH  14  15
ENDBRANCH   4  14
TORSDOF 4
