REMARK  Name = ZINC64131788
REMARK  9 active torsions:
REMARK  status: ('A' for Active; 'I' for Inactive)
REMARK    1  A    between atoms: C_1  and  C_2
REMARK    2  A    between atoms: C_4  and  C_8
REMARK    3  A    between atoms: C_8  and  N_9
REMARK    4  A    between atoms: N_9  and  C_10
REMARK    5  A    between atoms: C_13  and  C_30
REMARK    6  A    between atoms: C_13  and  C_31
REMARK    7  A    between atoms: N_21  and  C_22
REMARK    8  A    between atoms: C_25  and  O_28
REMARK    9  A    between atoms: O_28  and  C_29
REMARK                            x       y       z     vdW  Elec       q    Type
REMARK                         _______ _______ _______ _____ _____    ______ ____
ROOT
ATOM      1  C   UNL     1       0.018   3.134  -7.282  0.00  0.00    -0.065 C 
ATOM      2  C   UNL     1       1.325   3.541  -7.982  0.00  0.00    -0.009 C 
ATOM      3  C   UNL     1       2.081   4.607  -7.194  0.00  0.00    -0.035 C 
ATOM      4  C   UNL     1       1.190   5.825  -6.892  0.00  0.00    +0.030 C 
ATOM      5  C   UNL     1      -0.022   5.315  -6.147  0.00  0.00    +0.094 C 
ATOM      6  C   UNL     1      -0.814   4.393  -7.123  0.00  0.00    +0.012 C 
ATOM      7  C   UNL     1      -2.105   4.252  -6.305  0.00  0.00    +0.106 C 
ATOM      8  N   UNL     1      -2.262   5.619  -5.733  0.00  0.00    -0.240 NA
ATOM      9  N   UNL     1      -1.040   6.260  -5.728  0.00  0.00    -0.264 N 
ATOM     10  C   UNL     1       2.565   4.002  -5.875  0.00  0.00    +0.011 C 
ATOM     11  C   UNL     1       3.293   5.064  -8.008  0.00  0.00    +0.011 C 
ATOM     12  H   UNL     1      -2.942   6.153  -6.253  0.00  0.00    +0.144 HD
ENDROOT
BRANCH   9  13
ATOM     13  C   UNL     1      -0.823   7.595  -5.369  0.00  0.00    +0.045 A 
ATOM     14  C   UNL     1      -1.637   8.594  -5.886  0.00  0.00    +0.028 A 
ATOM     15  C   UNL     1      -1.422   9.911  -5.532  0.00  0.00    +0.047 A 
ATOM     16  C   UNL     1      -0.394  10.236  -4.659  0.00  0.00    +0.120 A 
ATOM     17  C   UNL     1       0.419   9.239  -4.142  0.00  0.00    +0.047 A 
ATOM     18  C   UNL     1       0.202   7.920  -4.491  0.00  0.00    +0.028 A 
BRANCH  16  19
ATOM     19  O   UNL     1      -0.183  11.534  -4.310  0.00  0.00    -0.495 OA
ATOM     20  C   UNL     1       0.892  11.796  -3.407  0.00  0.00    +0.277 C 
ENDBRANCH  16  19
ENDBRANCH   9  13
BRANCH   1  21
ATOM     21  N   UNL     1       0.315   2.559  -5.963  0.00  0.00    +0.385 N 
ATOM     22  H   UNL     1      -0.546   2.430  -5.452  0.00  0.00    -0.085 HD
ATOM     23  H   UNL     1       0.919   3.184  -5.452  0.00  0.00    -0.085 HD
BRANCH  21  24
ATOM     24  C   UNL     1       0.982   1.262  -6.133  0.00  0.00    -0.024 C 
BRANCH  24  28
ATOM     25  C   UNL     1       3.323   0.264  -1.816  0.00  0.00    +0.086 C 
ATOM     26  C   UNL     1       2.300   0.247  -2.923  0.00  0.00    +0.104 A 
ATOM     27  N   UNL     1       2.367   0.934  -4.031  0.00  0.00    -0.240 NA
ATOM     28  C   UNL     1       1.286   0.672  -4.780  0.00  0.00    +0.042 A 
ATOM     29  H   UNL     1       0.863  -1.089  -2.240  0.00  0.00    +0.166 HD
ATOM     30  C   UNL     1       0.520  -0.211  -4.111  0.00  0.00    +0.105 A 
ATOM     31  N   UNL     1       1.165  -0.484  -2.936  0.00  0.00    -0.348 N 
ENDBRANCH  24  28
ENDBRANCH  21  24
ENDBRANCH   1  21
TORSDOF 5
