REMARK  Name = ZINC12490910
REMARK  13 active torsions:
REMARK  status: ('A' for Active; 'I' for Inactive)
REMARK    1  A    between atoms: C_1  and  C_2
REMARK    2  A    between atoms: C_2  and  O_35
REMARK    3  A    between atoms: C_5  and  C_26
REMARK    4  A    between atoms: C_9  and  C_24
REMARK    5  A    between atoms: C_9  and  C_25
REMARK    6  A    between atoms: C_11  and  N_13
REMARK    7  A    between atoms: N_13  and  C_14
REMARK    8  A    between atoms: C_14  and  C_15
REMARK    9  A    between atoms: C_18  and  N_21
REMARK   10  A    between atoms: N_21  and  C_22
REMARK   11  A    between atoms: N_21  and  C_23
REMARK   12  A    between atoms: C_26  and  C_27
REMARK   13  A    between atoms: C_27  and  C_28
REMARK                            x       y       z     vdW  Elec       q    Type
REMARK                         _______ _______ _______ _____ _____    ______ ____
ROOT
ATOM      1  C   UNL     1       0.216   1.950   0.058  0.00  0.00    +0.041 C 
ATOM      2  C   UNL     1       0.454   0.447  -0.093  0.00  0.00    +0.064 C 
ATOM      3  C   UNL     1      -0.883  -0.266  -0.325  0.00  0.00    +0.035 C 
ATOM      4  C   UNL     1      -0.605  -1.752  -0.548  0.00  0.00    +0.008 C 
ATOM      5  C   UNL     1       0.101  -2.363   0.640  0.00  0.00    -0.038 C 
ATOM      6  C   UNL     1       1.375  -1.599   1.045  0.00  0.00    +0.002 C 
ATOM      7  C   UNL     1       1.084  -0.103   1.184  0.00  0.00    +0.039 C 
ATOM      8  C   UNL     1       1.621  -2.139   2.485  0.00  0.00    -0.033 C 
ATOM      9  C   UNL     1       0.203  -2.238   3.091  0.00  0.00    -0.009 C 
ATOM     10  C   UNL     1      -0.771  -2.376   1.903  0.00  0.00    -0.064 C 
ATOM     11  C   UNL     1       2.281  -3.519   2.436  0.00  0.00    +0.011 C 
ATOM     12  C   UNL     1       2.480  -1.160   3.287  0.00  0.00    +0.011 C 
ENDROOT
BRANCH  10  13
ATOM     13  N   UNL     1      -1.508  -3.643   1.997  0.00  0.00    +0.384 N 
ATOM     14  H   UNL     1      -2.061  -3.773   1.163  0.00  0.00    -0.085 HD
ATOM     15  H   UNL     1      -0.855  -4.406   2.089  0.00  0.00    -0.085 HD
BRANCH  13  16
ATOM     16  C   UNL     1      -2.391  -3.610   3.170  0.00  0.00    -0.046 C 
BRANCH  16  17
ATOM     17  C   UNL     1      -3.148  -4.910   3.266  0.00  0.00    -0.064 A 
ATOM     18  C   UNL     1      -4.369  -5.046   2.632  0.00  0.00    +0.003 A 
ATOM     19  C   UNL     1      -5.064  -6.236   2.718  0.00  0.00    +0.023 A 
ATOM     20  C   UNL     1      -4.536  -7.296   3.443  0.00  0.00    +0.029 A 
ATOM     21  C   UNL     1      -3.309  -7.156   4.079  0.00  0.00    +0.023 A 
ATOM     22  C   UNL     1      -2.616  -5.965   3.984  0.00  0.00    +0.003 A 
BRANCH  20  23
ATOM     23  N   UNL     1      -5.237  -8.501   3.533  0.00  0.00    -0.336 N 
ATOM     24  C   UNL     1      -6.577  -8.614   2.951  0.00  0.00    +0.129 C 
ATOM     25  C   UNL     1      -4.633  -9.652   4.208  0.00  0.00    +0.129 C 
ENDBRANCH  20  23
ENDBRANCH  16  17
ENDBRANCH  13  16
ENDBRANCH  10  13
BRANCH   2  26
ATOM     26  O   UNL     1       1.327   0.208  -1.199  0.00  0.00    -0.389 OA
ATOM     27  H   UNL     1       0.985   0.527  -2.046  0.00  0.00    +0.210 HD
ENDBRANCH   2  26
BRANCH   5  28
ATOM     28  C   UNL     1       0.498  -3.800   0.298  0.00  0.00    +0.015 C 
BRANCH  28  29
ATOM     29  C   UNL     1       1.556  -3.788  -0.808  0.00  0.00    +0.096 C 
BRANCH  29  30
ATOM     30  C   UNL     1       1.916  -5.204  -1.175  0.00  0.00    +0.216 C 
ATOM     31  O   UNL     1       1.380  -6.133  -0.608  0.00  0.00    -0.276 OA
ATOM     32  N   UNL     1       2.834  -5.439  -2.134  0.00  0.00    -0.301 N 
ATOM     33  C   UNL     1       3.562  -4.412  -2.893  0.00  0.00    +0.108 C 
ATOM     34  C   UNL     1       4.481  -5.147  -3.892  0.00  0.00    +0.020 C 
ATOM     35  C   UNL     1       3.804  -6.536  -4.030  0.00  0.00    +0.020 C 
ATOM     36  C   UNL     1       3.278  -6.769  -2.590  0.00  0.00    +0.108 C 
ENDBRANCH  29  30
ENDBRANCH  28  29
ENDBRANCH   5  28
TORSDOF 8
