REMARK  Name = ZINC40814922
REMARK  8 active torsions:
REMARK  status: ('A' for Active; 'I' for Inactive)
REMARK    1  A    between atoms: C_1  and  C_2
REMARK    2  A    between atoms: C_6  and  C_7
REMARK    3  A    between atoms: N_9  and  N_10
REMARK    4  A    between atoms: C_11  and  C_13
REMARK    5  A    between atoms: N_24  and  N_25
REMARK    6  A    between atoms: N_25  and  C_26
REMARK    7  A    between atoms: C_29  and  N_35
REMARK    8  A    between atoms: C_31  and  N_32
REMARK                            x       y       z     vdW  Elec       q    Type
REMARK                         _______ _______ _______ _____ _____    ______ ____
ROOT
ATOM      1  C   UNL     1      -1.063   1.204  -0.078  0.00  0.00    +0.048 C 
ATOM      2  C   UNL     1      -1.243  -0.288  -0.176  0.00  0.00    +0.009 A 
ATOM      3  C   UNL     1      -1.188  -1.067  -1.338  0.00  0.00    +0.042 A 
ATOM      4  C   UNL     1      -1.409  -2.373  -0.970  0.00  0.00    +0.115 A 
ATOM      5  O   UNL     1      -1.588  -2.405   0.349  0.00  0.00    -0.454 OA
ATOM      6  C   UNL     1      -1.488  -1.154   0.854  0.00  0.00    +0.194 A 
ATOM      7  C   UNL     1      -1.429  -3.511  -1.958  0.00  0.00    +0.075 C 
ATOM      8  C   UNL     1      -1.691  -2.961  -3.363  0.00  0.00    +0.014 C 
ATOM      9  C   UNL     1      -0.697  -1.844  -3.699  0.00  0.00    +0.058 C 
ATOM     10  C   UNL     1      -0.946  -0.683  -2.747  0.00  0.00    +0.070 C 
ATOM     11  N   UNL     1      -0.945   0.553  -3.141  0.00  0.00    -0.186 NA
ENDROOT
BRANCH   6  12
ATOM     12  C   UNL     1      -1.623  -0.788   2.268  0.00  0.00    +0.296 C 
ATOM     13  O   UNL     1      -1.517   0.376   2.608  0.00  0.00    -0.265 OA
ATOM     14  N   UNL     1      -1.865  -1.740   3.191  0.00  0.00    -0.228 N 
ATOM     15  H   UNL     1      -1.949  -2.667   2.920  0.00  0.00    +0.173 HD
BRANCH  14  16
ATOM     16  N   UNL     1      -1.994  -1.390   4.541  0.00  0.00    -0.230 N 
ATOM     17  C   UNL     1      -2.236  -2.342   5.464  0.00  0.00    +0.263 C 
ATOM     18  O   UNL     1      -2.342  -3.505   5.125  0.00  0.00    -0.269 OA
ATOM     19  H   UNL     1      -1.909  -0.462   4.812  0.00  0.00    +0.173 HD
BRANCH  17  20
ATOM     20  C   UNL     1      -2.372  -1.973   6.888  0.00  0.00    +0.073 A 
ATOM     21  C   UNL     1      -2.256  -0.638   7.281  0.00  0.00    +0.016 A 
ATOM     22  C   UNL     1      -2.384  -0.300   8.611  0.00  0.00    +0.001 A 
ATOM     23  C   UNL     1      -2.627  -1.280   9.559  0.00  0.00    +0.003 A 
ATOM     24  C   UNL     1      -2.743  -2.604   9.180  0.00  0.00    +0.039 A 
ATOM     25  C   UNL     1      -2.622  -2.958   7.848  0.00  0.00    +0.136 A 
ATOM     26  F   UNL     1      -2.741  -4.252   7.477  0.00  0.00    -0.205 F 
ENDBRANCH  17  20
ENDBRANCH  14  16
ENDBRANCH   6  12
BRANCH  11  27
ATOM     27  N   UNL     1      -0.710   0.859  -4.487  0.00  0.00    -0.235 N 
ATOM     28  H   UNL     1      -0.547   0.146  -5.125  0.00  0.00    +0.174 HD
BRANCH  27  29
ATOM     29  C   UNL     1      -0.709   2.188  -4.911  0.00  0.00    +0.079 A 
ATOM     30  C   UNL     1      -1.053   3.202  -4.025  0.00  0.00    +0.029 A 
ATOM     31  C   UNL     1      -1.050   4.516  -4.447  0.00  0.00    +0.035 A 
ATOM     32  C   UNL     1      -0.707   4.825  -5.751  0.00  0.00    +0.128 A 
ATOM     33  C   UNL     1      -0.364   3.819  -6.636  0.00  0.00    +0.067 A 
ATOM     34  C   UNL     1      -0.358   2.502  -6.219  0.00  0.00    +0.151 A 
BRANCH  34  35
ATOM     35  N   UNL     1       0.015   1.427  -7.165  0.00  0.00    +0.058 N 
ATOM     36  O   UNL     1       0.653   0.476  -6.778  0.00  0.00    -0.126 OA
ATOM     37  O   UNL     1      -0.319   1.499  -8.325  0.00  0.00    -0.126 OA
ENDBRANCH  34  35
BRANCH  32  38
ATOM     38  N   UNL     1      -0.706   6.235  -6.201  0.00  0.00    +0.056 N 
ATOM     39  O   UNL     1      -1.006   7.116  -5.429  0.00  0.00    -0.126 OA
ATOM     40  O   UNL     1      -0.406   6.506  -7.340  0.00  0.00    -0.126 OA
ENDBRANCH  32  38
ENDBRANCH  27  29
ENDBRANCH  11  27
TORSDOF 7
