REMARK  Name = ZINC61934305
REMARK  9 active torsions:
REMARK  status: ('A' for Active; 'I' for Inactive)
REMARK    1  A    between atoms: C_1  and  C_2
REMARK    2  A    between atoms: N_5  and  C_10
REMARK    3  A    between atoms: C_10  and  C_11
REMARK    4  A    between atoms: C_14  and  C_22
REMARK    5  A    between atoms: C_18  and  N_20
REMARK    6  A    between atoms: N_20  and  C_21
REMARK    7  A    between atoms: C_22  and  C_23
REMARK    8  A    between atoms: C_22  and  C_24
REMARK    9  A    between atoms: C_22  and  C_25
REMARK                            x       y       z     vdW  Elec       q    Type
REMARK                         _______ _______ _______ _____ _____    ______ ____
ROOT
ATOM      1  C   UNL     1      -2.399  -3.619  -1.892  0.00  0.00    -0.011 C 
ATOM      2  C   UNL     1      -1.155  -3.646  -2.782  0.00  0.00    +0.007 C 
ATOM      3  C   UNL     1      -0.982  -5.047  -3.373  0.00  0.00    -0.005 C 
ATOM      4  C   UNL     1      -2.214  -5.405  -4.207  0.00  0.00    +0.002 C 
ATOM      5  C   UNL     1      -3.458  -5.378  -3.316  0.00  0.00    -0.015 C 
ATOM      6  C   UNL     1      -3.631  -3.977  -2.725  0.00  0.00    -0.068 C 
ENDROOT
BRANCH   6   7
ATOM      7  N   UNL     1      -3.787  -3.003  -3.813  0.00  0.00    +0.379 N 
ATOM      8  C   UNL     1      -5.034  -3.275  -4.540  0.00  0.00    -0.100 C 
ATOM      9  H   UNL     1      -3.819  -2.071  -3.427  0.00  0.00    -0.086 HD
ATOM     10  H   UNL     1      -3.005  -3.078  -4.446  0.00  0.00    -0.086 HD
ENDBRANCH   6   7
BRANCH   3  11
ATOM     11  C   UNL     1       0.262  -5.074  -4.264  0.00  0.00    -0.035 C 
ATOM     12  C   UNL     1       1.494  -4.716  -3.431  0.00  0.00    +0.011 C 
ATOM     13  C   UNL     1       0.436  -6.474  -4.855  0.00  0.00    +0.011 C 
ATOM     14  C   UNL     1       0.100  -4.059  -5.397  0.00  0.00    +0.011 C 
ENDBRANCH   3  11
BRANCH   1  15
ATOM     15  C   UNL     1      -2.573  -2.219  -1.300  0.00  0.00    +0.086 C 
BRANCH  15  19
ATOM     16  C   UNL     1      -0.019   1.526   0.010  0.00  0.00    +0.039 C 
ATOM     17  C   UNL     1       0.002  -0.004   0.002  0.00  0.00    +0.129 C 
ATOM     18  C   UNL     1      -1.450  -0.529  -0.011  0.00  0.00    +0.115 C 
ATOM     19  N   UNL     1      -1.447  -1.922  -0.405  0.00  0.00    -0.300 NA
ATOM     20  C   UNL     1      -1.406  -2.873   0.729  0.00  0.00    +0.087 C 
ATOM     21  C   UNL     1      -0.433  -2.424   1.826  0.00  0.00    +0.043 C 
ATOM     22  C   UNL     1       0.846  -1.867   1.246  0.00  0.00    +0.161 C 
ATOM     23  O   UNL     1       0.681  -0.447   1.100  0.00  0.00    -0.376 OA
ENDBRANCH  15  19
ENDBRANCH   1  15
TORSDOF 4
