REMARK  Name = ZINC36298806
REMARK  11 active torsions:
REMARK  status: ('A' for Active; 'I' for Inactive)
REMARK    1  A    between atoms: C_1  and  C_2
REMARK    2  A    between atoms: C_6  and  N_20
REMARK    3  A    between atoms: C_7  and  S_8
REMARK    4  A    between atoms: S_8  and  N_11
REMARK    5  A    between atoms: N_11  and  C_12
REMARK    6  A    between atoms: C_12  and  C_13
REMARK    7  A    between atoms: C_13  and  C_15
REMARK    8  A    between atoms: C_13  and  N_19
REMARK    9  A    between atoms: C_15  and  C_16
REMARK   10  A    between atoms: C_16  and  C_17
REMARK   11  A    between atoms: C_16  and  C_18
REMARK                            x       y       z     vdW  Elec       q    Type
REMARK                         _______ _______ _______ _____ _____    ______ ____
ROOT
ATOM      1  S   UNL     1       1.188   1.012   1.659  0.00  0.00    +0.061 S 
ATOM      2  O   UNL     1       2.421   0.565   2.204  0.00  0.00    -0.153 OA
ATOM      3  O   UNL     1       1.093   2.164   0.832  0.00  0.00    -0.153 OA
ENDROOT
BRANCH   1  10
ATOM      4  C   UNL     1       2.446  -1.736   1.524  0.00  0.00    +0.046 C 
ATOM      5  C   UNL     1       1.181  -1.553   0.726  0.00  0.00    -0.022 A 
ATOM      6  C   UNL     1       0.664  -2.609  -0.002  0.00  0.00    +0.005 A 
ATOM      7  C   UNL     1      -0.496  -2.442  -0.734  0.00  0.00    +0.003 A 
ATOM      8  C   UNL     1      -1.141  -1.219  -0.739  0.00  0.00    +0.035 A 
ATOM      9  C   UNL     1      -0.625  -0.164  -0.011  0.00  0.00    +0.153 A 
ATOM     10  C   UNL     1       0.534  -0.332   0.725  0.00  0.00    +0.138 A 
BRANCH   9  11
ATOM     11  N   UNL     1      -1.314   1.146  -0.016  0.00  0.00    +0.058 N 
ATOM     12  O   UNL     1      -1.821   1.558  -1.033  0.00  0.00    -0.126 OA
ATOM     13  O   UNL     1      -1.371   1.803   0.998  0.00  0.00    -0.126 OA
ENDBRANCH   9  11
ENDBRANCH   1  10
BRANCH   1  14
ATOM     14  N   UNL     1       0.167   1.262   2.938  0.00  0.00    -0.191 NA
ATOM     15  H   UNL     1      -0.332   2.091   3.006  0.00  0.00    +0.148 HD
BRANCH  14  16
ATOM     16  C   UNL     1       0.018   0.231   3.969  0.00  0.00    +0.090 C 
BRANCH  16  17
ATOM     17  C   UNL     1      -0.663   0.835   5.199  0.00  0.00    -0.059 C 
BRANCH  17  18
ATOM     18  N   UNL     1      -1.935   1.452   4.800  0.00  0.00    +0.381 N 
ATOM     19  H   UNL     1      -2.536   0.752   4.392  0.00  0.00    -0.090 HD
ATOM     20  H   UNL     1      -2.384   1.850   5.611  0.00  0.00    -0.090 HD
ATOM     21  H   UNL     1      -1.758   2.179   4.123  0.00  0.00    -0.090 HD
ENDBRANCH  17  18
BRANCH  17  22
ATOM     22  C   UNL     1      -0.931  -0.268   6.225  0.00  0.00    -0.012 C 
BRANCH  22  23
ATOM     23  C   UNL     1      -1.498   0.353   7.504  0.00  0.00    -0.019 C 
ATOM     24  C   UNL     1      -1.882  -0.758   8.483  0.00  0.00    +0.007 C 
ATOM     25  C   UNL     1      -0.441   1.254   8.145  0.00  0.00    +0.007 C 
ENDBRANCH  22  23
ENDBRANCH  17  22
ENDBRANCH  16  17
ENDBRANCH  14  16
ENDBRANCH   1  14
TORSDOF 8
