REMARK  Name = ZINC08551996
REMARK  14 active torsions:
REMARK  status: ('A' for Active; 'I' for Inactive)
REMARK    1  A    between atoms: C_1  and  C_2
REMARK    2  A    between atoms: C_2  and  C_3
REMARK    3  A    between atoms: C_3  and  C_4
REMARK    4  A    between atoms: C_7  and  C_11
REMARK    5  A    between atoms: C_10  and  N_60
REMARK    6  A    between atoms: N_13  and  C_14
REMARK    7  A    between atoms: C_14  and  C_16
REMARK    8  A    between atoms: C_14  and  C_32
REMARK    9  A    between atoms: C_18  and  O_31
REMARK   10  A    between atoms: C_20  and  O_30
REMARK   11  A    between atoms: C_22  and  O_29
REMARK   12  A    between atoms: C_24  and  S_27
REMARK   13  A    between atoms: S_27  and  C_28
REMARK   14  A    between atoms: C_32  and  C_34
REMARK                            x       y       z     vdW  Elec       q    Type
REMARK                         _______ _______ _______ _____ _____    ______ ____
ROOT
ATOM      1  C   UNL     1       1.691   4.928  -2.414  0.00  0.00    +0.122 C 
ENDROOT
BRANCH   1   2
ATOM      2  C   UNL     1       1.821   6.396  -2.001  0.00  0.00    +0.172 C 
ATOM      3  C   UNL     1       2.970   6.545  -1.001  0.00  0.00    +0.176 C 
ATOM      4  C   UNL     1       4.282   6.133  -1.676  0.00  0.00    +0.177 C 
ATOM      5  C   UNL     1       4.488   6.989  -2.930  0.00  0.00    +0.184 C 
ATOM      6  C   UNL     1       3.281   6.823  -3.856  0.00  0.00    +0.207 C 
ATOM      7  O   UNL     1       2.091   7.193  -3.156  0.00  0.00    -0.356 OA
BRANCH   6   8
ATOM      8  S   UNL     1       3.483   7.887  -5.311  0.00  0.00    -0.131 S 
ATOM      9  C   UNL     1       2.067   7.466  -6.363  0.00  0.00    +0.087 C 
ENDBRANCH   6   8
BRANCH   5  10
ATOM     10  O   UNL     1       4.618   8.362  -2.556  0.00  0.00    -0.386 OA
ATOM     11  H   UNL     1       4.747   8.962  -3.303  0.00  0.00    +0.210 HD
ENDBRANCH   5  10
BRANCH   4  12
ATOM     12  O   UNL     1       5.371   6.337  -0.773  0.00  0.00    -0.386 OA
ATOM     13  H   UNL     1       6.234   6.102  -1.139  0.00  0.00    +0.210 HD
ENDBRANCH   4  12
BRANCH   3  14
ATOM     14  O   UNL     1       2.731   5.704   0.130  0.00  0.00    -0.387 OA
ATOM     15  H   UNL     1       3.421   5.748   0.806  0.00  0.00    +0.210 HD
ENDBRANCH   3  14
ENDBRANCH   1   2
BRANCH   1  18
ATOM     16  C   UNL     1       1.746   2.805  -1.220  0.00  0.00    +0.200 C 
ATOM     17  O   UNL     1       2.274   2.306  -2.191  0.00  0.00    -0.278 OA
ATOM     18  N   UNL     1       1.414   4.111  -1.229  0.00  0.00    -0.310 N 
ATOM     19  H   UNL     1       0.992   4.510  -0.453  0.00  0.00    +0.149 HD
BRANCH  16  22
ATOM     20  C   UNL     1       0.002  -0.004   0.002  0.00  0.00    -0.029 C 
ATOM     21  C   UNL     1      -0.019   1.542   0.011  0.00  0.00    -0.005 C 
ATOM     22  C   UNL     1       1.462   1.964  -0.001  0.00  0.00    +0.019 C 
ATOM     23  C   UNL     1       1.413  -0.335   0.551  0.00  0.00    -0.075 C 
ATOM     24  C   UNL     1       3.517   0.880   0.709  0.00  0.00    -0.095 C 
ATOM     25  N   UNL     1       2.239   0.725  -0.049  0.00  0.00    +0.386 N 
ATOM     26  H   UNL     1       2.453   0.487  -1.024  0.00  0.00    -0.081 HD
BRANCH  20  27
ATOM     27  C   UNL     1      -1.083  -0.565   0.923  0.00  0.00    +0.001 C 
BRANCH  27  29
ATOM     28  C   UNL     1      -2.204  -2.651   1.720  0.00  0.00    +0.004 C 
ATOM     29  C   UNL     1      -1.119  -2.090   0.798  0.00  0.00    -0.003 C 
ENDBRANCH  27  29
ENDBRANCH  20  27
ENDBRANCH  16  22
ENDBRANCH   1  18
BRANCH   1  30
ATOM     30  C   UNL     1       0.543   4.779  -3.415  0.00  0.00    +0.100 C 
ATOM     31  C   UNL     1       0.332   3.297  -3.732  0.00  0.00    +0.026 C 
ATOM     32 CL   UNL     1      -0.966   5.463  -2.705  0.00  0.00    -0.120 Cl
ENDBRANCH   1  30
TORSDOF 10
