REMARK  Name = ZINC08870829
REMARK  10 active torsions:
REMARK  status: ('A' for Active; 'I' for Inactive)
REMARK    1  A    between atoms: C_1  and  C_2
REMARK    2  A    between atoms: C_5  and  S_11
REMARK    3  A    between atoms: C_7  and  N_8
REMARK    4  A    between atoms: S_11  and  N_14
REMARK    5  A    between atoms: N_14  and  C_15
REMARK    6  A    between atoms: C_17  and  S_26
REMARK    7  A    between atoms: C_18  and  O_25
REMARK    8  A    between atoms: S_26  and  C_27
REMARK    9  A    between atoms: C_27  and  C_29
REMARK   10  A    between atoms: C_27  and  C_30
REMARK                            x       y       z     vdW  Elec       q    Type
REMARK                         _______ _______ _______ _____ _____    ______ ____
ROOT
ATOM      1  C   UNL     1       2.554   0.711   4.819  0.00  0.00    +0.057 A 
ATOM      2  C   UNL     1       2.095   0.592   3.527  0.00  0.00    +0.043 A 
ATOM      3  C   UNL     1       1.997  -0.662   2.916  0.00  0.00    +0.052 A 
ATOM      4  C   UNL     1       2.369  -1.808   3.593  0.00  0.00    +0.138 A 
ATOM      5  C   UNL     1       2.846  -1.714   4.913  0.00  0.00    +0.026 A 
ATOM      6  C   UNL     1       2.940  -0.443   5.534  0.00  0.00    +0.008 A 
ATOM      7  C   UNL     1       3.417  -0.354   6.851  0.00  0.00    +0.010 A 
ATOM      8  C   UNL     1       3.783  -1.486   7.514  0.00  0.00    +0.001 A 
ATOM      9  C   UNL     1       3.691  -2.736   6.904  0.00  0.00    +0.001 A 
ATOM     10  C   UNL     1       3.233  -2.861   5.629  0.00  0.00    +0.012 A 
ENDROOT
BRANCH   1  11
ATOM     11  N   UNL     1       2.642   1.969   5.419  0.00  0.00    -0.216 N 
ATOM     12  H   UNL     1       3.370   2.166   6.029  0.00  0.00    +0.174 HD
BRANCH  11  13
ATOM     13  S   UNL     1       1.503   3.124   5.089  0.00  0.00    +0.072 S 
ATOM     14  O   UNL     1       1.775   4.221   5.950  0.00  0.00    -0.150 OA
ATOM     15  O   UNL     1       1.459   3.259   3.675  0.00  0.00    -0.150 OA
BRANCH  13  20
ATOM     16  C   UNL     1      -3.844   0.893   6.776  0.00  0.00    +0.046 C 
ATOM     17  C   UNL     1      -2.508   1.451   6.354  0.00  0.00    -0.020 A 
ATOM     18  C   UNL     1      -2.048   1.244   5.067  0.00  0.00    +0.007 A 
ATOM     19  C   UNL     1      -0.826   1.760   4.679  0.00  0.00    +0.029 A 
ATOM     20  C   UNL     1      -0.059   2.473   5.581  0.00  0.00    +0.111 A 
ATOM     21  C   UNL     1      -0.519   2.680   6.868  0.00  0.00    +0.061 A 
ATOM     22  C   UNL     1      -1.744   2.169   7.255  0.00  0.00    +0.131 A 
BRANCH  22  23
ATOM     23  N   UNL     1      -2.237   2.390   8.633  0.00  0.00    +0.057 N 
ATOM     24  O   UNL     1      -1.573   3.041   9.420  0.00  0.00    -0.126 OA
ATOM     25  O   UNL     1      -3.306   1.922   8.979  0.00  0.00    -0.126 OA
ENDBRANCH  22  23
ENDBRANCH  13  20
ENDBRANCH  11  13
ENDBRANCH   1  11
BRANCH   4  26
ATOM     26  O   UNL     1       2.274  -3.022   2.985  0.00  0.00    -0.505 OA
ATOM     27  H   UNL     1       3.071  -3.285   2.505  0.00  0.00    +0.292 HD
ENDBRANCH   4  26
BRANCH   3  28
ATOM     28  S   UNL     1       1.401  -0.781   1.262  0.00  0.00    -0.107 S 
BRANCH  28  29
ATOM     29  C   UNL     1       1.236   0.945   0.729  0.00  0.00    +0.161 C 
ATOM     30  C   UNL     1       2.625   1.539   0.488  0.00  0.00    +0.031 C 
BRANCH  29  31
ATOM     31  C   UNL     1       0.436   1.003  -0.546  0.00  0.00    +0.369 C 
ATOM     32  O   UNL     1       0.327   0.017  -1.236  0.00  0.00    -0.245 OA
ATOM     33  O   UNL     1      -0.155   2.149  -0.916  0.00  0.00    -0.245 OA
ENDBRANCH  29  31
ENDBRANCH  28  29
ENDBRANCH   3  28
TORSDOF 8
