REMARK  Name = ZINC12832871
REMARK  8 active torsions:
REMARK  status: ('A' for Active; 'I' for Inactive)
REMARK    1  A    between atoms: C_1  and  C_2
REMARK    2  A    between atoms: C_12  and  C_14
REMARK    3  A    between atoms: C_14  and  N_57
REMARK    4  A    between atoms: C_15  and  C_16
REMARK    5  A    between atoms: C_15  and  N_57
REMARK    6  A    between atoms: C_21  and  C_22
REMARK    7  A    between atoms: C_21  and  N_57
REMARK    8  A    between atoms: N_26  and  C_27
REMARK                            x       y       z     vdW  Elec       q    Type
REMARK                         _______ _______ _______ _____ _____    ______ ____
ROOT
ATOM      1  N   UNL     1      -3.021   3.990  -1.591  0.00  0.00    +0.390 N 
ATOM      2  H   UNL     1      -2.276   4.207  -2.263  0.00  0.00    -0.080 HD
ENDROOT
BRANCH   1   3
ATOM      3  C   UNL     1      -2.455   4.007  -0.225  0.00  0.00    -0.036 C 
BRANCH   3  15
ATOM      4  C   UNL     1       1.883  -0.915   0.172  0.00  0.00    +0.046 C 
ATOM      5  C   UNL     1       2.070   0.559  -0.077  0.00  0.00    -0.026 A 
ATOM      6  C   UNL     1       3.335   1.073  -0.269  0.00  0.00    +0.005 A 
ATOM      7  C   UNL     1       3.521   2.429  -0.500  0.00  0.00    +0.001 A 
ATOM      8  C   UNL     1       2.453   3.281  -0.541  0.00  0.00    +0.010 A 
ATOM      9  C   UNL     1       1.161   2.782  -0.349  0.00  0.00    -0.001 A 
ATOM     10  C   UNL     1       0.968   1.407  -0.114  0.00  0.00    +0.052 A 
ATOM     11  N   UNL     1      -0.308   0.920   0.074  0.00  0.00    -0.322 N 
ATOM     12  H   UNL     1      -0.439  -0.028   0.235  0.00  0.00    +0.169 HD
ATOM     13  C   UNL     1      -1.373   1.739   0.032  0.00  0.00    +0.251 A 
ATOM     14  O   UNL     1      -2.487   1.273   0.198  0.00  0.00    -0.268 OA
ATOM     15  C   UNL     1      -1.234   3.125  -0.193  0.00  0.00    +0.001 A 
ATOM     16  C   UNL     1      -0.005   3.666  -0.386  0.00  0.00    +0.017 A 
ENDBRANCH   3  15
ENDBRANCH   1   3
BRANCH   1  17
ATOM     17  C   UNL     1      -3.565   2.650  -1.895  0.00  0.00    -0.035 C 
BRANCH  17  18
ATOM     18  C   UNL     1      -4.010   2.619  -3.334  0.00  0.00    -0.027 A 
ATOM     19  C   UNL     1      -3.273   2.401  -4.451  0.00  0.00    +0.009 A 
ATOM     20  C   UNL     1      -3.901   2.416  -5.682  0.00  0.00    +0.008 A 
ATOM     21  C   UNL     1      -5.233   2.660  -5.737  0.00  0.00    +0.045 A 
ATOM     22  S   UNL     1      -5.642   2.871  -4.012  0.00  0.00    -0.103 S 
ENDBRANCH  17  18
ENDBRANCH   1  17
BRANCH   1  23
ATOM     23  C   UNL     1      -4.087   5.007  -1.709  0.00  0.00    +0.001 C 
BRANCH  23  24
ATOM     24  C   UNL     1      -3.448   6.370  -1.788  0.00  0.00    +0.135 A 
ATOM     25  N   UNL     1      -3.269   7.209  -0.798  0.00  0.00    -0.115 NA
ATOM     26  N   UNL     1      -2.690   8.260  -1.266  0.00  0.00    -0.023 NA
ATOM     27  N   UNL     1      -2.502   8.116  -2.531  0.00  0.00    -0.044 NA
ATOM     28  N   UNL     1      -2.955   6.963  -2.891  0.00  0.00    -0.228 N 
BRANCH  28  29
ATOM     29  C   UNL     1      -2.938   6.405  -4.246  0.00  0.00    +0.111 C 
ATOM     30  C   UNL     1      -1.483   6.251  -4.735  0.00  0.00    +0.027 C 
ATOM     31  C   UNL     1      -1.549   6.610  -6.241  0.00  0.00    +0.002 C 
ATOM     32  C   UNL     1      -2.573   7.771  -6.272  0.00  0.00    +0.002 C 
ATOM     33  C   UNL     1      -3.631   7.371  -5.223  0.00  0.00    +0.027 C 
ENDBRANCH  28  29
ENDBRANCH  23  24
ENDBRANCH   1  23
TORSDOF 7
