REMARK  Name = ZINC08694828
REMARK  8 active torsions:
REMARK  status: ('A' for Active; 'I' for Inactive)
REMARK    1  A    between atoms: C_1  and  O_2
REMARK    2  A    between atoms: O_2  and  C_3
REMARK    3  A    between atoms: C_5  and  C_13
REMARK    4  A    between atoms: C_7  and  O_11
REMARK    5  A    between atoms: C_8  and  O_9
REMARK    6  A    between atoms: O_9  and  C_10
REMARK    7  A    between atoms: O_11  and  C_12
REMARK    8  A    between atoms: N_14  and  N_15
REMARK                            x       y       z     vdW  Elec       q    Type
REMARK                         _______ _______ _______ _____ _____    ______ ____
ROOT
ATOM      1  N   UNL     1       1.064   0.137   0.240  0.00  0.00    -0.204 N 
ATOM      2  C   UNL     1       2.075   1.072   0.099  0.00  0.00    +0.253 C 
ATOM      3  N   UNL     1       1.719   2.277   0.308  0.00  0.00    -0.144 NA
ATOM      4  N   UNL     1       2.572   3.369   0.339  0.00  0.00    -0.223 N 
ATOM      5  C   UNL     1       3.678   3.465  -0.440  0.00  0.00    +0.093 C 
ATOM      6  C   UNL     1       4.859   2.574  -0.205  0.00  0.00    +0.146 C 
ATOM      7  C   UNL     1       4.493   1.132  -0.437  0.00  0.00    +0.143 A 
ATOM      8  N   UNL     1       3.301   0.545  -0.240  0.00  0.00    -0.183 N 
ATOM      9  N   UNL     1       3.505  -0.831  -0.501  0.00  0.00    -0.151 NA
ATOM     10  C   UNL     1       4.742  -0.969  -0.887  0.00  0.00    +0.245 A 
ATOM     11  N   UNL     1       5.336   0.221  -0.868  0.00  0.00    -0.218 NA
ATOM     12  H   UNL     1       1.250  -0.804   0.099  0.00  0.00    +0.177 HD
ATOM     13  H   UNL     1       2.369   4.097   0.946  0.00  0.00    +0.176 HD
ATOM     14  H   UNL     1       3.001   4.961  -1.632  0.00  0.00    +0.157 HD
ATOM     15  N   UNL     1       3.776   4.330  -1.428  0.00  0.00    -0.389 N 
ATOM     16  H   UNL     1       4.632   4.369  -1.993  0.00  0.00    +0.157 HD
ENDROOT
BRANCH   1  18
ATOM     17  C   UNL     1      -1.180  -0.325   0.710  0.00  0.00    +0.138 C 
ATOM     18  N   UNL     1      -0.230   0.551   0.583  0.00  0.00    -0.188 NA
BRANCH  17  21
ATOM     19  C   UNL     1      -4.841  -0.418   1.547  0.00  0.00    +0.166 A 
ATOM     20  C   UNL     1      -3.564  -0.830   1.208  0.00  0.00    +0.059 A 
ATOM     21  C   UNL     1      -2.541   0.111   1.071  0.00  0.00    +0.002 A 
ATOM     22  C   UNL     1      -2.810   1.466   1.281  0.00  0.00    +0.059 A 
ATOM     23  C   UNL     1      -4.089   1.872   1.615  0.00  0.00    +0.166 A 
ATOM     24  C   UNL     1      -5.106   0.932   1.751  0.00  0.00    +0.204 A 
BRANCH  19  26
ATOM     25  C   UNL     1      -5.494  -2.703   1.458  0.00  0.00    +0.277 C 
ATOM     26  O   UNL     1      -5.837  -1.334   1.681  0.00  0.00    -0.491 OA
ENDBRANCH  19  26
BRANCH  24  27
ATOM     27  O   UNL     1      -6.362   1.335   2.084  0.00  0.00    -0.488 OA
ATOM     28  C   UNL     1      -6.676   1.396   3.477  0.00  0.00    +0.277 C 
ENDBRANCH  24  27
BRANCH  23  29
ATOM     29  O   UNL     1      -4.353   3.191   1.815  0.00  0.00    -0.491 OA
ATOM     30  C   UNL     1      -3.262   4.102   1.659  0.00  0.00    +0.277 C 
ENDBRANCH  23  29
ENDBRANCH  17  21
ENDBRANCH   1  18
TORSDOF 5
