REMARK  Name = ZINC31975645
REMARK  6 active torsions:
REMARK  status: ('A' for Active; 'I' for Inactive)
REMARK    1  A    between atoms: C_1  and  C_2
REMARK    2  A    between atoms: C_2  and  N_3
REMARK    3  A    between atoms: C_6  and  C_14
REMARK    4  A    between atoms: C_15  and  C_24
REMARK    5  A    between atoms: C_17  and  C_23
REMARK    6  A    between atoms: C_24  and  N_25
REMARK                            x       y       z     vdW  Elec       q    Type
REMARK                         _______ _______ _______ _____ _____    ______ ____
ROOT
ATOM      1  C   UNL     1      -2.223   1.034  -0.267  0.00  0.00    +0.091 A 
ATOM      2  C   UNL     1      -3.486   1.425  -0.598  0.00  0.00    +0.034 A 
ATOM      3  N   UNL     1      -4.345   0.520  -0.040  0.00  0.00    -0.302 N 
ATOM      4  C   UNL     1      -5.707   0.419  -0.047  0.00  0.00    +0.022 A 
ATOM      5  C   UNL     1      -6.324  -0.594   0.596  0.00  0.00    +0.021 A 
ATOM      6  C   UNL     1      -5.572  -1.561   1.283  0.00  0.00    +0.005 A 
ATOM      7  C   UNL     1      -4.214  -1.473   1.298  0.00  0.00    +0.047 A 
ATOM      8  C   UNL     1      -3.583  -0.408   0.622  0.00  0.00    +0.139 A 
ATOM      9  N   UNL     1      -2.308  -0.085   0.469  0.00  0.00    -0.228 NA
ATOM     10  C   UNL     1      -6.528   1.448  -0.780  0.00  0.00    +0.064 C 
ENDROOT
BRANCH   1  14
ATOM     11  N   UNL     1       2.417   0.903  -1.875  0.00  0.00    -0.266 N 
ATOM     12  C   UNL     1       1.298   1.631  -1.446  0.00  0.00    +0.079 A 
ATOM     13  C   UNL     1       0.134   0.981  -1.077  0.00  0.00    +0.037 A 
ATOM     14  C   UNL     1      -0.969   1.724  -0.659  0.00  0.00    +0.004 A 
ATOM     15  C   UNL     1      -0.892   3.114  -0.605  0.00  0.00    +0.014 A 
ATOM     16  C   UNL     1       0.272   3.759  -0.976  0.00  0.00    +0.048 A 
ATOM     17  C   UNL     1       1.368   3.023  -1.396  0.00  0.00    +0.143 A 
ATOM     18  O   UNL     1       2.520   3.648  -1.762  0.00  0.00    -0.481 OA
ATOM     19  C   UNL     1       3.741   2.956  -1.488  0.00  0.00    +0.325 C 
ATOM     20  C   UNL     1       3.619   1.519  -1.926  0.00  0.00    +0.257 C 
ATOM     21  O   UNL     1       4.595   0.918  -2.322  0.00  0.00    -0.272 OA
BRANCH  11  23
ATOM     22  C   UNL     1       1.978  -0.595  -3.758  0.00  0.00    +0.025 C 
ATOM     23  C   UNL     1       2.286  -0.504  -2.262  0.00  0.00    +0.110 C 
ENDBRANCH  11  23
ENDBRANCH   1  14
BRANCH   2  24
ATOM     24  C   UNL     1      -3.864   2.629  -1.422  0.00  0.00    -0.029 C 
BRANCH  24  25
ATOM     25  N   UNL     1      -4.215   3.742  -0.531  0.00  0.00    +0.382 N 
ATOM     26  H   UNL     1      -4.491   4.620  -1.133  0.00  0.00    -0.090 HD
ATOM     27  H   UNL     1      -3.352   3.990   0.104  0.00  0.00    -0.090 HD
ATOM     28  H   UNL     1      -5.066   3.450   0.103  0.00  0.00    -0.090 HD
ENDBRANCH  24  25
ENDBRANCH   2  24
TORSDOF 4
