REMARK  Name = ZINC36074996
REMARK  9 active torsions:
REMARK  status: ('A' for Active; 'I' for Inactive)
REMARK    1  A    between atoms: C_1  and  C_2
REMARK    2  A    between atoms: N_13  and  C_16
REMARK    3  A    between atoms: C_16  and  C_18
REMARK    4  A    between atoms: C_16  and  C_19
REMARK    5  A    between atoms: N_21  and  N_22
REMARK    6  A    between atoms: C_23  and  C_24
REMARK    7  A    between atoms: C_27  and  O_32
REMARK    8  A    between atoms: C_28  and  O_30
REMARK    9  A    between atoms: O_30  and  C_31
REMARK                            x       y       z     vdW  Elec       q    Type
REMARK                         _______ _______ _______ _____ _____    ______ ____
ROOT
ATOM      1  C   UNL     1      -3.086  -6.648   0.422  0.00  0.00    +0.176 C 
ATOM      2  C   UNL     1      -2.581  -7.421  -0.798  0.00  0.00    +0.041 C 
ENDROOT
BRANCH   1  14
ATOM      3  C   UNL     1      -1.088   2.212   1.852  0.00  0.00    +0.008 C 
ATOM      4  C   UNL     1      -1.095   0.749   1.403  0.00  0.00    -0.009 C 
ATOM      5  C   UNL     1      -2.440   0.110   1.758  0.00  0.00    +0.008 C 
ATOM      6  C   UNL     1      -2.551  -1.265   1.098  0.00  0.00    +0.037 C 
ATOM      7  C   UNL     1      -1.319  -2.089   1.463  0.00  0.00    -0.023 A 
ATOM      8  C   UNL     1      -0.197  -1.484   1.918  0.00  0.00    -0.004 A 
ATOM      9  S   UNL     1       0.957  -2.801   2.210  0.00  0.00    -0.073 S 
ATOM     10  C   UNL     1      -0.064  -4.156   1.724  0.00  0.00    +0.116 A 
ATOM     11  C   UNL     1      -1.276  -3.536   1.347  0.00  0.00    +0.076 A 
ATOM     12  C   UNL     1      -2.334  -4.394   0.893  0.00  0.00    +0.263 A 
ATOM     13  O   UNL     1      -3.418  -3.958   0.546  0.00  0.00    -0.267 OA
ATOM     14  N   UNL     1      -2.049  -5.717   0.875  0.00  0.00    -0.287 N 
ATOM     15  C   UNL     1      -0.851  -6.221   1.257  0.00  0.00    +0.204 A 
ATOM     16  N   UNL     1       0.141  -5.469   1.678  0.00  0.00    -0.230 NA
ATOM     17  C   UNL     1       0.023  -0.016   2.126  0.00  0.00    +0.046 C 
ENDBRANCH   1  14
BRANCH   1  18
ATOM     18  C   UNL     1      -3.410  -7.617   1.531  0.00  0.00    +0.255 C 
ATOM     19  O   UNL     1      -2.832  -7.537   2.594  0.00  0.00    -0.272 OA
ATOM     20  N   UNL     1      -4.343  -8.571   1.340  0.00  0.00    -0.205 N 
ATOM     21  H   UNL     1      -4.805  -8.635   0.490  0.00  0.00    +0.177 HD
BRANCH  20  22
ATOM     22  N   UNL     1      -4.644  -9.471   2.371  0.00  0.00    -0.188 NA
ATOM     23  C   UNL     1      -5.454 -10.461   2.151  0.00  0.00    +0.138 C 
BRANCH  23  24
ATOM     24  C   UNL     1      -5.684 -10.934   0.774  0.00  0.00    -0.002 A 
ATOM     25  C   UNL     1      -4.836 -10.524  -0.258  0.00  0.00    +0.013 A 
ATOM     26  C   UNL     1      -5.052 -10.967  -1.546  0.00  0.00    +0.050 A 
ATOM     27  C   UNL     1      -6.111 -11.821  -1.820  0.00  0.00    +0.158 A 
ATOM     28  C   UNL     1      -6.961 -12.234  -0.796  0.00  0.00    +0.162 A 
ATOM     29  C   UNL     1      -6.746 -11.799   0.498  0.00  0.00    +0.058 A 
BRANCH  28  30
ATOM     30  O   UNL     1      -7.998 -13.070  -1.070  0.00  0.00    -0.491 OA
ATOM     31  C   UNL     1      -8.829 -13.453   0.028  0.00  0.00    +0.277 C 
ENDBRANCH  28  30
BRANCH  27  32
ATOM     32  O   UNL     1      -6.320 -12.254  -3.092  0.00  0.00    -0.503 OA
ATOM     33  H   UNL     1      -5.859 -13.076  -3.308  0.00  0.00    +0.292 HD
ENDBRANCH  27  32
ENDBRANCH  23  24
ENDBRANCH  20  22
ENDBRANCH   1  18
TORSDOF 6
