REMARK  Name = ZINC11730657
REMARK  6 active torsions:
REMARK  status: ('A' for Active; 'I' for Inactive)
REMARK    1  A    between atoms: C_1  and  C_2
REMARK    2  A    between atoms: C_5  and  C_8
REMARK    3  A    between atoms: C_9  and  S_20
REMARK    4  A    between atoms: N_12  and  C_13
REMARK    5  A    between atoms: C_16  and  N_19
REMARK    6  A    between atoms: S_20  and  C_23
REMARK                            x       y       z     vdW  Elec       q    Type
REMARK                         _______ _______ _______ _____ _____    ______ ____
ROOT
ATOM      1  C   UNL     1      -0.609  -0.726   0.867  0.00  0.00    +0.120 A 
ATOM      2  C   UNL     1      -0.457  -2.039   0.519  0.00  0.00    +0.231 A 
ATOM      3  N   UNL     1       0.344  -2.055  -0.550  0.00  0.00    -0.109 NA
ATOM      4  N   UNL     1       0.667  -0.850  -0.857  0.00  0.00    -0.058 NA
ATOM      5  N   UNL     1       0.129  -0.014  -0.039  0.00  0.00    -0.210 N 
ENDROOT
BRANCH   1  10
ATOM      6  C   UNL     1      -3.715   1.374   5.235  0.00  0.00    +0.044 C 
ATOM      7  C   UNL     1      -2.901   0.824   4.091  0.00  0.00    -0.050 A 
ATOM      8  C   UNL     1      -1.550   1.108   4.008  0.00  0.00    +0.004 A 
ATOM      9  C   UNL     1      -0.800   0.608   2.963  0.00  0.00    +0.010 A 
ATOM     10  C   UNL     1      -1.408  -0.187   1.990  0.00  0.00    +0.004 A 
ATOM     11  C   UNL     1      -2.772  -0.466   2.078  0.00  0.00    +0.010 A 
ATOM     12  C   UNL     1      -3.510   0.036   3.130  0.00  0.00    +0.004 A 
ENDBRANCH   1  10
BRANCH   5  13
ATOM     13  C   UNL     1       0.271   1.381  -0.073  0.00  0.00    +0.068 A 
ATOM     14  C   UNL     1      -0.797   2.196   0.280  0.00  0.00    +0.029 A 
ATOM     15  C   UNL     1      -0.657   3.568   0.251  0.00  0.00    +0.025 A 
ATOM     16  C   UNL     1       0.549   4.135  -0.142  0.00  0.00    +0.025 A 
ATOM     17  C   UNL     1       1.615   3.320  -0.500  0.00  0.00    +0.025 A 
ATOM     18  C   UNL     1       1.476   1.947  -0.466  0.00  0.00    +0.029 A 
BRANCH  16  19
ATOM     19  N   UNL     1       0.689   5.525  -0.177  0.00  0.00    -0.358 N 
ATOM     20  H   UNL     1       1.531   5.921  -0.452  0.00  0.00    +0.142 HD
ATOM     21  H   UNL     1      -0.055   6.094   0.073  0.00  0.00    +0.142 HD
ENDBRANCH  16  19
ENDBRANCH   5  13
BRANCH   2  22
ATOM     22  S   UNL     1      -1.174  -3.435   1.321  0.00  0.00    +0.046 S 
ATOM     23  O   UNL     1      -2.256  -2.944   2.099  0.00  0.00    -0.163 OA
ATOM     24  O   UNL     1      -1.343  -4.433   0.324  0.00  0.00    -0.163 OA
BRANCH  22  25
ATOM     25  C   UNL     1       0.022  -4.055   2.456  0.00  0.00    +0.095 A 
ATOM     26  C   UNL     1       0.993  -4.939   2.024  0.00  0.00    +0.028 A 
ATOM     27  C   UNL     1       1.934  -5.422   2.913  0.00  0.00    +0.017 A 
ATOM     28  C   UNL     1       1.899  -5.028   4.239  0.00  0.00    +0.018 A 
ATOM     29  C   UNL     1       0.924  -4.147   4.672  0.00  0.00    +0.017 A 
ATOM     30  C   UNL     1      -0.013  -3.661   3.781  0.00  0.00    +0.028 A 
ATOM     31 BR   UNL     1       3.183  -5.693   5.457  0.00  0.00    -0.050 Br
ENDBRANCH  22  25
ENDBRANCH   2  22
TORSDOF 5
