REMARK  Name = ZINC56522934
REMARK  10 active torsions:
REMARK  status: ('A' for Active; 'I' for Inactive)
REMARK    1  A    between atoms: C_1  and  C_2
REMARK    2  A    between atoms: C_2  and  C_4
REMARK    3  A    between atoms: C_2  and  N_17
REMARK    4  A    between atoms: N_9  and  C_10
REMARK    5  A    between atoms: C_10  and  C_11
REMARK    6  A    between atoms: C_20  and  C_23
REMARK    7  A    between atoms: C_23  and  C_24
REMARK    8  A    between atoms: C_24  and  N_25
REMARK    9  A    between atoms: N_25  and  C_26
REMARK   10  A    between atoms: N_25  and  C_27
REMARK                            x       y       z     vdW  Elec       q    Type
REMARK                         _______ _______ _______ _____ _____    ______ ____
ROOT
ATOM      1  C   UNL     1       0.361   1.425   0.412  0.00  0.00    -0.004 C 
ATOM      2  C   UNL     1       0.002  -0.004   0.002  0.00  0.00    +0.017 C 
ENDROOT
BRANCH   2   3
ATOM      3  C   UNL     1       0.792  -0.388  -1.223  0.00  0.00    +0.207 C 
ATOM      4  O   UNL     1       1.867  -0.935  -1.103  0.00  0.00    -0.277 OA
ATOM      5  N   UNL     1       0.302  -0.124  -2.450  0.00  0.00    -0.242 N 
ATOM      6  C   UNL     1       1.009  -0.468  -3.546  0.00  0.00    +0.306 C 
ATOM      7  O   UNL     1       2.087  -1.016  -3.426  0.00  0.00    -0.252 OA
ATOM      8  N   UNL     1       0.519  -0.203  -4.773  0.00  0.00    -0.297 N 
ATOM      9  H   UNL     1      -0.558   0.314  -2.546  0.00  0.00    +0.159 HD
ATOM     10  H   UNL     1      -0.341   0.234  -4.869  0.00  0.00    +0.150 HD
BRANCH   8  11
ATOM     11  C   UNL     1       1.287  -0.577  -5.964  0.00  0.00    +0.137 C 
BRANCH  11  12
ATOM     12  C   UNL     1       0.513  -0.168  -7.219  0.00  0.00    +0.135 C 
ATOM     13  C   UNL     1       1.292  -0.586  -8.491  0.00  0.00    +0.035 C 
ATOM     14  C   UNL     1       0.137  -0.693  -9.523  0.00  0.00    +0.031 C 
ATOM     15  C   UNL     1      -1.032  -1.205  -8.653  0.00  0.00    +0.160 C 
ATOM     16  O   UNL     1      -0.733  -0.878  -7.289  0.00  0.00    -0.375 OA
ENDBRANCH  11  12
ENDBRANCH   8  11
ENDBRANCH   2   3
BRANCH   2  17
ATOM     17  N   UNL     1       0.324  -0.924   1.101  0.00  0.00    +0.387 N 
ATOM     18  C   UNL     1      -0.449  -0.551   2.292  0.00  0.00    -0.078 C 
ATOM     19  C   UNL     1      -0.058  -1.456   3.462  0.00  0.00    -0.015 C 
ATOM     20  C   UNL     1      -0.354  -2.913   3.096  0.00  0.00    -0.016 C 
ATOM     21  C   UNL     1       0.399  -3.268   1.811  0.00  0.00    -0.015 C 
ATOM     22  C   UNL     1      -0.009  -2.297   0.701  0.00  0.00    -0.078 C 
ATOM     23  H   UNL     1       1.309  -0.866   1.310  0.00  0.00    -0.081 HD
BRANCH  20  24
ATOM     24  C   UNL     1       0.108  -3.830   4.230  0.00  0.00    -0.015 C 
BRANCH  24  25
ATOM     25  C   UNL     1      -0.300  -5.271   3.919  0.00  0.00    -0.079 C 
BRANCH  25  26
ATOM     26  N   UNL     1       0.144  -6.152   5.008  0.00  0.00    +0.376 N 
ATOM     27  C   UNL     1      -0.351  -7.514   4.769  0.00  0.00    -0.097 C 
ATOM     28  C   UNL     1       1.612  -6.166   5.059  0.00  0.00    -0.097 C 
ATOM     29  H   UNL     1      -0.220  -5.811   5.885  0.00  0.00    -0.083 HD
ENDBRANCH  25  26
ENDBRANCH  24  25
ENDBRANCH  20  24
ENDBRANCH   2  17
TORSDOF 7
