REMARK  Name = ZINC39684103
REMARK  6 active torsions:
REMARK  status: ('A' for Active; 'I' for Inactive)
REMARK    1  A    between atoms: C_1  and  C_2
REMARK    2  A    between atoms: C_7  and  C_11
REMARK    3  A    between atoms: C_11  and  C_12
REMARK    4  A    between atoms: C_12  and  N_13
REMARK    5  A    between atoms: C_14  and  C_16
REMARK    6  A    between atoms: C_27  and  C_29
REMARK                            x       y       z     vdW  Elec       q    Type
REMARK                         _______ _______ _______ _____ _____    ______ ____
ROOT
ATOM      1  C   UNL     1      -8.826   1.366  -5.631  0.00  0.00    +0.100 C 
ATOM      2  C   UNL     1     -10.087   2.028  -5.033  0.00  0.00    +0.121 C 
ATOM      3  N   UNL     1     -11.196   1.580  -5.908  0.00  0.00    -0.296 N 
ATOM      4  C   UNL     1     -10.879   0.164  -6.209  0.00  0.00    +0.115 C 
ATOM      5  C   UNL     1      -9.350   0.142  -6.401  0.00  0.00    -0.004 C 
ATOM      6  C   UNL     1      -8.763  -1.140  -5.818  0.00  0.00    -0.010 C 
ATOM      7  C   UNL     1      -9.252  -2.338  -6.636  0.00  0.00    -0.082 C 
ATOM      8  N   UNL     1      -8.838  -2.179  -8.036  0.00  0.00    +0.379 N 
ATOM      9  C   UNL     1      -9.481  -0.994  -8.616  0.00  0.00    -0.082 C 
ATOM     10  C   UNL     1      -9.002   0.261  -7.882  0.00  0.00    -0.010 C 
ATOM     11  C   UNL     1     -12.253   2.299  -6.335  0.00  0.00    +0.247 C 
ATOM     12  O   UNL     1     -12.309   3.492  -6.108  0.00  0.00    -0.270 OA
ATOM     13  H   UNL     1      -7.836  -2.071  -8.078  0.00  0.00    -0.086 HD
ATOM     14  H   UNL     1      -9.108  -2.998  -8.560  0.00  0.00    -0.086 HD
ENDROOT
BRANCH  11  15
ATOM     15  C   UNL     1     -13.345   1.636  -7.079  0.00  0.00    +0.037 A 
ATOM     16  C   UNL     1     -13.524   0.255  -6.979  0.00  0.00    +0.014 A 
ATOM     17  C   UNL     1     -14.544  -0.357  -7.676  0.00  0.00    +0.021 A 
ATOM     18  C   UNL     1     -15.391   0.395  -8.473  0.00  0.00    +0.041 A 
ATOM     19  C   UNL     1     -15.219   1.765  -8.576  0.00  0.00    +0.021 A 
ATOM     20  C   UNL     1     -14.205   2.390  -7.880  0.00  0.00    +0.014 A 
ATOM     21 CL   UNL     1     -16.673  -0.384  -9.347  0.00  0.00    -0.084 Cl
ENDBRANCH  11  15
BRANCH   1  23
ATOM     22  N   UNL     1      -6.560   0.906  -4.752  0.00  0.00    -0.315 N 
ATOM     23  C   UNL     1      -7.889   0.933  -4.532  0.00  0.00    +0.218 C 
ATOM     24  O   UNL     1      -8.332   0.610  -3.451  0.00  0.00    -0.275 OA
ATOM     25  H   UNL     1      -6.206   1.164  -5.617  0.00  0.00    +0.149 HD
BRANCH  22  26
ATOM     26  C   UNL     1      -5.650   0.485  -3.684  0.00  0.00    +0.109 C 
BRANCH  26  27
ATOM     27  C   UNL     1      -4.207   0.544  -4.191  0.00  0.00    +0.056 C 
BRANCH  27  34
ATOM     28  C   UNL     1      -0.516  -2.258   0.034  0.00  0.00    +0.046 C 
ATOM     29  C   UNL     1      -1.470  -2.336  -1.131  0.00  0.00    -0.027 A 
ATOM     30  C   UNL     1      -1.813  -3.560  -1.661  0.00  0.00    +0.005 A 
ATOM     31  C   UNL     1      -2.689  -3.646  -2.735  0.00  0.00    +0.001 A 
ATOM     32  C   UNL     1      -3.227  -2.515  -3.283  0.00  0.00    +0.010 A 
ATOM     33  C   UNL     1      -2.893  -1.265  -2.761  0.00  0.00    +0.003 A 
ATOM     34  C   UNL     1      -3.271   0.111  -3.092  0.00  0.00    -0.021 A 
ATOM     35  C   UNL     1      -2.624   0.914  -2.232  0.00  0.00    +0.087 A 
ATOM     36  N   UNL     1      -1.863   0.164  -1.376  0.00  0.00    -0.360 N 
ATOM     37  C   UNL     1      -2.009  -1.173  -1.670  0.00  0.00    +0.050 A 
ATOM     38  H   UNL     1      -1.307   0.522  -0.667  0.00  0.00    +0.165 HD
ENDBRANCH  27  34
ENDBRANCH  26  27
ENDBRANCH  22  26
ENDBRANCH   1  23
TORSDOF 5
