REMARK  Name = ZINC02453243
REMARK  10 active torsions:
REMARK  status: ('A' for Active; 'I' for Inactive)
REMARK    1  A    between atoms: C_1  and  C_2
REMARK    2  A    between atoms: C_2  and  O_3
REMARK    3  A    between atoms: O_3  and  C_4
REMARK    4  A    between atoms: C_4  and  C_6
REMARK    5  A    between atoms: C_7  and  N_17
REMARK    6  A    between atoms: C_18  and  C_20
REMARK    7  A    between atoms: C_20  and  N_54
REMARK    8  A    between atoms: C_25  and  C_27
REMARK    9  A    between atoms: C_27  and  C_28
REMARK   10  A    between atoms: C_28  and  O_29
REMARK                            x       y       z     vdW  Elec       q    Type
REMARK                         _______ _______ _______ _____ _____    ______ ____
ROOT
ATOM      1  C   UNL     1       3.813   1.307   5.168  0.00  0.00    +0.147 A 
ATOM      2  C   UNL     1       3.106   1.472   3.995  0.00  0.00    +0.073 A 
ATOM      3  C   UNL     1       3.933   2.309   3.121  0.00  0.00    +0.023 A 
ATOM      4  C   UNL     1       3.764   2.809   1.826  0.00  0.00    +0.031 A 
ATOM      5  C   UNL     1       4.740   3.583   1.265  0.00  0.00    +0.042 A 
ATOM      6  C   UNL     1       5.900   3.878   1.971  0.00  0.00    +0.022 A 
ATOM      7  C   UNL     1       6.083   3.404   3.251  0.00  0.00    +0.028 A 
ATOM      8  C   UNL     1       5.104   2.608   3.842  0.00  0.00    +0.049 A 
ATOM      9  N   UNL     1       5.014   1.994   5.070  0.00  0.00    -0.348 N 
ATOM     10  H   UNL     1       5.692   2.033   5.763  0.00  0.00    +0.166 HD
ATOM     11 CL   UNL     1       4.530   4.201  -0.344  0.00  0.00    -0.084 Cl
ENDROOT
BRANCH   2  12
ATOM     12  N   UNL     1       1.855   0.943   3.697  0.00  0.00    -0.285 N 
ATOM     13  C   UNL     1       1.002   1.629   2.911  0.00  0.00    +0.201 C 
ATOM     14  O   UNL     1       1.356   2.668   2.394  0.00  0.00    -0.278 OA
ATOM     15  H   UNL     1       1.596   0.079   4.054  0.00  0.00    +0.155 HD
BRANCH  13  16
ATOM     16  C   UNL     1      -0.392   1.107   2.675  0.00  0.00    +0.019 C 
BRANCH  16  22
ATOM     17  C   UNL     1      -0.605   2.270   0.562  0.00  0.00    -0.078 C 
ATOM     18  C   UNL     1      -1.514   3.193  -0.252  0.00  0.00    -0.019 C 
ATOM     19  C   UNL     1      -1.622   4.548   0.454  0.00  0.00    -0.003 C 
ATOM     20  C   UNL     1      -2.159   4.334   1.872  0.00  0.00    -0.015 C 
ATOM     21  C   UNL     1      -1.231   3.377   2.625  0.00  0.00    -0.066 C 
ATOM     22  N   UNL     1      -1.190   2.085   1.907  0.00  0.00    +0.387 N 
ATOM     23  H   UNL     1      -2.148   1.729   1.808  0.00  0.00    -0.081 HD
BRANCH  21  24
ATOM     24  C   UNL     1      -1.775   3.144   4.036  0.00  0.00    +0.012 C 
BRANCH  24  25
ATOM     25  C   UNL     1      -1.734   4.457   4.821  0.00  0.00    +0.154 C 
BRANCH  25  26
ATOM     26  O   UNL     1      -2.128   4.215   6.173  0.00  0.00    -0.395 OA
ATOM     27  H   UNL     1      -2.125   5.005   6.731  0.00  0.00    +0.209 HD
ENDBRANCH  25  26
ENDBRANCH  24  25
ENDBRANCH  21  24
ENDBRANCH  16  22
ENDBRANCH  13  16
ENDBRANCH   2  12
BRANCH   1  28
ATOM     28  C   UNL     1       3.381   0.558   6.292  0.00  0.00    +0.358 C 
ATOM     29  O   UNL     1       2.347  -0.081   6.236  0.00  0.00    -0.243 OA
BRANCH  28  30
ATOM     30  O   UNL     1       4.117   0.553   7.423  0.00  0.00    -0.460 OA
BRANCH  30  32
ATOM     31  C   UNL     1       4.584  -0.107   9.700  0.00  0.00    +0.048 C 
ATOM     32  C   UNL     1       3.623  -0.224   8.515  0.00  0.00    +0.229 C 
ENDBRANCH  30  32
ENDBRANCH  28  30
ENDBRANCH   1  28
TORSDOF 9
