REMARK  Name = ZINC49093401
REMARK  9 active torsions:
REMARK  status: ('A' for Active; 'I' for Inactive)
REMARK    1  A    between atoms: C_1  and  C_2
REMARK    2  A    between atoms: C_2  and  C_3
REMARK    3  A    between atoms: C_3  and  C_5
REMARK    4  A    between atoms: C_3  and  C_6
REMARK    5  A    between atoms: C_6  and  C_8
REMARK    6  A    between atoms: C_6  and  N_9
REMARK    7  A    between atoms: N_9  and  C_10
REMARK    8  A    between atoms: C_13  and  C_22
REMARK    9  A    between atoms: C_16  and  C_21
REMARK                            x       y       z     vdW  Elec       q    Type
REMARK                         _______ _______ _______ _____ _____    ______ ____
ROOT
ATOM      1  C   UNL     1       1.813  -3.966   2.237  0.00  0.00    +0.050 C 
ATOM      2  C   UNL     1       2.476  -4.505   3.483  0.00  0.00    -0.028 A 
ATOM      3  C   UNL     1       2.088  -4.553   4.804  0.00  0.00    -0.047 A 
ATOM      4  C   UNL     1       2.925  -5.123   5.748  0.00  0.00    +0.004 A 
ATOM      5  C   UNL     1       4.147  -5.642   5.361  0.00  0.00    +0.005 A 
ATOM      6  C   UNL     1       4.537  -5.595   4.038  0.00  0.00    -0.029 A 
ATOM      7  C   UNL     1       3.700  -5.023   3.082  0.00  0.00    +0.039 A 
ATOM      8  N   UNL     1       3.866  -4.859   1.706  0.00  0.00    -0.286 N 
ATOM      9  C   UNL     1       2.809  -4.251   1.133  0.00  0.00    +0.208 C 
ATOM     10  O   UNL     1       2.679  -3.983  -0.042  0.00  0.00    -0.277 OA
ATOM     11  C   UNL     1       5.871  -6.163   3.627  0.00  0.00    +0.045 C 
ATOM     12  C   UNL     1       0.756  -3.987   5.220  0.00  0.00    +0.044 C 
ATOM     13  H   UNL     1       4.652  -5.150   1.218  0.00  0.00    +0.155 HD
ENDROOT
BRANCH   1  14
ATOM     14  N   UNL     1       1.582  -2.520   2.361  0.00  0.00    +0.391 N 
ATOM     15  H   UNL     1       2.468  -2.044   2.442  0.00  0.00    -0.084 HD
ATOM     16  H   UNL     1       1.026  -2.338   3.183  0.00  0.00    -0.084 HD
BRANCH  14  17
ATOM     17  C   UNL     1       0.872  -2.034   1.171  0.00  0.00    -0.071 C 
ATOM     18  C   UNL     1      -0.522  -2.663   1.116  0.00  0.00    -0.013 C 
BRANCH  17  19
ATOM     19  C   UNL     1       0.742  -0.511   1.242  0.00  0.00    -0.029 C 
ATOM     20  C   UNL     1      -0.042  -0.124   2.497  0.00  0.00    +0.006 C 
BRANCH  19  22
ATOM     21  C   UNL     1      -0.019   1.526   0.010  0.00  0.00    +0.004 C 
ATOM     22  C   UNL     1       0.002  -0.004   0.002  0.00  0.00    -0.002 C 
ENDBRANCH  19  22
ENDBRANCH  17  19
ENDBRANCH  14  17
ENDBRANCH   1  14
TORSDOF 4
