REMARK  Name = ZINC05958246
REMARK  6 active torsions:
REMARK  status: ('A' for Active; 'I' for Inactive)
REMARK    1  A    between atoms: C_1  and  C_2
REMARK    2  A    between atoms: C_2  and  C_3
REMARK    3  A    between atoms: C_2  and  C_4
REMARK    4  A    between atoms: C_4  and  C_6
REMARK    5  A    between atoms: C_4  and  O_12
REMARK    6  A    between atoms: O_12  and  C_13
REMARK                            x       y       z     vdW  Elec       q    Type
REMARK                         _______ _______ _______ _____ _____    ______ ____
ROOT
ATOM      1  C   UNL     1      -3.797   2.579   0.344  0.00  0.00    +0.262 C 
ENDROOT
BRANCH   1   2
ATOM      2  C   UNL     1      -4.848   1.929   1.207  0.00  0.00    +0.261 C 
ATOM      3  O   UNL     1      -5.892   2.505   1.429  0.00  0.00    -0.271 OA
ATOM      4  N   UNL     1      -4.628   0.708   1.733  0.00  0.00    -0.237 N 
ATOM      5  C   UNL     1      -5.599   0.091   2.436  0.00  0.00    +0.303 C 
ATOM      6  O   UNL     1      -6.673   0.637   2.594  0.00  0.00    -0.253 OA
ATOM      7  N   UNL     1      -5.378  -1.130   2.962  0.00  0.00    -0.313 N 
ATOM      8  H   UNL     1      -3.770   0.273   1.607  0.00  0.00    +0.159 HD
ATOM      9  H   UNL     1      -4.521  -1.565   2.835  0.00  0.00    +0.146 HD
ATOM     10  H   UNL     1      -6.077  -1.573   3.467  0.00  0.00    +0.146 HD
ENDBRANCH   1   2
BRANCH   1  12
ATOM     11  C   UNL     1      -5.567   3.460  -1.183  0.00  0.00    +0.011 C 
ATOM     12  C   UNL     1      -4.286   2.627  -1.105  0.00  0.00    +0.033 C 
ATOM     13  C   UNL     1      -3.209   3.263  -1.986  0.00  0.00    +0.011 C 
ENDBRANCH   1  12
BRANCH   1  14
ATOM     14  O   UNL     1      -2.588   1.820   0.414  0.00  0.00    -0.478 OA
BRANCH  14  15
ATOM     15  C   UNL     1      -1.423   2.519   0.458  0.00  0.00    +0.141 A 
ATOM     16  C   UNL     1      -1.438   3.901   0.346  0.00  0.00    +0.068 A 
ATOM     17  C   UNL     1      -0.251   4.610   0.385  0.00  0.00    +0.063 A 
ATOM     18  C   UNL     1       0.951   3.941   0.542  0.00  0.00    +0.061 A 
ATOM     19  C   UNL     1       0.967   2.563   0.660  0.00  0.00    +0.045 A 
ATOM     20  C   UNL     1      -0.217   1.851   0.620  0.00  0.00    +0.084 A 
ATOM     21 CL   UNL     1      -0.196   0.121   0.766  0.00  0.00    -0.080 Cl
ATOM     22 CL   UNL     1       2.440   4.832   0.592  0.00  0.00    -0.082 Cl
ATOM     23 CL   UNL     1      -0.268   6.340   0.238  0.00  0.00    -0.082 Cl
ENDBRANCH  14  15
ENDBRANCH   1  14
TORSDOF 4
