REMARK  Name = ZINC07486708
REMARK  4 active torsions:
REMARK  status: ('A' for Active; 'I' for Inactive)
REMARK    1  A    between atoms: C_1  and  C_2
REMARK    2  A    between atoms: C_2  and  C_4
REMARK    3  A    between atoms: C_2  and  N_16
REMARK    4  A    between atoms: N_9  and  C_10
REMARK                            x       y       z     vdW  Elec       q    Type
REMARK                         _______ _______ _______ _____ _____    ______ ____
ROOT
ATOM      1  C   UNL     1       0.707  -0.490  -1.238  0.00  0.00    +0.207 C 
ATOM      2  O   UNL     1       0.120  -1.191  -2.034  0.00  0.00    -0.277 OA
ATOM      3  N   UNL     1       1.991  -0.146  -1.462  0.00  0.00    -0.242 N 
ATOM      4  C   UNL     1       2.622  -0.580  -2.570  0.00  0.00    +0.306 C 
ATOM      5  O   UNL     1       2.033  -1.283  -3.369  0.00  0.00    -0.252 OA
ATOM      6  N   UNL     1       3.906  -0.236  -2.794  0.00  0.00    -0.296 N 
ATOM      7  H   UNL     1       2.461   0.415  -0.825  0.00  0.00    +0.159 HD
ATOM      8  H   UNL     1       4.376   0.324  -2.157  0.00  0.00    +0.151 HD
ENDROOT
BRANCH   6   9
ATOM      9  C   UNL     1       4.591  -0.709  -3.999  0.00  0.00    +0.074 C 
ATOM     10  C   UNL     1       4.288   0.238  -5.163  0.00  0.00    +0.022 C 
ATOM     11  C   UNL     1       5.004  -0.256  -6.422  0.00  0.00    +0.002 C 
ATOM     12  C   UNL     1       6.513  -0.288  -6.170  0.00  0.00    +0.000 C 
ATOM     13  C   UNL     1       6.816  -1.234  -5.007  0.00  0.00    +0.002 C 
ATOM     14  C   UNL     1       6.100  -0.741  -3.748  0.00  0.00    +0.022 C 
ENDBRANCH   6   9
BRANCH   1  16
ATOM     15  C   UNL     1      -0.019   1.526   0.010  0.00  0.00    -0.004 C 
ATOM     16  C   UNL     1       0.002  -0.004   0.002  0.00  0.00    +0.017 C 
BRANCH  16  17
ATOM     17  N   UNL     1      -1.376  -0.512   0.012  0.00  0.00    +0.387 N 
ATOM     18  C   UNL     1      -1.354  -1.982  -0.007  0.00  0.00    -0.078 C 
ATOM     19  C   UNL     1      -2.723  -2.538   0.381  0.00  0.00    -0.019 C 
ATOM     20  C   UNL     1      -3.682  -2.408  -0.808  0.00  0.00    -0.002 C 
ATOM     21  C   UNL     1      -4.098  -0.943  -0.943  0.00  0.00    -0.000 C 
ATOM     22  C   UNL     1      -4.411  -0.382   0.446  0.00  0.00    -0.002 C 
ATOM     23  C   UNL     1      -3.366   0.665   0.823  0.00  0.00    -0.019 C 
ATOM     24  C   UNL     1      -2.062  -0.038   1.222  0.00  0.00    -0.078 C 
ATOM     25  H   UNL     1      -1.864  -0.175  -0.804  0.00  0.00    -0.081 HD
ENDBRANCH  16  17
ENDBRANCH   1  16
TORSDOF 3
