REMARK  Name = ZINC49609367
REMARK  7 active torsions:
REMARK  status: ('A' for Active; 'I' for Inactive)
REMARK    1  A    between atoms: C_1  and  N_2
REMARK    2  A    between atoms: N_2  and  C_3
REMARK    3  A    between atoms: N_2  and  C_15
REMARK    4  A    between atoms: C_3  and  C_4
REMARK    5  A    between atoms: C_7  and  C_11
REMARK    6  A    between atoms: C_12  and  C_13
REMARK    7  A    between atoms: C_13  and  N_14
REMARK                            x       y       z     vdW  Elec       q    Type
REMARK                         _______ _______ _______ _____ _____    ______ ____
ROOT
ATOM      1  C   UNL     1      -2.055  -0.361  -1.242  0.00  0.00    -0.029 A 
ATOM      2  C   UNL     1      -3.017   0.632  -1.268  0.00  0.00    +0.006 A 
ATOM      3  C   UNL     1      -3.699   0.906  -2.436  0.00  0.00    +0.017 A 
ATOM      4  C   UNL     1      -3.417   0.179  -3.593  0.00  0.00    +0.028 A 
ATOM      5  C   UNL     1      -2.446  -0.822  -3.562  0.00  0.00    +0.055 A 
ATOM      6  C   UNL     1      -1.766  -1.084  -2.388  0.00  0.00    +0.126 A 
ATOM      7  F   UNL     1      -0.821  -2.050  -2.356  0.00  0.00    -0.205 F 
ENDROOT
BRANCH   4   8
ATOM      8  C   UNL     1      -4.122   0.460  -4.808  0.00  0.00    -0.068 C 
ATOM      9  C   UNL     1      -4.700   0.689  -5.803  0.00  0.00    -0.117 C 
BRANCH   9  10
ATOM     10  C   UNL     1      -5.425   0.978  -7.051  0.00  0.00    +0.005 C 
BRANCH  10  11
ATOM     11  N   UNL     1      -4.946   0.082  -8.113  0.00  0.00    +0.385 N 
ATOM     12  H   UNL     1      -5.443   0.279  -8.969  0.00  0.00    -0.089 HD
ATOM     13  H   UNL     1      -3.958   0.228  -8.257  0.00  0.00    -0.089 HD
ATOM     14  H   UNL     1      -5.109  -0.877  -7.843  0.00  0.00    -0.089 HD
ENDBRANCH  10  11
ENDBRANCH   9  10
ENDBRANCH   4   8
BRANCH   1  15
ATOM     15  C   UNL     1      -1.314  -0.655   0.038  0.00  0.00    -0.040 C 
BRANCH  15  17
ATOM     16  C   UNL     1      -0.174   1.454  -0.029  0.00  0.00    -0.095 C 
ATOM     17  N   UNL     1       0.002  -0.004   0.002  0.00  0.00    +0.382 N 
ATOM     18  H   UNL     1       0.502  -0.300  -0.823  0.00  0.00    -0.081 HD
BRANCH  17  19
ATOM     19  C   UNL     1       0.767  -0.380   1.199  0.00  0.00    -0.069 C 
ATOM     20  C   UNL     1       2.141   0.319   1.153  0.00  0.00    -0.015 C 
ATOM     21  C   UNL     1       2.701   0.364   2.549  0.00  0.00    -0.002 C 
ATOM     22  C   UNL     1       3.635  -0.824   2.848  0.00  0.00    -0.000 C 
ATOM     23  C   UNL     1       3.098  -2.159   2.297  0.00  0.00    -0.000 C 
ATOM     24  C   UNL     1       1.618  -2.318   2.513  0.00  0.00    -0.002 C 
ATOM     25  C   UNL     1       0.883  -1.830   1.248  0.00  0.00    -0.015 C 
ENDBRANCH  17  19
ENDBRANCH  15  17
ENDBRANCH   1  15
TORSDOF 6
