REMARK  Name = ZINC63795694
REMARK  10 active torsions:
REMARK  status: ('A' for Active; 'I' for Inactive)
REMARK    1  A    between atoms: CG1_1  and  CB_2
REMARK    2  A    between atoms: CB_2  and  CG2_3
REMARK    3  A    between atoms: CB_2  and  CA_4
REMARK    4  A    between atoms: CA_4  and  C_6
REMARK    5  A    between atoms: CA_4  and  N_8
REMARK    6  A    between atoms: C_6  and  O_7
REMARK    7  A    between atoms: C_9  and  C_11
REMARK    8  A    between atoms: N_19  and  C_22
REMARK    9  A    between atoms: C_22  and  C_23
REMARK   10  A    between atoms: C_23  and  C_24
REMARK                            x       y       z     vdW  Elec       q    Type
REMARK                         _______ _______ _______ _____ _____    ______ ____
ROOT
ATOM      1  C   UNK A   0      -2.236  -4.207  -0.565  0.00  0.00    +0.037 A 
ATOM      2  C   UNK A   0      -1.238  -4.782   0.223  0.00  0.00    +0.014 A 
ATOM      3  C   UNK A   0      -1.178  -6.155   0.382  0.00  0.00    +0.014 A 
ATOM      4  C   UNK A   0      -2.114  -6.965  -0.243  0.00  0.00    +0.049 A 
ATOM      5  C   UNK A   0      -3.124  -6.390  -1.041  0.00  0.00    +0.050 A 
ATOM      6  C   UNK A   0      -3.186  -5.016  -1.194  0.00  0.00    +0.027 A 
ATOM      7  C   UNK A   0      -3.933  -7.520  -1.545  0.00  0.00    +0.254 C 
ATOM      8  O   UNK A   0      -4.902  -7.429  -2.271  0.00  0.00    -0.270 OA
ATOM      9  N   UNK A   0      -3.417  -8.666  -1.066  0.00  0.00    -0.234 N 
ATOM     10  C   UNK A   0      -2.344  -8.427  -0.291  0.00  0.00    +0.254 C 
ATOM     11  O   UNK A   0      -1.676  -9.268   0.275  0.00  0.00    -0.270 OA
ENDROOT
BRANCH   1  13
ATOM     12  N   VAL A   1      -1.375  -1.956  -0.124  0.00  0.00    -0.306 N 
ATOM     13  C   UNK A   0      -2.291  -2.737  -0.730  0.00  0.00    +0.244 C 
ATOM     14  O   UNK A   0      -3.163  -2.235  -1.412  0.00  0.00    -0.270 OA
ATOM     15  H   VAL A   1      -0.680  -2.357   0.421  0.00  0.00    +0.149 HD
BRANCH  12  16
ATOM     16  CA  VAL A   1      -1.431  -0.501  -0.287  0.00  0.00    +0.101 C 
BRANCH  16  18
ATOM     17  CG1 VAL A   1       0.947  -0.551  -1.053  0.00  0.00    +0.009 C 
ATOM     18  CB  VAL A   1      -0.036   0.090  -0.071  0.00  0.00    +0.005 C 
ATOM     19  CG2 VAL A   1      -0.080   1.601  -0.307  0.00  0.00    +0.009 C 
ENDBRANCH  16  18
BRANCH  16  20
ATOM     20  C   VAL A   1      -2.400   0.091   0.739  0.00  0.00    +0.178 C 
BRANCH  20  21
ATOM     21  O   VAL A   1      -1.887  -0.122   2.056  0.00  0.00    -0.393 OA
ATOM     22  H   VAL A   1      -2.451   0.229   2.759  0.00  0.00    +0.209 HD
ENDBRANCH  20  21
ENDBRANCH  16  20
ENDBRANCH  12  16
ENDBRANCH   1  13
BRANCH   9  23
ATOM     23  C   UNK A   0      -3.952  -9.999  -1.351  0.00  0.00    +0.121 C 
BRANCH  23  24
ATOM     24  C   UNK A   0      -3.281 -10.560  -2.607  0.00  0.00    +0.052 C 
BRANCH  24  25
ATOM     25  C   UNK A   0      -3.832 -11.932  -2.900  0.00  0.00    -0.040 C 
ATOM     26  C   UNK A   0      -4.841 -12.239  -3.747  0.00  0.00    -0.001 A 
ATOM     27  C   UNK A   0      -5.695 -11.419  -4.614  0.00  0.00    +0.010 A 
ATOM     28  C   UNK A   0      -6.643 -12.027  -5.364  0.00  0.00    +0.001 A 
ATOM     29  C   UNK A   0      -6.829 -13.415  -5.334  0.00  0.00    +0.002 A 
ATOM     30  C   UNK A   0      -6.083 -14.235  -4.563  0.00  0.00    +0.026 A 
ATOM     31  C   UNK A   0      -5.057 -13.704  -3.733  0.00  0.00    +0.043 A 
ATOM     32  N   UNK A   0      -4.215 -14.279  -2.910  0.00  0.00    -0.380 N 
ATOM     33  C   UNK A   0      -3.364 -13.245  -2.312  0.00  0.00    +0.144 C 
ATOM     34  H   UNK A   0      -4.161 -15.231  -2.730  0.00  0.00    +0.160 HD
ENDBRANCH  24  25
ENDBRANCH  23  24
ENDBRANCH   9  23
TORSDOF 8
