REMARK  Name = ZINC39684102
REMARK  10 active torsions:
REMARK  status: ('A' for Active; 'I' for Inactive)
REMARK    1  A    between atoms: C_1  and  C_2
REMARK    2  A    between atoms: C_7  and  C_11
REMARK    3  A    between atoms: C_11  and  C_12
REMARK    4  A    between atoms: C_12  and  N_13
REMARK    5  A    between atoms: C_14  and  C_16
REMARK    6  A    between atoms: C_27  and  C_29
REMARK    7  A    between atoms: C_32  and  O_37
REMARK    8  A    between atoms: C_34  and  O_35
REMARK    9  A    between atoms: O_35  and  C_36
REMARK   10  A    between atoms: O_37  and  C_38
REMARK                            x       y       z     vdW  Elec       q    Type
REMARK                         _______ _______ _______ _____ _____    ______ ____
ROOT
ATOM      1  C   UNL     1      -8.681   1.730  -6.215  0.00  0.00    +0.100 C 
ATOM      2  C   UNL     1      -8.197   2.857  -7.155  0.00  0.00    +0.121 C 
ATOM      3  N   UNL     1      -7.815   2.162  -8.407  0.00  0.00    -0.296 N 
ATOM      4  C   UNL     1      -8.853   1.117  -8.579  0.00  0.00    +0.115 C 
ATOM      5  C   UNL     1      -9.114   0.591  -7.154  0.00  0.00    -0.004 C 
ATOM      6  C   UNL     1     -10.598   0.288  -6.967  0.00  0.00    -0.010 C 
ATOM      7  C   UNL     1     -10.992  -0.886  -7.868  0.00  0.00    -0.082 C 
ATOM      8  N   UNL     1     -10.184  -2.062  -7.524  0.00  0.00    +0.379 N 
ATOM      9  C   UNL     1      -8.766  -1.793  -7.796  0.00  0.00    -0.082 C 
ATOM     10  C   UNL     1      -8.278  -0.657  -6.891  0.00  0.00    -0.010 C 
ATOM     11  C   UNL     1      -6.763   2.421  -9.208  0.00  0.00    +0.250 C 
ATOM     12  O   UNL     1      -5.940   3.254  -8.880  0.00  0.00    -0.270 OA
ATOM     13  H   UNL     1     -10.302  -2.276  -6.545  0.00  0.00    -0.086 HD
ATOM     14  H   UNL     1     -10.487  -2.850  -8.077  0.00  0.00    -0.086 HD
ENDROOT
BRANCH  11  15
ATOM     15  C   UNL     1      -6.611   1.696 -10.482  0.00  0.00    +0.079 A 
ATOM     16  C   UNL     1      -7.740   1.341 -11.226  0.00  0.00    +0.020 A 
ATOM     17  C   UNL     1      -7.593   0.664 -12.415  0.00  0.00    +0.046 A 
ATOM     18  C   UNL     1      -6.324   0.331 -12.880  0.00  0.00    +0.124 A 
ATOM     19  C   UNL     1      -5.198   0.679 -12.150  0.00  0.00    +0.092 A 
ATOM     20  C   UNL     1      -5.332   1.365 -10.955  0.00  0.00    +0.136 A 
BRANCH  20  21
ATOM     21  O   UNL     1      -4.231   1.712 -10.241  0.00  0.00    -0.494 OA
ATOM     22  C   UNL     1      -2.963   1.341 -10.785  0.00  0.00    +0.277 C 
ENDBRANCH  20  21
BRANCH  18  23
ATOM     23  O   UNL     1      -6.189  -0.337 -14.054  0.00  0.00    -0.495 OA
ATOM     24  C   UNL     1      -7.389  -0.664 -14.757  0.00  0.00    +0.277 C 
ENDBRANCH  18  23
ENDBRANCH  11  15
BRANCH   1  26
ATOM     25  N   UNL     1      -7.826   0.802  -4.087  0.00  0.00    -0.315 N 
ATOM     26  C   UNL     1      -7.557   1.273  -5.321  0.00  0.00    +0.218 C 
ATOM     27  O   UNL     1      -6.410   1.329  -5.711  0.00  0.00    -0.275 OA
ATOM     28  H   UNL     1      -8.744   0.757  -3.775  0.00  0.00    +0.149 HD
BRANCH  25  29
ATOM     29  C   UNL     1      -6.734   0.358  -3.218  0.00  0.00    +0.109 C 
BRANCH  29  30
ATOM     30  C   UNL     1      -7.308  -0.127  -1.885  0.00  0.00    +0.056 C 
BRANCH  30  37
ATOM     31  C   UNL     1      -2.553  -0.986   2.113  0.00  0.00    +0.046 C 
ATOM     32  C   UNL     1      -3.541  -0.078   1.426  0.00  0.00    -0.027 A 
ATOM     33  C   UNL     1      -3.539   1.274   1.694  0.00  0.00    +0.005 A 
ATOM     34  C   UNL     1      -4.443   2.120   1.069  0.00  0.00    +0.001 A 
ATOM     35  C   UNL     1      -5.352   1.627   0.175  0.00  0.00    +0.010 A 
ATOM     36  C   UNL     1      -5.371   0.262  -0.112  0.00  0.00    +0.003 A 
ATOM     37  C   UNL     1      -6.184  -0.583  -0.991  0.00  0.00    -0.021 A 
ATOM     38  C   UNL     1      -5.738  -1.841  -0.848  0.00  0.00    +0.087 A 
ATOM     39  N   UNL     1      -4.706  -1.871   0.050  0.00  0.00    -0.360 N 
ATOM     40  C   UNL     1      -4.453  -0.601   0.516  0.00  0.00    +0.050 A 
ATOM     41  H   UNL     1      -4.223  -2.669   0.317  0.00  0.00    +0.165 HD
ENDBRANCH  30  37
ENDBRANCH  29  30
ENDBRANCH  25  29
ENDBRANCH   1  26
TORSDOF 7
