REMARK  Name = ZINC37212070
REMARK  6 active torsions:
REMARK  status: ('A' for Active; 'I' for Inactive)
REMARK    1  A    between atoms: C_1  and  N_2
REMARK    2  A    between atoms: C_6  and  C_7
REMARK    3  A    between atoms: C_7  and  C_9
REMARK    4  A    between atoms: C_7  and  N_14
REMARK    5  A    between atoms: N_14  and  C_15
REMARK    6  A    between atoms: C_18  and  C_21
REMARK                            x       y       z     vdW  Elec       q    Type
REMARK                         _______ _______ _______ _____ _____    ______ ____
ROOT
ATOM      1  C   UNL     1      -0.188  -0.327   2.503  0.00  0.00    +0.172 C 
ENDROOT
BRANCH   1   7
ATOM      2  C   UNL     1      -0.204  -3.299   1.626  0.00  0.00    +0.150 C 
ATOM      3  N   UNL     1      -0.149  -2.145   0.725  0.00  0.00    -0.337 N 
ATOM      4  C   UNL     1      -0.102  -2.184  -0.642  0.00  0.00    +0.104 A 
ATOM      5  C   UNL     1      -0.062  -0.906  -1.067  0.00  0.00    +0.102 A 
ATOM      6  N   UNL     1      -0.084  -0.109   0.012  0.00  0.00    -0.348 N 
ATOM      7  C   UNL     1      -0.141  -0.844   1.089  0.00  0.00    +0.113 A 
ATOM      8  H   UNL     1      -0.064   0.860  -0.006  0.00  0.00    +0.167 HD
ENDBRANCH   1   7
BRANCH   1   9
ATOM      9  C   UNL     1       1.214  -0.059   2.986  0.00  0.00    +0.017 A 
ATOM     10  C   UNL     1       2.008  -0.826   3.773  0.00  0.00    +0.013 A 
ATOM     11  C   UNL     1       3.275  -0.373   4.091  0.00  0.00    +0.008 A 
ATOM     12  C   UNL     1       3.687   0.823   3.606  0.00  0.00    +0.045 A 
ATOM     13  S   UNL     1       2.265   1.348   2.663  0.00  0.00    -0.099 S 
ENDBRANCH   1   9
BRANCH   1  14
ATOM     14  N   UNL     1      -0.964   0.914   2.545  0.00  0.00    -0.330 N 
ATOM     15  H   UNL     1      -1.063   1.452   1.743  0.00  0.00    +0.147 HD
BRANCH  14  16
ATOM     16  C   UNL     1      -1.561   1.323   3.734  0.00  0.00    +0.028 A 
ATOM     17  C   UNL     1      -1.414   0.553   4.884  0.00  0.00    +0.024 A 
ATOM     18  C   UNL     1      -2.003   0.954   6.062  0.00  0.00    +0.020 A 
ATOM     19  C   UNL     1      -2.750   2.136   6.102  0.00  0.00    +0.052 A 
ATOM     20  C   UNL     1      -2.895   2.906   4.944  0.00  0.00    +0.020 A 
ATOM     21  C   UNL     1      -2.299   2.502   3.771  0.00  0.00    +0.024 A 
BRANCH  19  22
ATOM     22  C   UNL     1      -3.364   2.556   7.325  0.00  0.00    +0.099 C 
ATOM     23  N   UNL     1      -3.852   2.889   8.296  0.00  0.00    -0.191 NA
ENDBRANCH  19  22
ENDBRANCH  14  16
ENDBRANCH   1  14
TORSDOF 5
