REMARK  Name = ZINC43212283
REMARK  10 active torsions:
REMARK  status: ('A' for Active; 'I' for Inactive)
REMARK    1  A    between atoms: C_1  and  C_2
REMARK    2  A    between atoms: C_2  and  C_3
REMARK    3  A    between atoms: C_2  and  C_4
REMARK    4  A    between atoms: C_4  and  C_28
REMARK    5  A    between atoms: C_9  and  C_12
REMARK    6  A    between atoms: C_15  and  O_20
REMARK    7  A    between atoms: C_16  and  O_18
REMARK    8  A    between atoms: O_18  and  C_19
REMARK    9  A    between atoms: O_20  and  C_21
REMARK   10  A    between atoms: N_24  and  C_27
REMARK                            x       y       z     vdW  Elec       q    Type
REMARK                         _______ _______ _______ _____ _____    ______ ____
ROOT
ATOM      1  C   UNL     1      -1.402  -0.611  -0.009  0.00  0.00    +0.050 C 
ATOM      2  C   UNL     1      -1.325  -2.147   0.113  0.00  0.00    +0.086 C 
ATOM      3  C   UNL     1      -2.460  -2.677  -0.803  0.00  0.00    +0.077 C 
ATOM      4  C   UNL     1      -3.127  -1.411  -1.380  0.00  0.00    -0.027 C 
ATOM      5  N   UNL     1      -2.061  -0.369  -1.318  0.00  0.00    +0.396 N 
ATOM      6  C   UNL     1      -1.714  -3.406  -1.898  0.00  0.00    +0.224 C 
ATOM      7  O   UNL     1      -2.228  -3.978  -2.835  0.00  0.00    -0.275 OA
ATOM      8  N   UNL     1      -0.398  -3.322  -1.670  0.00  0.00    -0.245 N 
ATOM      9  C   UNL     1      -0.059  -2.636  -0.554  0.00  0.00    +0.225 C 
ATOM     10  O   UNL     1       1.067  -2.439  -0.150  0.00  0.00    -0.275 OA
ATOM     11  C   UNL     1       0.599  -3.930  -2.554  0.00  0.00    +0.141 C 
ATOM     12  H   UNL     1      -2.471   0.552  -1.342  0.00  0.00    -0.083 HD
ATOM     13  H   UNL     1      -1.399  -0.482  -2.072  0.00  0.00    -0.083 HD
ENDROOT
BRANCH   4  14
ATOM     14  C   UNL     1      -3.537  -1.639  -2.812  0.00  0.00    -0.057 A 
ATOM     15  C   UNL     1      -2.595  -1.554  -3.821  0.00  0.00    +0.006 A 
ATOM     16  C   UNL     1      -2.966  -1.763  -5.136  0.00  0.00    +0.049 A 
ATOM     17  C   UNL     1      -4.284  -2.058  -5.446  0.00  0.00    +0.161 A 
ATOM     18  C   UNL     1      -5.232  -2.144  -4.431  0.00  0.00    +0.162 A 
ATOM     19  C   UNL     1      -4.852  -1.938  -3.114  0.00  0.00    +0.051 A 
BRANCH  18  20
ATOM     20  O   UNL     1      -6.526  -2.433  -4.729  0.00  0.00    -0.491 OA
ATOM     21  C   UNL     1      -7.444  -2.505  -3.636  0.00  0.00    +0.277 C 
ENDBRANCH  18  20
BRANCH  17  22
ATOM     22  O   UNL     1      -4.651  -2.264  -6.739  0.00  0.00    -0.491 OA
ATOM     23  C   UNL     1      -3.625  -2.159  -7.729  0.00  0.00    +0.277 C 
ENDBRANCH  17  22
ENDBRANCH   4  14
BRANCH   1  25
ATOM     24  C   UNL     1      -0.092   1.504  -0.235  0.00  0.00    +0.006 C 
ATOM     25  C   UNL     1       0.002  -0.004   0.002  0.00  0.00    -0.017 C 
ATOM     26  C   UNL     1       0.661  -0.267   1.358  0.00  0.00    +0.006 C 
ENDBRANCH   1  25
BRANCH   1  27
ATOM     27  C   UNL     1      -2.231  -0.034   1.110  0.00  0.00    +0.346 C 
ATOM     28  O   UNL     1      -3.253   0.581   0.857  0.00  0.00    -0.248 OA
ATOM     29  O   UNL     1      -1.879  -0.182   2.268  0.00  0.00    -0.248 OA
ENDBRANCH   1  27
TORSDOF 5
