REMARK  Name = ZINC49988154
REMARK  8 active torsions:
REMARK  status: ('A' for Active; 'I' for Inactive)
REMARK    1  A    between atoms: C_1  and  C_2
REMARK    2  A    between atoms: C_2  and  N_3
REMARK    3  A    between atoms: N_3  and  C_4
REMARK    4  A    between atoms: C_4  and  C_5
REMARK    5  A    between atoms: C_6  and  N_13
REMARK    6  A    between atoms: N_13  and  C_14
REMARK    7  A    between atoms: N_13  and  C_15
REMARK    8  A    between atoms: C_20  and  C_21
REMARK                            x       y       z     vdW  Elec       q    Type
REMARK                         _______ _______ _______ _____ _____    ______ ____
ROOT
ATOM      1  C   UNL     1      -2.854  -2.325   0.038  0.00  0.00    +0.049 A 
ATOM      2  C   UNL     1      -3.474  -2.873   1.104  0.00  0.00    +0.146 A 
ATOM      3  N   UNL     1      -4.601  -3.468   0.677  0.00  0.00    -0.206 NA
ATOM      4  C   UNL     1      -4.702  -3.309  -0.613  0.00  0.00    +0.179 A 
ATOM      5  N   UNL     1      -3.637  -2.591  -1.088  0.00  0.00    -0.297 N 
ATOM      6  C   UNL     1      -3.609  -2.337  -2.442  0.00  0.00    +0.100 A 
ATOM      7  C   UNL     1      -4.584  -2.775  -3.238  0.00  0.00    +0.067 A 
ATOM      8  S   UNL     1      -5.652  -3.621  -2.083  0.00  0.00    -0.058 S 
ENDROOT
BRANCH   2   9
ATOM      9  N   UNL     1      -3.020  -2.830   2.431  0.00  0.00    -0.287 N 
ATOM     10  C   UNL     1      -3.858  -3.361   3.510  0.00  0.00    +0.137 C 
BRANCH   9  11
ATOM     11  C   UNL     1      -1.770  -2.280   2.724  0.00  0.00    +0.038 A 
ATOM     12  C   UNL     1      -1.655  -0.926   3.014  0.00  0.00    +0.024 A 
ATOM     13  C   UNL     1      -0.417  -0.387   3.303  0.00  0.00    +0.002 A 
ATOM     14  C   UNL     1       0.707  -1.192   3.305  0.00  0.00    +0.000 A 
ATOM     15  C   UNL     1       0.596  -2.540   3.017  0.00  0.00    +0.005 A 
ATOM     16  C   UNL     1      -0.639  -3.088   2.732  0.00  0.00    -0.029 A 
ATOM     17  C   UNL     1      -0.760  -4.558   2.424  0.00  0.00    +0.045 C 
ENDBRANCH   9  11
ENDBRANCH   2   9
BRANCH   1  18
ATOM     18  C   UNL     1      -1.557  -1.559   0.060  0.00  0.00    -0.024 C 
BRANCH  18  19
ATOM     19  N   UNL     1      -1.839  -0.120   0.145  0.00  0.00    +0.383 N 
ATOM     20  H   UNL     1      -2.357   0.072   0.990  0.00  0.00    -0.085 HD
ATOM     21  H   UNL     1      -2.384   0.164  -0.655  0.00  0.00    -0.085 HD
BRANCH  19  23
ATOM     22  C   UNL     1      -0.868   2.125   0.255  0.00  0.00    -0.017 C 
ATOM     23  C   UNL     1      -0.574   0.626   0.166  0.00  0.00    -0.086 C 
ENDBRANCH  19  23
ENDBRANCH  18  19
ENDBRANCH   1  18
TORSDOF 5
