REMARK  Name = ZINC67010329
REMARK  10 active torsions:
REMARK  status: ('A' for Active; 'I' for Inactive)
REMARK    1  A    between atoms: C_1  and  C_2
REMARK    2  A    between atoms: C_2  and  C_4
REMARK    3  A    between atoms: C_2  and  N_15
REMARK    4  A    between atoms: C_8  and  S_10
REMARK    5  A    between atoms: S_10  and  N_13
REMARK    6  A    between atoms: N_13  and  C_14
REMARK    7  A    between atoms: N_15  and  C_16
REMARK    8  A    between atoms: C_16  and  C_17
REMARK    9  A    between atoms: C_20  and  N_24
REMARK   10  A    between atoms: C_21  and  O_23
REMARK                            x       y       z     vdW  Elec       q    Type
REMARK                         _______ _______ _______ _____ _____    ______ ____
ROOT
ATOM      1  N   UNL     1       0.713  -0.491   1.192  0.00  0.00    +0.386 N 
ATOM      2  H   UNL     1       0.798  -1.495   1.145  0.00  0.00    -0.085 HD
ATOM      3  H   UNL     1       1.632  -0.076   1.228  0.00  0.00    -0.085 HD
ENDROOT
BRANCH   1   5
ATOM      4  C   UNL     1      -0.019   1.526   0.010  0.00  0.00    -0.009 C 
ATOM      5  C   UNL     1       0.002  -0.004   0.002  0.00  0.00    -0.044 C 
BRANCH   5   6
ATOM      6  C   UNL     1       0.707  -0.490  -1.238  0.00  0.00    -0.060 A 
ATOM      7  C   UNL     1       2.089  -0.511  -1.284  0.00  0.00    +0.002 A 
ATOM      8  C   UNL     1       2.736  -0.957  -2.421  0.00  0.00    +0.002 A 
ATOM      9  C   UNL     1       2.002  -1.382  -3.512  0.00  0.00    +0.028 A 
ATOM     10  C   UNL     1       0.620  -1.362  -3.466  0.00  0.00    +0.105 A 
ATOM     11  C   UNL     1      -0.027  -0.920  -2.327  0.00  0.00    +0.030 A 
BRANCH  10  12
ATOM     12  S   UNL     1      -0.316  -1.904  -4.857  0.00  0.00    +0.058 S 
ATOM     13  O   UNL     1      -1.586  -1.274  -4.762  0.00  0.00    -0.153 OA
ATOM     14  O   UNL     1       0.524  -1.758  -5.994  0.00  0.00    -0.153 OA
BRANCH  12  15
ATOM     15  N   UNL     1      -0.578  -3.528  -4.668  0.00  0.00    -0.193 NA
ATOM     16  C   UNL     1      -1.396  -4.014  -3.554  0.00  0.00    +0.127 C 
ATOM     17  H   UNL     1      -0.190  -4.158  -5.295  0.00  0.00    +0.148 HD
ENDBRANCH  12  15
ENDBRANCH  10  12
ENDBRANCH   5   6
ENDBRANCH   1   5
BRANCH   1  18
ATOM     18  C   UNL     1      -0.040  -0.119   2.398  0.00  0.00    -0.046 C 
BRANCH  18  19
ATOM     19  C   UNL     1       0.689  -0.618   3.619  0.00  0.00    -0.061 A 
ATOM     20  C   UNL     1       0.421  -1.881   4.115  0.00  0.00    +0.004 A 
ATOM     21  C   UNL     1       1.089  -2.342   5.234  0.00  0.00    +0.036 A 
ATOM     22  C   UNL     1       2.025  -1.541   5.861  0.00  0.00    +0.167 A 
ATOM     23  C   UNL     1       2.295  -0.275   5.365  0.00  0.00    +0.147 A 
ATOM     24  C   UNL     1       1.628   0.184   4.238  0.00  0.00    +0.049 A 
BRANCH  22  25
ATOM     25  N   UNL     1       2.738  -2.035   7.060  0.00  0.00    +0.060 N 
ATOM     26  O   UNL     1       2.502  -3.139   7.492  0.00  0.00    -0.126 OA
ATOM     27  O   UNL     1       3.557  -1.335   7.607  0.00  0.00    -0.126 OA
ENDBRANCH  22  25
BRANCH  23  28
ATOM     28  O   UNL     1       3.215   0.515   5.979  0.00  0.00    -0.504 OA
ATOM     29  H   UNL     1       4.114   0.406   5.641  0.00  0.00    +0.292 HD
ENDBRANCH  23  28
ENDBRANCH  18  19
ENDBRANCH   1  18
TORSDOF 8
