REMARK  Name = ZINC62805595
REMARK  4 active torsions:
REMARK  status: ('A' for Active; 'I' for Inactive)
REMARK    1  A    between atoms: C_6  and  O_7
REMARK    2  A    between atoms: O_7  and  C_8
REMARK    3  A    between atoms: C_14  and  O_16
REMARK    4  A    between atoms: N_20  and  O_21
REMARK                            x       y       z     vdW  Elec       q    Type
REMARK                         _______ _______ _______ _____ _____    ______ ____
ROOT
ATOM      1  C   UNL     1      -0.071   1.370  -0.422  0.00  0.00    +0.046 A 
ATOM      2  C   UNL     1       1.091   2.075  -0.649  0.00  0.00    +0.017 A 
ATOM      3  C   UNL     1       2.317   1.408  -0.672  0.00  0.00    +0.045 A 
ATOM      4  C   UNL     1       2.374   0.024  -0.464  0.00  0.00    +0.134 A 
ATOM      5  C   UNL     1       1.193  -0.672  -0.236  0.00  0.00    +0.092 A 
ATOM      6  C   UNL     1      -0.020  -0.003  -0.215  0.00  0.00    +0.125 A 
ATOM      7  O   UNL     1       3.651  -0.426  -0.525  0.00  0.00    -0.485 OA
ATOM      8  C   UNL     1       4.554   0.649  -0.783  0.00  0.00    +0.288 C 
ATOM      9  C   UNL     1       3.696   1.893  -0.887  0.00  0.00    +0.128 C 
ATOM     10  N   UNL     1       4.084   3.107  -1.114  0.00  0.00    -0.088 NA
ENDROOT
BRANCH  10  11
ATOM     11  O   UNL     1       5.459   3.388  -1.298  0.00  0.00    -0.409 OA
ATOM     12  H   UNL     1       5.651   4.322  -1.462  0.00  0.00    +0.328 HD
ENDBRANCH  10  11
BRANCH   6  13
ATOM     13  O   UNL     1      -1.167  -0.694   0.009  0.00  0.00    -0.486 OA
BRANCH  13  14
ATOM     14  C   UNL     1      -2.370   0.068   0.136  0.00  0.00    +0.202 C 
ATOM     15  C   UNL     1      -2.944   0.349  -1.254  0.00  0.00    +0.047 C 
ATOM     16  C   UNL     1      -4.231   1.165  -1.119  0.00  0.00    +0.004 C 
ATOM     17  C   UNL     1      -5.251   0.376  -0.296  0.00  0.00    +0.003 C 
ATOM     18  C   UNL     1      -4.677   0.094   1.094  0.00  0.00    +0.035 C 
ATOM     19  C   UNL     1      -3.390  -0.722   0.959  0.00  0.00    +0.155 C 
BRANCH  19  20
ATOM     20  O   UNL     1      -2.854  -0.985   2.257  0.00  0.00    -0.388 OA
ATOM     21  H   UNL     1      -3.448  -1.483   2.834  0.00  0.00    +0.210 HD
ENDBRANCH  19  20
ENDBRANCH  13  14
ENDBRANCH   6  13
TORSDOF 4
