REMARK  Name = ZINC08768297
REMARK  4 active torsions:
REMARK  status: ('A' for Active; 'I' for Inactive)
REMARK    1  A    between atoms: C_1  and  C_2
REMARK    2  A    between atoms: C_9  and  C_14
REMARK    3  A    between atoms: C_14  and  S_15
REMARK    4  A    between atoms: S_15  and  C_16
REMARK                            x       y       z     vdW  Elec       q    Type
REMARK                         _______ _______ _______ _____ _____    ______ ____
ROOT
ATOM      1  C   UNL     1      -0.018   1.503   0.010  0.00  0.00    +0.046 C 
ATOM      2  C   UNL     1       0.002  -0.004   0.002  0.00  0.00    -0.024 A 
ATOM      3  C   UNL     1       0.006  -0.689  -1.192  0.00  0.00    +0.005 A 
ATOM      4  C   UNL     1       0.025  -2.078  -1.216  0.00  0.00    +0.001 A 
ATOM      5  C   UNL     1       0.040  -2.798  -0.042  0.00  0.00    +0.015 A 
ATOM      6  C   UNL     1       0.037  -2.124   1.177  0.00  0.00    +0.065 A 
ATOM      7  C   UNL     1       0.023  -0.712   1.205  0.00  0.00    +0.081 A 
ATOM      8  N   UNL     1       0.025  -0.077   2.404  0.00  0.00    -0.233 NA
ATOM      9  C   UNL     1       0.045  -0.736   3.523  0.00  0.00    +0.121 A 
ATOM     10  N   UNL     1       0.065  -2.093   3.591  0.00  0.00    -0.310 N 
ATOM     11  H   UNL     1       0.080  -2.530   4.456  0.00  0.00    +0.170 HD
ATOM     12  C   UNL     1       0.053  -2.840   2.462  0.00  0.00    +0.259 A 
ATOM     13  O   UNL     1       0.069  -4.056   2.508  0.00  0.00    -0.267 OA
ENDROOT
BRANCH   9  14
ATOM     14  C   UNL     1       0.046   0.044   4.812  0.00  0.00    +0.151 C 
BRANCH  14  15
ATOM     15  S   UNL     1       0.018   1.821   4.444  0.00  0.00    -0.085 S 
BRANCH  15  16
ATOM     16  C   UNL     1       0.022   2.585   6.031  0.00  0.00    +0.129 C 
ATOM     17  N   UNL     1       0.048   1.887   7.178  0.00  0.00    -0.363 N 
ATOM     18  C   UNL     1      -0.234   2.835   8.236  0.00  0.00    +0.101 C 
ATOM     19  C   UNL     1       0.438   2.710   9.584  0.00  0.00    +0.026 C 
ATOM     20  C   UNL     1      -0.100   3.873  10.443  0.00  0.00    +0.002 C 
ATOM     21  C   UNL     1       0.166   5.228   9.794  0.00  0.00    +0.002 C 
ATOM     22  C   UNL     1      -0.360   5.290   8.348  0.00  0.00    +0.024 C 
ATOM     23  C   UNL     1       0.288   4.152   7.600  0.00  0.00    +0.094 C 
ATOM     24  N   UNL     1       0.005   3.917   6.200  0.00  0.00    -0.321 N 
ATOM     25  H   UNL     1      -0.165   4.588   5.520  0.00  0.00    +0.148 HD
ATOM     26  H   UNL     1       0.220   0.938   7.277  0.00  0.00    +0.162 HD
ENDBRANCH  15  16
ENDBRANCH  14  15
ENDBRANCH   9  14
TORSDOF 3
