REMARK  Name = ZINC02193855
REMARK  8 active torsions:
REMARK  status: ('A' for Active; 'I' for Inactive)
REMARK    1  A    between atoms: C_1  and  C_2
REMARK    2  A    between atoms: C_2  and  N_3
REMARK    3  A    between atoms: N_3  and  C_4
REMARK    4  A    between atoms: C_4  and  N_6
REMARK    5  A    between atoms: N_6  and  C_7
REMARK    6  A    between atoms: C_16  and  C_17
REMARK    7  A    between atoms: C_17  and  O_19
REMARK    8  A    between atoms: O_19  and  C_20
REMARK                            x       y       z     vdW  Elec       q    Type
REMARK                         _______ _______ _______ _____ _____    ______ ____
ROOT
ATOM      1  C   UNL     1       2.601   1.400  -0.016  0.00  0.00    +0.073 A 
ATOM      2  C   UNL     1       1.304   1.837   0.505  0.00  0.00    +0.023 A 
ATOM      3  C   UNL     1       0.238   1.169   1.116  0.00  0.00    +0.027 A 
ATOM      4  C   UNL     1      -0.872   1.868   1.498  0.00  0.00    +0.019 A 
ATOM      5  C   UNL     1      -0.946   3.241   1.293  0.00  0.00    +0.017 A 
ATOM      6  C   UNL     1       0.091   3.919   0.694  0.00  0.00    +0.027 A 
ATOM      7  C   UNL     1       1.232   3.226   0.291  0.00  0.00    +0.049 A 
ATOM      8  N   UNL     1       2.399   3.623  -0.318  0.00  0.00    -0.348 N 
ATOM      9  H   UNL     1       2.611   4.533  -0.578  0.00  0.00    +0.166 HD
ATOM     10  C   UNL     1       3.229   2.527  -0.506  0.00  0.00    +0.147 A 
ATOM     11 BR   UNL     1      -2.316   0.962   2.317  0.00  0.00    -0.050 Br
ENDROOT
BRANCH   1  12
ATOM     12  N   UNL     1       3.101   0.103  -0.018  0.00  0.00    -0.295 N 
ATOM     13  H   UNL     1       4.048  -0.051   0.123  0.00  0.00    +0.154 HD
BRANCH  12  14
ATOM     14  C   UNL     1       2.270  -0.940  -0.214  0.00  0.00    +0.135 C 
ATOM     15  S   UNL     1       0.622  -0.662  -0.583  0.00  0.00    -0.019 S 
BRANCH  14  16
ATOM     16  N   UNL     1       2.737  -2.200  -0.121  0.00  0.00    -0.327 N 
ATOM     17  H   UNL     1       3.671  -2.357   0.087  0.00  0.00    +0.148 HD
BRANCH  16  19
ATOM     18  C   UNL     1       2.610  -4.642  -0.173  0.00  0.00    +0.024 C 
ATOM     19  C   UNL     1       1.834  -3.334  -0.335  0.00  0.00    +0.100 C 
ENDBRANCH  16  19
ENDBRANCH  14  16
ENDBRANCH  12  14
ENDBRANCH   1  12
BRANCH  10  20
ATOM     20  C   UNL     1       4.514   2.559  -1.105  0.00  0.00    +0.357 C 
ATOM     21  O   UNL     1       5.118   1.522  -1.306  0.00  0.00    -0.243 OA
BRANCH  20  22
ATOM     22  O   UNL     1       5.067   3.740  -1.451  0.00  0.00    -0.463 OA
ATOM     23  C   UNL     1       6.364   3.699  -2.050  0.00  0.00    +0.280 C 
ENDBRANCH  20  22
ENDBRANCH  10  20
TORSDOF 6
