REMARK  Name = ZINC39665056
REMARK  9 active torsions:
REMARK  status: ('A' for Active; 'I' for Inactive)
REMARK    1  A    between atoms: C_1  and  C_2
REMARK    2  A    between atoms: C_2  and  C_4
REMARK    3  A    between atoms: C_2  and  O_29
REMARK    4  A    between atoms: C_4  and  N_5
REMARK    5  A    between atoms: C_6  and  C_8
REMARK    6  A    between atoms: C_19  and  C_21
REMARK    7  A    between atoms: C_26  and  O_27
REMARK    8  A    between atoms: O_27  and  C_28
REMARK    9  A    between atoms: O_29  and  C_30
REMARK                            x       y       z     vdW  Elec       q    Type
REMARK                         _______ _______ _______ _____ _____    ______ ____
ROOT
ATOM      1  C   UNL     1      -2.277  -4.635  -0.359  0.00  0.00    +0.100 C 
ATOM      2  C   UNL     1      -1.683  -4.910  -1.758  0.00  0.00    +0.121 C 
ATOM      3  N   UNL     1      -2.462  -6.059  -2.277  0.00  0.00    -0.296 N 
ATOM      4  C   UNL     1      -3.851  -5.792  -1.835  0.00  0.00    +0.115 C 
ATOM      5  C   UNL     1      -3.700  -5.215  -0.413  0.00  0.00    -0.004 C 
ATOM      6  C   UNL     1      -4.729  -4.113  -0.180  0.00  0.00    -0.010 C 
ATOM      7  C   UNL     1      -6.134  -4.723  -0.180  0.00  0.00    -0.082 C 
ATOM      8  N   UNL     1      -6.228  -5.740   0.874  0.00  0.00    +0.379 N 
ATOM      9  C   UNL     1      -5.301  -6.842   0.592  0.00  0.00    -0.082 C 
ATOM     10  C   UNL     1      -3.861  -6.321   0.625  0.00  0.00    -0.010 C 
ATOM     11  C   UNL     1      -2.009  -7.109  -2.990  0.00  0.00    +0.250 C 
ATOM     12  O   UNL     1      -0.818  -7.232  -3.201  0.00  0.00    -0.270 OA
ATOM     13  H   UNL     1      -5.993  -5.324   1.763  0.00  0.00    -0.086 HD
ATOM     14  H   UNL     1      -7.171  -6.097   0.912  0.00  0.00    -0.086 HD
ENDROOT
BRANCH  11  15
ATOM     15  C   UNL     1      -2.958  -8.110  -3.513  0.00  0.00    +0.078 A 
ATOM     16  C   UNL     1      -4.229  -7.717  -3.940  0.00  0.00    +0.017 A 
ATOM     17  C   UNL     1      -5.111  -8.656  -4.428  0.00  0.00    +0.001 A 
ATOM     18  C   UNL     1      -4.744  -9.990  -4.498  0.00  0.00    +0.004 A 
ATOM     19  C   UNL     1      -3.491 -10.392  -4.079  0.00  0.00    +0.046 A 
ATOM     20  C   UNL     1      -2.589  -9.459  -3.590  0.00  0.00    +0.132 A 
BRANCH  20  21
ATOM     21  O   UNL     1      -1.356  -9.852  -3.183  0.00  0.00    -0.494 OA
ATOM     22  C   UNL     1      -1.050 -11.244  -3.292  0.00  0.00    +0.277 C 
ENDBRANCH  20  21
ENDBRANCH  11  15
BRANCH   1  24
ATOM     23  N   UNL     1      -2.234  -2.695   1.175  0.00  0.00    -0.312 N 
ATOM     24  C   UNL     1      -2.324  -3.153  -0.089  0.00  0.00    +0.218 C 
ATOM     25  O   UNL     1      -2.442  -2.373  -1.010  0.00  0.00    -0.275 OA
ATOM     26  H   UNL     1      -2.139  -3.319   1.911  0.00  0.00    +0.149 HD
BRANCH  23  27
ATOM     27  C   UNL     1      -2.280  -1.254   1.436  0.00  0.00    +0.148 C 
BRANCH  27  29
ATOM     28  C   UNL     1      -2.206   0.500   3.214  0.00  0.00    +0.053 C 
ATOM     29  C   UNL     1      -2.159  -1.005   2.941  0.00  0.00    +0.187 C 
BRANCH  29  30
ATOM     30  O   UNL     1      -3.241  -1.647   3.619  0.00  0.00    -0.488 OA
BRANCH  30  31
ATOM     31  C   UNL     1      -3.042  -1.982   4.920  0.00  0.00    +0.121 A 
ATOM     32  C   UNL     1      -4.002  -2.714   5.604  0.00  0.00    +0.045 A 
ATOM     33  C   UNL     1      -3.797  -3.054   6.927  0.00  0.00    +0.004 A 
ATOM     34  C   UNL     1      -2.637  -2.665   7.571  0.00  0.00    +0.000 A 
ATOM     35  C   UNL     1      -1.679  -1.934   6.892  0.00  0.00    +0.004 A 
ATOM     36  C   UNL     1      -1.876  -1.597   5.567  0.00  0.00    +0.045 A 
ENDBRANCH  30  31
ENDBRANCH  29  30
ENDBRANCH  27  29
ENDBRANCH  23  27
ENDBRANCH   1  24
TORSDOF 7
