REMARK  Name = ZINC20520460
REMARK  10 active torsions:
REMARK  status: ('A' for Active; 'I' for Inactive)
REMARK    1  A    between atoms: C_1  and  C_2
REMARK    2  A    between atoms: C_2  and  C_3
REMARK    3  A    between atoms: C_3  and  C_4
REMARK    4  A    between atoms: C_4  and  C_5
REMARK    5  A    between atoms: C_5  and  C_6
REMARK    6  A    between atoms: C_6  and  C_7
REMARK    7  A    between atoms: C_7  and  C_8
REMARK    8  A    between atoms: C_7  and  C_9
REMARK    9  A    between atoms: C_7  and  N_11
REMARK   10  A    between atoms: C_9  and  N_10
REMARK                            x       y       z     vdW  Elec       q    Type
REMARK                         _______ _______ _______ _____ _____    ______ ____
ROOT
ATOM      1  C   UNL     1      -0.686   3.049  -1.012  0.00  0.00    -0.085 C 
ATOM      2  C   UNL     1      -1.522   3.662  -2.138  0.00  0.00    -0.012 C 
ENDROOT
BRANCH   1   3
ATOM      3  N   UNL     1       0.718   3.451  -1.171  0.00  0.00    +0.382 N 
ATOM      4  C   UNL     1       1.563   2.829  -0.145  0.00  0.00    -0.078 C 
ATOM      5  C   UNL     1       3.039   3.024  -0.491  0.00  0.00    -0.019 C 
ATOM      6  C   UNL     1       3.456   4.459  -0.152  0.00  0.00    -0.002 C 
ATOM      7  C   UNL     1       2.877   5.404  -1.207  0.00  0.00    -0.000 C 
ATOM      8  C   UNL     1       3.073   4.795  -2.595  0.00  0.00    -0.002 C 
ATOM      9  C   UNL     1       1.715   4.421  -3.188  0.00  0.00    -0.019 C 
ATOM     10  C   UNL     1       1.206   3.138  -2.522  0.00  0.00    -0.078 C 
ATOM     11  H   UNL     1       0.776   4.542  -1.037  0.00  0.00    -0.081 HD
ENDBRANCH   1   3
BRANCH   1  12
ATOM     12  C   UNL     1      -1.208   3.543   0.338  0.00  0.00    -0.014 C 
BRANCH  12  13
ATOM     13  C   UNL     1      -2.670   3.124   0.504  0.00  0.00    -0.001 C 
BRANCH  13  14
ATOM     14  C   UNL     1      -3.192   3.619   1.854  0.00  0.00    -0.000 C 
BRANCH  14  15
ATOM     15  C   UNL     1      -4.655   3.200   2.020  0.00  0.00    -0.000 C 
BRANCH  15  17
ATOM     16  C   UNL     1      -6.639   3.275   3.536  0.00  0.00    +0.004 C 
ATOM     17  C   UNL     1      -5.177   3.694   3.370  0.00  0.00    -0.003 C 
ENDBRANCH  15  17
ENDBRANCH  14  15
ENDBRANCH  13  14
ENDBRANCH  12  13
ENDBRANCH   1  12
BRANCH   1  18
ATOM     18  C   UNL     1      -0.789   1.524  -1.072  0.00  0.00    -0.099 C 
BRANCH  18  19
ATOM     19  N   UNL     1      -0.223   1.044  -2.340  0.00  0.00    +0.377 N 
ATOM     20  H   UNL     1      -0.297  -0.053  -2.383  0.00  0.00    -0.090 HD
ATOM     21  H   UNL     1       0.834   1.343  -2.406  0.00  0.00    -0.090 HD
ATOM     22  H   UNL     1      -0.781   1.482  -3.180  0.00  0.00    -0.090 HD
ENDBRANCH  18  19
ENDBRANCH   1  18
TORSDOF 8
