REMARK  Name = ZINC16695935
REMARK  4 active torsions:
REMARK  status: ('A' for Active; 'I' for Inactive)
REMARK    1  A    between atoms: C_1  and  O_2
REMARK    2  A    between atoms: O_2  and  C_3
REMARK    3  A    between atoms: N_11  and  C_12
REMARK    4  A    between atoms: C_18  and  C_20
REMARK                            x       y       z     vdW  Elec       q    Type
REMARK                         _______ _______ _______ _____ _____    ______ ____
ROOT
ATOM      1  C   UNL     1      -1.199  -0.669   0.107  0.00  0.00    +0.163 A 
ATOM      2  C   UNL     1      -2.366   0.076   0.129  0.00  0.00    +0.049 A 
ATOM      3  C   UNL     1      -3.604  -0.550   0.109  0.00  0.00    +0.004 A 
ATOM      4  C   UNL     1      -3.691  -1.923   0.068  0.00  0.00    +0.012 A 
ATOM      5  C   UNL     1      -2.520  -2.693   0.048  0.00  0.00    +0.022 A 
ATOM      6  C   UNL     1      -1.265  -2.058   0.059  0.00  0.00    +0.179 A 
ATOM      7  O   UNL     1      -0.132  -2.802   0.025  0.00  0.00    -0.435 OA
ATOM      8  C   UNL     1      -0.203  -4.057   0.538  0.00  0.00    +0.212 A 
ATOM      9  N   UNL     1       0.775  -4.548   1.268  0.00  0.00    -0.325 N 
ATOM     10  C   UNL     1      -1.413  -4.854   0.252  0.00  0.00    +0.097 A 
ATOM     11  C   UNL     1      -2.586  -4.156   0.013  0.00  0.00    +0.030 A 
ATOM     12  H   UNL     1       0.673  -5.410   1.700  0.00  0.00    +0.169 HD
ENDROOT
BRANCH   9  13
ATOM     13  C   UNL     1       1.937  -3.842   1.417  0.00  0.00    +0.042 A 
ATOM     14  C   UNL     1       2.538  -3.237   0.310  0.00  0.00    +0.026 A 
ATOM     15  C   UNL     1       3.710  -2.527   0.468  0.00  0.00    +0.002 A 
ATOM     16  C   UNL     1       4.290  -2.413   1.719  0.00  0.00    +0.000 A 
ATOM     17  C   UNL     1       3.701  -3.009   2.819  0.00  0.00    +0.002 A 
ATOM     18  C   UNL     1       2.526  -3.717   2.678  0.00  0.00    +0.026 A 
ENDBRANCH   9  13
BRANCH  10  19
ATOM     19  C   UNL     1      -1.376  -6.327   0.234  0.00  0.00    +0.247 C 
ATOM     20  O   UNL     1      -0.353  -6.913   0.534  0.00  0.00    -0.270 OA
ATOM     21  N   UNL     1      -2.476  -7.024  -0.114  0.00  0.00    -0.325 N 
ATOM     22  H   UNL     1      -3.268  -6.557  -0.423  0.00  0.00    +0.145 HD
ATOM     23  H   UNL     1      -2.475  -7.992  -0.055  0.00  0.00    +0.145 HD
ENDBRANCH  10  19
BRANCH   1  25
ATOM     24  C   UNL     1      -0.001   1.384   0.176  0.00  0.00    +0.277 C 
ATOM     25  O   UNL     1       0.008  -0.045   0.127  0.00  0.00    -0.491 OA
ENDBRANCH   1  25
TORSDOF 3
