REMARK  Name = ZINC50927954
REMARK  4 active torsions:
REMARK  status: ('A' for Active; 'I' for Inactive)
REMARK    1  A    between atoms: C_6  and  C_7
REMARK    2  A    between atoms: C_9  and  C_12
REMARK    3  A    between atoms: C_12  and  C_13
REMARK    4  A    between atoms: C_13  and  C_14
REMARK                            x       y       z     vdW  Elec       q    Type
REMARK                         _______ _______ _______ _____ _____    ______ ____
ROOT
ATOM      1  C   UNL     1      -1.272  -0.766   0.011  0.00  0.00    +0.202 A 
ATOM      2  N   UNL     1      -1.384  -2.106   0.010  0.00  0.00    -0.191 NA
ATOM      3  C   UNL     1      -2.641  -2.448   0.019  0.00  0.00    +0.228 A 
ATOM      4  O   UNL     1      -3.384  -1.334   0.026  0.00  0.00    -0.338 OA
ATOM      5  N   UNL     1      -2.474  -0.245   0.026  0.00  0.00    -0.056 NA
ENDROOT
BRANCH   1  11
ATOM      6  C   UNL     1      -0.017   1.389   0.010  0.00  0.00    +0.013 A 
ATOM      7  C   UNL     1       1.170   2.093   0.002  0.00  0.00    +0.021 A 
ATOM      8  C   UNL     1       2.378   1.417  -0.013  0.00  0.00    +0.041 A 
ATOM      9  C   UNL     1       2.402   0.033  -0.022  0.00  0.00    +0.021 A 
ATOM     10  C   UNL     1       1.221  -0.680  -0.014  0.00  0.00    +0.013 A 
ATOM     11  C   UNL     1       0.002  -0.004   0.002  0.00  0.00    +0.023 A 
ATOM     12 CL   UNL     1       3.868   2.308  -0.024  0.00  0.00    -0.084 Cl
ENDBRANCH   1  11
BRANCH   3  13
ATOM     13  C   UNL     1      -3.169  -3.860   0.021  0.00  0.00    +0.097 C 
BRANCH  13  14
ATOM     14  C   UNL     1      -3.337  -4.339   1.464  0.00  0.00    -0.006 C 
BRANCH  14  15
ATOM     15  C   UNL     1      -3.874  -5.772   1.466  0.00  0.00    -0.071 C 
ATOM     16  C   UNL     1      -4.161  -6.207   2.904  0.00  0.00    -0.016 C 
ATOM     17  C   UNL     1      -4.698  -7.641   2.901  0.00  0.00    -0.003 C 
ATOM     18  C   UNL     1      -3.681  -8.555   2.211  0.00  0.00    -0.019 C 
ATOM     19  C   UNL     1      -3.412  -8.033   0.798  0.00  0.00    -0.082 C 
ATOM     20  N   UNL     1      -2.876  -6.669   0.871  0.00  0.00    +0.381 N 
ATOM     21  H   UNL     1      -2.649  -6.348  -0.059  0.00  0.00    -0.086 HD
ATOM     22  H   UNL     1      -2.041  -6.666   1.438  0.00  0.00    -0.086 HD
ENDBRANCH  14  15
ENDBRANCH  13  14
ENDBRANCH   3  13
TORSDOF 4
