REMARK  Name = ZINC67025092
REMARK  9 active torsions:
REMARK  status: ('A' for Active; 'I' for Inactive)
REMARK    1  A    between atoms: C_1  and  C_2
REMARK    2  A    between atoms: C_2  and  C_3
REMARK    3  A    between atoms: C_3  and  C_5
REMARK    4  A    between atoms: C_3  and  C_6
REMARK    5  A    between atoms: C_6  and  C_8
REMARK    6  A    between atoms: C_6  and  N_11
REMARK    7  A    between atoms: C_12  and  C_14
REMARK    8  A    between atoms: N_17  and  C_19
REMARK    9  A    between atoms: C_22  and  N_25
REMARK                            x       y       z     vdW  Elec       q    Type
REMARK                         _______ _______ _______ _____ _____    ______ ____
ROOT
ATOM      1  N   UNL     1      -2.624  -2.958  -0.139  0.00  0.00    -0.298 N 
ATOM      2  C   UNL     1      -2.370  -4.141  -0.732  0.00  0.00    +0.265 C 
ATOM      3  O   UNL     1      -1.225  -4.456  -0.994  0.00  0.00    -0.268 OA
ATOM      4  H   UNL     1      -3.538  -2.708   0.070  0.00  0.00    +0.150 HD
ENDROOT
BRANCH   2   5
ATOM      5  C   UNL     1      -3.481  -5.055  -1.065  0.00  0.00    +0.147 A 
ATOM      6  C   UNL     1      -3.370  -6.325  -1.680  0.00  0.00    +0.054 A 
ATOM      7  C   UNL     1      -4.637  -6.790  -1.783  0.00  0.00    +0.115 A 
ATOM      8  N   UNL     1      -5.455  -5.843  -1.256  0.00  0.00    -0.239 N 
ATOM      9  N   UNL     1      -4.763  -4.844  -0.839  0.00  0.00    -0.162 NA
BRANCH   8  10
ATOM     10  C   UNL     1      -6.851  -5.942  -1.174  0.00  0.00    +0.065 A 
ATOM     11  C   UNL     1      -7.496  -7.076  -1.648  0.00  0.00    +0.030 A 
ATOM     12  C   UNL     1      -8.872  -7.171  -1.566  0.00  0.00    +0.035 A 
ATOM     13  C   UNL     1      -9.606  -6.139  -1.012  0.00  0.00    +0.126 A 
ATOM     14  C   UNL     1      -8.966  -5.008  -0.539  0.00  0.00    +0.035 A 
ATOM     15  C   UNL     1      -7.590  -4.909  -0.613  0.00  0.00    +0.030 A 
BRANCH  13  16
ATOM     16  N   UNL     1     -11.080  -6.244  -0.925  0.00  0.00    +0.056 N 
ATOM     17  O   UNL     1     -11.641  -7.232  -1.339  0.00  0.00    -0.126 OA
ATOM     18  O   UNL     1     -11.723  -5.342  -0.441  0.00  0.00    -0.126 OA
ENDBRANCH  13  16
ENDBRANCH   8  10
ENDBRANCH   2   5
BRANCH   1  19
ATOM     19  C   UNL     1      -1.522  -2.052   0.191  0.00  0.00    +0.162 C 
BRANCH  19  20
ATOM     20  C   UNL     1      -0.940  -2.434   1.528  0.00  0.00    +0.231 C 
ATOM     21  O   UNL     1      -1.601  -3.078   2.315  0.00  0.00    -0.274 OA
ATOM     22  N   UNL     1       0.314  -2.060   1.849  0.00  0.00    -0.328 N 
ATOM     23  H   UNL     1       0.868  -1.607   1.194  0.00  0.00    +0.145 HD
ATOM     24  H   UNL     1       0.663  -2.243   2.735  0.00  0.00    +0.145 HD
ENDBRANCH  19  20
BRANCH  19  25
ATOM     25  C   UNL     1      -2.044  -0.615   0.254  0.00  0.00    +0.015 C 
ATOM     26  C   UNL     1      -3.182  -0.530   1.273  0.00  0.00    +0.010 C 
BRANCH  25  28
ATOM     27  C   UNL     1      -2.958   1.277  -1.098  0.00  0.00    +0.004 C 
ATOM     28  C   UNL     1      -2.562  -0.201  -1.125  0.00  0.00    +0.002 C 
ENDBRANCH  25  28
ENDBRANCH  19  25
ENDBRANCH   1  19
TORSDOF 7
