REMARK  Name = ZINC39684604
REMARK  10 active torsions:
REMARK  status: ('A' for Active; 'I' for Inactive)
REMARK    1  A    between atoms: C_1  and  C_2
REMARK    2  A    between atoms: C_2  and  C_4
REMARK    3  A    between atoms: C_2  and  N_8
REMARK    4  A    between atoms: C_4  and  C_5
REMARK    5  A    between atoms: C_4  and  C_6
REMARK    6  A    between atoms: C_4  and  C_7
REMARK    7  A    between atoms: C_9  and  C_11
REMARK    8  A    between atoms: C_22  and  C_24
REMARK    9  A    between atoms: C_28  and  O_29
REMARK   10  A    between atoms: O_29  and  C_30
REMARK                            x       y       z     vdW  Elec       q    Type
REMARK                         _______ _______ _______ _____ _____    ______ ____
ROOT
ATOM      1  C   UNL     1       0.710  -1.072  -3.591  0.00  0.00    +0.100 C 
ATOM      2  C   UNL     1       1.731  -0.022  -4.085  0.00  0.00    +0.121 C 
ATOM      3  N   UNL     1       1.653  -0.091  -5.563  0.00  0.00    -0.296 N 
ATOM      4  C   UNL     1       0.208  -0.268  -5.848  0.00  0.00    +0.115 C 
ATOM      5  C   UNL     1      -0.287  -1.230  -4.751  0.00  0.00    -0.004 C 
ATOM      6  C   UNL     1      -1.690  -0.835  -4.298  0.00  0.00    -0.010 C 
ATOM      7  C   UNL     1      -2.674  -1.056  -5.451  0.00  0.00    -0.082 C 
ATOM      8  N   UNL     1      -2.648  -2.466  -5.856  0.00  0.00    +0.379 N 
ATOM      9  C   UNL     1      -1.320  -2.812  -6.377  0.00  0.00    -0.082 C 
ATOM     10  C   UNL     1      -0.279  -2.666  -5.264  0.00  0.00    -0.010 C 
ATOM     11  C   UNL     1       2.666  -0.012  -6.449  0.00  0.00    +0.251 C 
ATOM     12  O   UNL     1       3.816   0.033  -6.055  0.00  0.00    -0.270 OA
ATOM     13  H   UNL     1      -2.857  -3.048  -5.058  0.00  0.00    -0.086 HD
ATOM     14  H   UNL     1      -3.340  -2.622  -6.573  0.00  0.00    -0.086 HD
ENDROOT
BRANCH  11  15
ATOM     15  C   UNL     1       2.381   0.020  -7.891  0.00  0.00    +0.087 A 
ATOM     16  C   UNL     1       1.262   0.648  -8.392  0.00  0.00    +0.063 A 
ATOM     17  S   UNL     1       1.368   0.422 -10.051  0.00  0.00    -0.081 S 
ATOM     18  C   UNL     1       2.884  -0.504 -10.145  0.00  0.00    +0.120 A 
ATOM     19  C   UNL     1       3.265  -0.602  -8.851  0.00  0.00    +0.158 A 
ATOM     20 CL   UNL     1       3.683  -1.127 -11.555  0.00  0.00    -0.072 Cl
BRANCH  19  21
ATOM     21  O   UNL     1       4.404  -1.247  -8.476  0.00  0.00    -0.492 OA
ATOM     22  C   UNL     1       4.295  -2.644  -8.193  0.00  0.00    +0.277 C 
ENDBRANCH  19  21
ENDBRANCH  11  15
BRANCH   1  24
ATOM     23  N   UNL     1      -0.596  -1.452  -1.525  0.00  0.00    -0.312 N 
ATOM     24  C   UNL     1       0.004  -0.576  -2.355  0.00  0.00    +0.218 C 
ATOM     25  O   UNL     1      -0.023   0.611  -2.107  0.00  0.00    -0.275 OA
ATOM     26  H   UNL     1      -0.574  -2.401  -1.723  0.00  0.00    +0.149 HD
BRANCH  23  28
ATOM     27  C   UNL     1      -0.270  -0.812   0.813  0.00  0.00    +0.028 C 
ATOM     28  C   UNL     1      -1.282  -0.970  -0.324  0.00  0.00    +0.075 C 
BRANCH  28  29
ATOM     29  C   UNL     1      -2.358  -1.978   0.088  0.00  0.00    -0.020 C 
ATOM     30  C   UNL     1      -3.074  -1.474   1.343  0.00  0.00    +0.012 C 
ATOM     31  C   UNL     1      -3.370  -2.136  -1.049  0.00  0.00    +0.012 C 
ATOM     32  C   UNL     1      -1.704  -3.330   0.381  0.00  0.00    +0.012 C 
ENDBRANCH  28  29
ENDBRANCH  23  28
ENDBRANCH   1  24
TORSDOF 5
