REMARK  Name = ZINC67129393
REMARK  6 active torsions:
REMARK  status: ('A' for Active; 'I' for Inactive)
REMARK    1  A    between atoms: C_1  and  C_2
REMARK    2  A    between atoms: C_8  and  N_10
REMARK    3  A    between atoms: C_11  and  C_13
REMARK    4  A    between atoms: C_13  and  N_14
REMARK    5  A    between atoms: C_16  and  O_24
REMARK    6  A    between atoms: C_19  and  C_21
REMARK                            x       y       z     vdW  Elec       q    Type
REMARK                         _______ _______ _______ _____ _____    ______ ____
ROOT
ATOM      1  N   UNL     1       4.723   0.698   3.753  0.00  0.00    +0.395 N 
ATOM      2  C   UNL     1       4.905  -0.672   4.278  0.00  0.00    -0.045 C 
ATOM      3  C   UNL     1       6.156  -0.649   5.176  0.00  0.00    +0.097 C 
ATOM      4  C   UNL     1       6.682   0.802   5.099  0.00  0.00    +0.023 C 
ATOM      5  C   UNL     1       6.071   1.322   3.774  0.00  0.00    +0.022 C 
ATOM      6  H   UNL     1       4.090   1.217   4.343  0.00  0.00    -0.080 HD
ENDROOT
BRANCH   5   7
ATOM      7  C   UNL     1       5.961   2.825   3.792  0.00  0.00    +0.197 C 
ATOM      8  O   UNL     1       4.869   3.353   3.788  0.00  0.00    -0.278 OA
ATOM      9  N   UNL     1       7.075   3.582   3.812  0.00  0.00    -0.331 N 
ATOM     10  H   UNL     1       7.949   3.160   3.815  0.00  0.00    +0.145 HD
ATOM     11  H   UNL     1       7.005   4.550   3.824  0.00  0.00    +0.145 HD
ENDBRANCH   5   7
BRANCH   3  12
ATOM     12  O   UNL     1       5.807  -0.982   6.521  0.00  0.00    -0.394 OA
ATOM     13  H   UNL     1       6.556  -0.983   7.133  0.00  0.00    +0.210 HD
ENDBRANCH   3  12
BRANCH   1  14
ATOM     14  C   UNL     1       4.209   0.649   2.377  0.00  0.00    +0.020 C 
BRANCH  14  16
ATOM     15  N   UNL     1       2.116  -0.004   1.231  0.00  0.00    -0.314 N 
ATOM     16  C   UNL     1       2.795   0.128   2.388  0.00  0.00    +0.197 C 
ATOM     17  O   UNL     1       2.268  -0.174   3.438  0.00  0.00    -0.278 OA
ATOM     18  H   UNL     1       2.538   0.237   0.392  0.00  0.00    +0.149 HD
BRANCH  15  25
ATOM     19  C   UNL     1      -0.019   1.526   0.010  0.00  0.00    +0.009 C 
ATOM     20  C   UNL     1       0.002  -0.004   0.002  0.00  0.00    +0.006 C 
ATOM     21  C   UNL     1      -1.433  -0.534   0.013  0.00  0.00    +0.005 C 
ATOM     22  C   UNL     1      -1.413  -2.063   0.004  0.00  0.00    +0.000 C 
ATOM     23  C   UNL     1      -0.673  -2.570   1.244  0.00  0.00    +0.002 C 
ATOM     24  C   UNL     1       0.763  -2.041   1.233  0.00  0.00    +0.022 C 
ATOM     25  C   UNL     1       0.742  -0.511   1.242  0.00  0.00    +0.076 C 
ENDBRANCH  15  25
ENDBRANCH  14  16
ENDBRANCH   1  14
TORSDOF 5
