REMARK  Name = ZINC63189922
REMARK  4 active torsions:
REMARK  status: ('A' for Active; 'I' for Inactive)
REMARK    1  A    between atoms: C_4  and  C_7
REMARK    2  A    between atoms: C_7  and  S_8
REMARK    3  A    between atoms: S_8  and  N_11
REMARK    4  A    between atoms: C_16  and  C_18
REMARK                            x       y       z     vdW  Elec       q    Type
REMARK                         _______ _______ _______ _____ _____    ______ ____
ROOT
ATOM      1  N   UNL     1       3.676  -2.958  -3.904  0.00  0.00    -0.180 NA
ATOM      2  C   UNL     1       2.843  -3.200  -5.090  0.00  0.00    +0.109 C 
ATOM      3  C   UNL     1       3.357  -4.454  -5.806  0.00  0.00    +0.017 C 
ATOM      4  C   UNL     1       4.848  -4.290  -6.107  0.00  0.00    +0.003 C 
ATOM      5  C   UNL     1       5.621  -4.131  -4.796  0.00  0.00    +0.019 C 
ATOM      6  C   UNL     1       5.133  -2.869  -4.070  0.00  0.00    +0.065 C 
ENDROOT
BRANCH   6   7
ATOM      7  C   UNL     1       5.801  -2.774  -2.697  0.00  0.00    -0.053 C 
ATOM      8  C   UNL     1       5.453  -1.423  -2.036  0.00  0.00    -0.016 C 
ATOM      9  C   UNL     1       6.778  -1.027  -1.333  0.00  0.00    -0.021 C 
ATOM     10  C   UNL     1       7.834  -1.557  -2.333  0.00  0.00    -0.082 C 
ATOM     11  N   UNL     1       7.266  -2.826  -2.847  0.00  0.00    +0.382 N 
ATOM     12  H   UNL     1       7.635  -3.603  -2.319  0.00  0.00    -0.085 HD
ATOM     13  H   UNL     1       7.504  -2.935  -3.821  0.00  0.00    -0.085 HD
ENDBRANCH   6   7
BRANCH   1  14
ATOM     14  S   UNL     1       2.985  -2.784  -2.410  0.00  0.00    +0.032 S 
ATOM     15  O   UNL     1       3.969  -3.250  -1.498  0.00  0.00    -0.158 OA
ATOM     16  O   UNL     1       1.726  -3.436  -2.514  0.00  0.00    -0.158 OA
BRANCH  14  17
ATOM     17  C   UNL     1       2.747  -0.996  -2.212  0.00  0.00    +0.188 C 
BRANCH  17  21
ATOM     18  C   UNL     1       0.473   0.501   1.152  0.00  0.00    +0.000 C 
ATOM     19  C   UNL     1       1.842   1.125   0.871  0.00  0.00    +0.000 C 
ATOM     20  C   UNL     1       2.255   0.822  -0.570  0.00  0.00    +0.005 C 
ATOM     21  C   UNL     1       2.334  -0.693  -0.770  0.00  0.00    +0.012 C 
ATOM     22  C   UNL     1       0.965  -1.317  -0.490  0.00  0.00    +0.005 C 
ATOM     23  C   UNL     1       0.552  -1.013   0.952  0.00  0.00    +0.000 C 
ENDBRANCH  17  21
ENDBRANCH  14  17
ENDBRANCH   1  14
TORSDOF 4
