REMARK  Name = ZINC43410754
REMARK  4 active torsions:
REMARK  status: ('A' for Active; 'I' for Inactive)
REMARK    1  A    between atoms: C_1  and  C_2
REMARK    2  A    between atoms: C_7  and  C_10
REMARK    3  A    between atoms: C_12  and  C_21
REMARK    4  A    between atoms: C_21  and  N_23
REMARK                            x       y       z     vdW  Elec       q    Type
REMARK                         _______ _______ _______ _____ _____    ______ ____
ROOT
ATOM      1  C   UNL     1      -0.180  -1.681  -2.097  0.00  0.00    +0.039 C 
ATOM      2  C   UNL     1       0.630  -1.987  -0.836  0.00  0.00    +0.133 C 
ATOM      3  C   UNL     1       2.086  -1.556  -1.045  0.00  0.00    +0.137 C 
ATOM      4  N   UNL     1       2.127  -0.088  -1.135  0.00  0.00    -0.311 N 
ATOM      5  C   UNL     1       1.453   0.689  -0.082  0.00  0.00    +0.137 C 
ATOM      6  C   UNL     1       0.028   0.148   0.080  0.00  0.00    +0.133 C 
ATOM      7  O   UNL     1       0.080  -1.269   0.271  0.00  0.00    -0.371 OA
ATOM      8  C   UNL     1      -0.632   0.803   1.295  0.00  0.00    +0.039 C 
ATOM      9  C   UNL     1       2.779   0.544  -2.178  0.00  0.00    +0.109 A 
ATOM     10  C   UNL     1       4.118   0.947  -2.027  0.00  0.00    +0.041 A 
ATOM     11  C   UNL     1       4.745   1.587  -3.099  0.00  0.00    +0.019 A 
ATOM     12  C   UNL     1       4.027   1.797  -4.269  0.00  0.00    -0.027 A 
ATOM     13  C   UNL     1       2.719   1.369  -4.348  0.00  0.00    +0.021 A 
ATOM     14  N   UNL     1       2.146   0.762  -3.315  0.00  0.00    -0.346 N 
ATOM     15  C   UNL     1       1.888   1.548  -5.593  0.00  0.00    +0.053 C 
ATOM     16  C   UNL     1       2.504   2.607  -6.504  0.00  0.00    +0.006 C 
ATOM     17  C   UNL     1       3.982   2.262  -6.718  0.00  0.00    +0.005 C 
ATOM     18  C   UNL     1       4.726   2.496  -5.405  0.00  0.00    +0.037 C 
ATOM     19  H   UNL     1       1.224   0.472  -3.398  0.00  0.00    +0.167 HD
ENDROOT
BRANCH  10  20
ATOM     20  C   UNL     1       4.841   0.701  -0.768  0.00  0.00    +0.080 C 
ATOM     21  S   UNL     1       4.110  -0.224   0.473  0.00  0.00    -0.035 S 
BRANCH  20  22
ATOM     22  N   UNL     1       6.080   1.204  -0.593  0.00  0.00    -0.352 N 
ATOM     23  H   UNL     1       6.494   1.728  -1.296  0.00  0.00    +0.143 HD
ATOM     24  H   UNL     1       6.556   1.042   0.237  0.00  0.00    +0.143 HD
ENDBRANCH  20  22
ENDBRANCH  10  20
TORSDOF 2
