REMARK  Name = ZINC01707353
REMARK  3 active torsions:
REMARK  status: ('A' for Active; 'I' for Inactive)
REMARK    1  A    between atoms: C_1  and  C_2
REMARK    2  A    between atoms: C_2  and  C_3
REMARK    3  A    between atoms: C_3  and  C_4
REMARK                            x       y       z     vdW  Elec       q    Type
REMARK                         _______ _______ _______ _____ _____    ______ ____
ROOT
ATOM      1  C   UNL     1       0.715  -0.475   1.264  0.00  0.00    +0.013 C 
ATOM      2  C   UNL     1       2.156   0.039   1.268  0.00  0.00    +0.005 C 
ATOM      3  C   UNL     1       2.150   1.569   1.249  0.00  0.00    +0.000 C 
ATOM      4  C   UNL     1       1.414   2.058  -0.000  0.00  0.00    +0.001 C 
ATOM      5  C   UNL     1      -0.019   1.520   0.010  0.00  0.00    +0.026 C 
ATOM      6  C   UNL     1       0.002  -0.004   0.002  0.00  0.00    +0.126 C 
ATOM      7  C   UNL     1       0.819  -0.452  -1.190  0.00  0.00    +0.236 C 
ATOM      8  O   UNL     1       1.975  -0.113  -1.326  0.00  0.00    -0.274 OA
ATOM      9  N   UNL     1       0.207  -1.246  -2.097  0.00  0.00    -0.239 N 
ATOM     10  C   UNL     1      -1.068  -1.625  -1.955  0.00  0.00    +0.312 C 
ATOM     11  O   UNL     1      -1.540  -2.340  -2.817  0.00  0.00    -0.252 OA
ATOM     12  N   UNL     1      -1.864  -1.279  -0.937  0.00  0.00    -0.239 N 
ATOM     13  C   UNL     1      -1.430  -0.488   0.070  0.00  0.00    +0.236 C 
ATOM     14  O   UNL     1      -2.158  -0.179   0.988  0.00  0.00    -0.274 OA
ATOM     15  H   UNL     1       0.706  -1.548  -2.872  0.00  0.00    +0.159 HD
ATOM     16  H   UNL     1      -2.778  -1.605  -0.920  0.00  0.00    +0.159 HD
ENDROOT
BRANCH   1  17
ATOM     17  C   UNL     1       0.721  -2.005   1.303  0.00  0.00    +0.005 C 
BRANCH  17  19
ATOM     18  C   UNL     1       1.331  -4.008   2.667  0.00  0.00    +0.004 C 
ATOM     19  C   UNL     1       1.325  -2.478   2.627  0.00  0.00    -0.003 C 
ENDBRANCH  17  19
ENDBRANCH   1  17
TORSDOF 2
