REMARK  Name = ZINC21030674
REMARK  10 active torsions:
REMARK  status: ('A' for Active; 'I' for Inactive)
REMARK    1  A    between atoms: C_1  and  C_2
REMARK    2  A    between atoms: C_2  and  C_3
REMARK    3  A    between atoms: C_3  and  C_5
REMARK    4  A    between atoms: C_3  and  N_12
REMARK    5  A    between atoms: C_8  and  C_11
REMARK    6  A    between atoms: N_12  and  C_13
REMARK    7  A    between atoms: C_13  and  C_14
REMARK    8  A    between atoms: C_14  and  N_20
REMARK    9  A    between atoms: N_20  and  C_21
REMARK   10  A    between atoms: N_20  and  C_22
REMARK                            x       y       z     vdW  Elec       q    Type
REMARK                         _______ _______ _______ _____ _____    ______ ____
ROOT
ATOM      1  N   UNL     1      -2.870   0.907   1.923  0.00  0.00    +0.383 N 
ATOM      2  H   UNL     1      -2.412  -0.027   1.566  0.00  0.00    -0.085 HD
ATOM      3  H   UNL     1      -3.454   0.705   2.833  0.00  0.00    -0.085 HD
ENDROOT
BRANCH   1   4
ATOM      4  C   UNL     1      -1.815   1.884   2.226  0.00  0.00    -0.041 C 
BRANCH   4   5
ATOM      5  C   UNL     1      -1.391   1.737   3.664  0.00  0.00    -0.061 A 
ATOM      6  C   UNL     1      -1.274   0.479   4.225  0.00  0.00    +0.002 A 
ATOM      7  C   UNL     1      -0.880   0.343   5.543  0.00  0.00    +0.003 A 
ATOM      8  C   UNL     1      -0.614   1.466   6.304  0.00  0.00    -0.050 A 
ATOM      9  C   UNL     1      -0.736   2.725   5.745  0.00  0.00    +0.003 A 
ATOM     10  C   UNL     1      -1.125   2.860   4.425  0.00  0.00    +0.002 A 
ATOM     11  C   UNL     1      -0.191   1.319   7.742  0.00  0.00    +0.044 C 
ENDBRANCH   4   5
BRANCH   4  13
ATOM     12  C   UNL     1      -1.015   1.900  -0.141  0.00  0.00    +0.002 C 
ATOM     13  C   UNL     1      -0.613   1.637   1.312  0.00  0.00    -0.015 C 
ENDBRANCH   4  13
ENDBRANCH   1   4
BRANCH   1  14
ATOM     14  C   UNL     1      -3.776   1.415   0.884  0.00  0.00    -0.094 C 
BRANCH  14  15
ATOM     15  C   UNL     1      -4.975   0.475   0.750  0.00  0.00    -0.082 C 
ATOM     16  C   UNL     1      -5.972   1.060  -0.253  0.00  0.00    -0.014 C 
ATOM     17  C   UNL     1      -6.448   2.427   0.241  0.00  0.00    -0.001 C 
ATOM     18  C   UNL     1      -7.128   2.270   1.602  0.00  0.00    -0.000 C 
ATOM     19  C   UNL     1      -6.131   1.685   2.605  0.00  0.00    -0.001 C 
ATOM     20  C   UNL     1      -5.655   0.317   2.112  0.00  0.00    -0.014 C 
BRANCH  15  21
ATOM     21  N   UNL     1      -4.518  -0.839   0.277  0.00  0.00    +0.379 N 
ATOM     22  C   UNL     1      -3.751  -0.711  -0.970  0.00  0.00    -0.096 C 
ATOM     23  C   UNL     1      -3.732  -1.526   1.310  0.00  0.00    -0.096 C 
ATOM     24  H   UNL     1      -5.407  -1.450   0.065  0.00  0.00    -0.082 HD
ENDBRANCH  15  21
ENDBRANCH  14  15
ENDBRANCH   1  14
TORSDOF 6
