REMARK  Name = ZINC04554039
REMARK  6 active torsions:
REMARK  status: ('A' for Active; 'I' for Inactive)
REMARK    1  A    between atoms: C_1  and  C_2
REMARK    2  A    between atoms: C_2  and  C_3
REMARK    3  A    between atoms: C_2  and  N_45
REMARK    4  A    between atoms: C_11  and  O_23
REMARK    5  A    between atoms: C_13  and  C_16
REMARK    6  A    between atoms: C_17  and  C_18
REMARK                            x       y       z     vdW  Elec       q    Type
REMARK                         _______ _______ _______ _____ _____    ______ ____
ROOT
ATOM      1  C   UNL     1      -1.356  -0.550   0.132  0.00  0.00    -0.073 C 
ATOM      2  C   UNL     1      -1.367  -2.032  -0.252  0.00  0.00    +0.018 C 
ATOM      3  C   UNL     1      -0.272  -2.737   0.542  0.00  0.00    -0.027 A 
ATOM      4  C   UNL     1       0.717  -2.013   1.119  0.00  0.00    -0.021 A 
ATOM      5  S   UNL     1       1.747  -3.210   1.923  0.00  0.00    -0.080 S 
ATOM      6  C   UNL     1       0.887  -4.628   1.501  0.00  0.00    +0.080 A 
ATOM      7  C   UNL     1      -0.200  -4.171   0.742  0.00  0.00    +0.067 A 
ATOM      8  C   UNL     1      -1.151  -5.194   0.236  0.00  0.00    +0.220 C 
ATOM      9  N   UNL     1      -0.793  -6.447   0.316  0.00  0.00    -0.223 NA
ATOM     10  C   UNL     1       0.498  -6.912   0.806  0.00  0.00    +0.217 C 
ATOM     11  N   UNL     1       1.090  -5.961   1.765  0.00  0.00    -0.313 N 
ATOM     12  C   UNL     1       0.878  -0.527   1.068  0.00  0.00    -0.035 C 
ATOM     13  H   UNL     1       1.594  -6.259   2.538  0.00  0.00    +0.149 HD
ATOM     14  N   UNL     1       0.012  -0.013  -0.021  0.00  0.00    +0.384 N 
ATOM     15  H   UNL     1       0.392  -0.321  -0.924  0.00  0.00    -0.081 HD
ENDROOT
BRANCH  14  17
ATOM     16  C   UNL     1       1.417   1.994  -0.001  0.00  0.00    -0.014 C 
ATOM     17  C   UNL     1      -0.018   1.465   0.010  0.00  0.00    -0.074 C 
ATOM     18  C   UNL     1      -0.758   1.972  -1.229  0.00  0.00    -0.014 C 
ENDBRANCH  14  17
BRANCH  10  19
ATOM     19  C   UNL     1       1.436  -7.080  -0.362  0.00  0.00    +0.022 C 
ATOM     20  C   UNL     1       1.966  -8.271  -0.624  0.00  0.00    +0.045 C 
BRANCH  20  21
ATOM     21  C   UNL     1       2.881  -8.434  -1.763  0.00  0.00    +0.127 A 
ATOM     22  C   UNL     1       3.494  -9.592  -2.137  0.00  0.00    +0.049 A 
ATOM     23  C   UNL     1       4.272  -9.290  -3.272  0.00  0.00    +0.042 A 
ATOM     24  C   UNL     1       4.104  -7.978  -3.529  0.00  0.00    +0.195 A 
ATOM     25  O   UNL     1       3.264  -7.463  -2.616  0.00  0.00    -0.464 OA
ENDBRANCH  20  21
ENDBRANCH  10  19
BRANCH   8  26
ATOM     26  O   UNL     1      -2.347  -4.840  -0.289  0.00  0.00    -0.492 OA
ATOM     27  H   UNL     1      -2.883  -5.587  -0.586  0.00  0.00    +0.294 HD
ENDBRANCH   8  26
TORSDOF 4
