REMARK  Name = ZINC02525068
REMARK  3 active torsions:
REMARK  status: ('A' for Active; 'I' for Inactive)
REMARK    1  A    between atoms: C_8  and  S_14
REMARK    2  A    between atoms: C_10  and  O_13
REMARK    3  A    between atoms: S_14  and  C_17
REMARK                            x       y       z     vdW  Elec       q    Type
REMARK                         _______ _______ _______ _____ _____    ______ ____
ROOT
ATOM      1  C   UNL     1      -0.016   1.357   0.009  0.00  0.00    +0.001 A 
ATOM      2  C   UNL     1       1.162   2.096   0.002  0.00  0.00    +0.002 A 
ATOM      3  C   UNL     1       2.386   1.497  -0.013  0.00  0.00    +0.024 A 
ATOM      4  C   UNL     1       2.480   0.095  -0.021  0.00  0.00    +0.044 A 
ATOM      5  N   UNL     1       3.684  -0.492  -0.035  0.00  0.00    -0.283 N 
ATOM      6  C   UNL     1       3.857  -1.798  -0.044  0.00  0.00    +0.249 C 
ATOM      7  O   UNL     1       4.982  -2.263  -0.057  0.00  0.00    -0.273 OA
ATOM      8  C   UNL     1       2.659  -2.721  -0.038  0.00  0.00    +0.286 C 
ATOM      9  C   UNL     1       1.286  -2.078  -0.022  0.00  0.00    +0.136 C 
ATOM     10  C   UNL     1       1.238  -0.682  -0.013  0.00  0.00    +0.036 A 
ATOM     11  C   UNL     1       0.002  -0.004   0.002  0.00  0.00    +0.013 A 
ATOM     12  H   UNL     1       4.471   0.075  -0.039  0.00  0.00    +0.155 HD
ENDROOT
BRANCH   8  13
ATOM     13  S   UNL     1       2.789  -3.792   1.419  0.00  0.00    +0.015 S 
ATOM     14  O   UNL     1       2.866  -3.006   2.600  0.00  0.00    -0.168 OA
ATOM     15  O   UNL     1       1.862  -4.865   1.322  0.00  0.00    -0.168 OA
BRANCH  13  16
ATOM     16  C   UNL     1       4.372  -4.554   1.282  0.00  0.00    +0.090 A 
ATOM     17  C   UNL     1       4.507  -5.751   0.604  0.00  0.00    +0.028 A 
ATOM     18  C   UNL     1       5.749  -6.348   0.496  0.00  0.00    +0.022 A 
ATOM     19  C   UNL     1       6.857  -5.748   1.067  0.00  0.00    +0.041 A 
ATOM     20  C   UNL     1       6.721  -4.550   1.745  0.00  0.00    +0.022 A 
ATOM     21  C   UNL     1       5.480  -3.950   1.848  0.00  0.00    +0.028 A 
ATOM     22 CL   UNL     1       8.417  -6.498   0.932  0.00  0.00    -0.084 Cl
ENDBRANCH  13  16
ENDBRANCH   8  13
BRANCH   9  23
ATOM     23  O   UNL     1       0.170  -2.815  -0.016  0.00  0.00    -0.508 OA
ATOM     24  H   UNL     1      -0.645  -2.295  -0.005  0.00  0.00    +0.292 HD
ENDBRANCH   9  23
TORSDOF 3
