REMARK  Name = ZINC03850801
REMARK  5 active torsions:
REMARK  status: ('A' for Active; 'I' for Inactive)
REMARK    1  A    between atoms: C_1  and  C_2
REMARK    2  A    between atoms: C_2  and  O_3
REMARK    3  A    between atoms: O_3  and  C_4
REMARK    4  A    between atoms: C_4  and  C_6
REMARK    5  A    between atoms: C_14  and  C_16
REMARK                            x       y       z     vdW  Elec       q    Type
REMARK                         _______ _______ _______ _____ _____    ______ ____
ROOT
ATOM      1  C   UNL     1       1.496  -2.371   2.466  0.00  0.00    +0.121 A 
ATOM      2  C   UNL     1       1.623  -3.753   2.630  0.00  0.00    +0.132 A 
ATOM      3  N   UNL     1       2.256  -4.219   3.691  0.00  0.00    -0.229 NA
ATOM      4  C   UNL     1       2.780  -3.436   4.612  0.00  0.00    +0.198 A 
ATOM      5  N   UNL     1       2.731  -2.075   4.578  0.00  0.00    -0.189 N 
ATOM      6  C   UNL     1       2.081  -1.492   3.483  0.00  0.00    +0.165 A 
ATOM      7  N   UNL     1       1.995  -0.187   3.373  0.00  0.00    -0.281 NA
ATOM      8  N   UNL     1       3.340  -1.408   5.640  0.00  0.00    -0.151 NA
ATOM      9  C   UNL     1       3.905  -2.107   6.576  0.00  0.00    +0.205 A 
ATOM     10  S   UNL     1       3.618  -3.777   6.026  0.00  0.00    -0.024 S 
ATOM     11  H   UNL     1       2.386   0.384   4.052  0.00  0.00    +0.188 HD
ENDROOT
BRANCH   9  12
ATOM     12  C   UNL     1       4.622  -1.629   7.812  0.00  0.00    +0.442 C 
ATOM     13  F   UNL     1       4.611  -0.230   7.845  0.00  0.00    -0.164 F 
ATOM     14  F   UNL     1       3.975  -2.127   8.948  0.00  0.00    -0.164 F 
ATOM     15  F   UNL     1       5.944  -2.085   7.791  0.00  0.00    -0.164 F 
ENDBRANCH   9  12
BRANCH   1  16
ATOM     16  C   UNL     1       0.801  -1.815   1.305  0.00  0.00    +0.344 C 
ATOM     17  O   UNL     1       0.321  -2.558   0.470  0.00  0.00    -0.245 OA
BRANCH  16  18
ATOM     18  O   UNL     1       0.693  -0.477   1.160  0.00  0.00    -0.461 OA
BRANCH  18  20
ATOM     19  C   UNL     1      -0.019   1.526   0.010  0.00  0.00    +0.048 C 
ATOM     20  C   UNL     1       0.002  -0.004   0.002  0.00  0.00    +0.229 C 
ENDBRANCH  18  20
ENDBRANCH  16  18
ENDBRANCH   1  16
TORSDOF 4
