REMARK  Name = ZINC04002895
REMARK  2 active torsions:
REMARK  status: ('A' for Active; 'I' for Inactive)
REMARK    1  A    between atoms: C_4  and  C_7
REMARK    2  A    between atoms: C_8  and  C_13
REMARK                            x       y       z     vdW  Elec       q    Type
REMARK                         _______ _______ _______ _____ _____    ______ ____
ROOT
ATOM      1  C   UNL     1       4.843   4.262   0.186  0.00  0.00    +0.100 A 
ATOM      2  C   UNL     1       3.906   3.137   0.078  0.00  0.00    +0.021 A 
ATOM      3  C   UNL     1       4.677   1.989   0.076  0.00  0.00    +0.113 A 
ATOM      4  N   UNL     1       5.966   2.358   0.163  0.00  0.00    -0.284 N 
ATOM      5  H   UNL     1       6.745   1.732   0.176  0.00  0.00    +0.188 HD
ATOM      6  N   UNL     1       6.053   3.751   0.233  0.00  0.00    -0.173 NA
ENDROOT
BRANCH   2   7
ATOM      7  C   UNL     1       2.444   3.215  -0.004  0.00  0.00    +0.032 C 
ATOM      8  C   UNL     1       1.758   2.321  -0.764  0.00  0.00    +0.080 C 
ATOM      9  C   UNL     1       2.263   1.302  -1.701  0.00  0.00    +0.258 C 
ATOM     10  O   UNL     1       3.455   1.150  -1.899  0.00  0.00    -0.269 OA
ATOM     11  N   UNL     1       1.358   0.559  -2.315  0.00  0.00    -0.243 N 
ATOM     12  C   UNL     1       0.038   0.730  -2.093  0.00  0.00    +0.283 C 
ATOM     13  O   UNL     1      -0.895   0.124  -2.584  0.00  0.00    -0.262 OA
ATOM     14  S   UNL     1      -0.005   2.061  -0.903  0.00  0.00    -0.026 S 
ATOM     15  H   UNL     1       1.649  -0.123  -2.940  0.00  0.00    +0.159 HD
ENDBRANCH   2   7
BRANCH   1  19
ATOM     16  C   UNL     1       3.833   8.389   0.316  0.00  0.00    +0.000 A 
ATOM     17  C   UNL     1       4.908   7.919   1.049  0.00  0.00    +0.001 A 
ATOM     18  C   UNL     1       5.241   6.580   1.010  0.00  0.00    +0.010 A 
ATOM     19  C   UNL     1       4.490   5.701   0.232  0.00  0.00    +0.003 A 
ATOM     20  C   UNL     1       3.411   6.181  -0.508  0.00  0.00    +0.010 A 
ATOM     21  C   UNL     1       3.085   7.521  -0.458  0.00  0.00    +0.001 A 
ENDBRANCH   1  19
TORSDOF 2
