REMARK  Name = ZINC45072433
REMARK  9 active torsions:
REMARK  status: ('A' for Active; 'I' for Inactive)
REMARK    1  A    between atoms: C_1  and  C_2
REMARK    2  A    between atoms: C_2  and  C_3
REMARK    3  A    between atoms: C_3  and  N_4
REMARK    4  A    between atoms: C_5  and  C_7
REMARK    5  A    between atoms: C_7  and  C_8
REMARK    6  A    between atoms: C_8  and  N_9
REMARK    7  A    between atoms: N_9  and  C_10
REMARK    8  A    between atoms: C_10  and  C_12
REMARK    9  A    between atoms: C_10  and  C_13
REMARK                            x       y       z     vdW  Elec       q    Type
REMARK                         _______ _______ _______ _____ _____    ______ ____
ROOT
ATOM      1  C   UNL     1      -5.345  -6.702   0.017  0.00  0.00    -0.044 C 
ATOM      2  C   UNL     1      -6.021  -6.314   1.333  0.00  0.00    -0.009 C 
ENDROOT
BRANCH   1   3
ATOM      3  C   UNL     1      -5.327  -8.203  -0.115  0.00  0.00    -0.060 A 
ATOM      4  C   UNL     1      -4.373  -8.944   0.562  0.00  0.00    +0.004 A 
ATOM      5  C   UNL     1      -4.349 -10.320   0.447  0.00  0.00    +0.028 A 
ATOM      6  C   UNL     1      -5.285 -10.962  -0.349  0.00  0.00    +0.067 A 
ATOM      7  C   UNL     1      -6.247 -10.215  -1.032  0.00  0.00    +0.067 A 
ATOM      8  C   UNL     1      -6.266  -8.835  -0.906  0.00  0.00    +0.029 A 
ATOM      9  N   UNL     1      -7.035 -11.122  -1.737  0.00  0.00    -0.306 N 
ATOM     10  H   UNL     1      -7.787 -10.898  -2.307  0.00  0.00    +0.170 HD
ATOM     11  C   UNL     1      -6.573 -12.363  -1.495  0.00  0.00    +0.325 A 
ATOM     12  O   UNL     1      -7.038 -13.387  -1.959  0.00  0.00    -0.247 OA
ATOM     13  N   UNL     1      -5.518 -12.300  -0.661  0.00  0.00    -0.306 N 
ATOM     14  H   UNL     1      -5.006 -13.056  -0.333  0.00  0.00    +0.170 HD
ENDBRANCH   1   3
BRANCH   1  15
ATOM     15  N   UNL     1      -3.966  -6.194   0.007  0.00  0.00    +0.384 N 
ATOM     16  H   UNL     1      -3.494  -6.519  -0.824  0.00  0.00    -0.085 HD
ATOM     17  H   UNL     1      -3.478  -6.528   0.824  0.00  0.00    -0.085 HD
BRANCH  15  18
ATOM     18  C   UNL     1      -3.986  -4.725   0.015  0.00  0.00    -0.073 C 
BRANCH  18  19
ATOM     19  C   UNL     1      -2.551  -4.195   0.004  0.00  0.00    +0.077 C 
BRANCH  19  21
ATOM     20  N   UNL     1      -1.413  -1.998   0.005  0.00  0.00    -0.315 N 
ATOM     21  C   UNL     1      -2.571  -2.688   0.012  0.00  0.00    +0.211 C 
ATOM     22  O   UNL     1      -3.630  -2.096   0.025  0.00  0.00    -0.276 OA
ATOM     23  H   UNL     1      -0.567  -2.472  -0.006  0.00  0.00    +0.149 HD
BRANCH  20  24
ATOM     24  C   UNL     1      -1.433  -0.534   0.013  0.00  0.00    +0.104 C 
BRANCH  24  26
ATOM     25  C   UNL     1      -0.019   1.526   0.010  0.00  0.00    +0.005 C 
ATOM     26  C   UNL     1       0.002  -0.004   0.002  0.00  0.00    +0.015 C 
ENDBRANCH  24  26
ENDBRANCH  20  24
ENDBRANCH  19  21
ENDBRANCH  18  19
ENDBRANCH  15  18
ENDBRANCH   1  15
TORSDOF 7
