REMARK  Name = ZINC62235729
REMARK  8 active torsions:
REMARK  status: ('A' for Active; 'I' for Inactive)
REMARK    1  A    between atoms: C_1  and  C_2
REMARK    2  A    between atoms: C_2  and  O_3
REMARK    3  A    between atoms: O_3  and  C_4
REMARK    4  A    between atoms: C_7  and  N_10
REMARK    5  A    between atoms: C_11  and  C_17
REMARK    6  A    between atoms: C_12  and  C_15
REMARK    7  A    between atoms: C_15  and  N_16
REMARK    8  A    between atoms: C_21  and  C_23
REMARK                            x       y       z     vdW  Elec       q    Type
REMARK                         _______ _______ _______ _____ _____    ______ ____
ROOT
ATOM      1  N   UNL     1      -2.201  -5.900  -0.015  0.00  0.00    -0.212 N 
ATOM      2  C   UNL     1      -3.116  -6.658   0.664  0.00  0.00    +0.096 A 
ATOM      3  C   UNL     1      -2.753  -7.958   0.449  0.00  0.00    +0.074 A 
ATOM      4  N   UNL     1      -1.668  -7.922  -0.328  0.00  0.00    -0.135 NA
ATOM      5  N   UNL     1      -1.371  -6.699  -0.588  0.00  0.00    -0.060 NA
ENDROOT
BRANCH   2   6
ATOM      6  C   UNL     1      -4.261  -6.171   1.466  0.00  0.00    +0.002 A 
ATOM      7  C   UNL     1      -5.551  -6.627   1.195  0.00  0.00    +0.010 A 
ATOM      8  C   UNL     1      -6.614  -6.170   1.947  0.00  0.00    +0.001 A 
ATOM      9  C   UNL     1      -6.402  -5.261   2.968  0.00  0.00    +0.003 A 
ATOM     10  C   UNL     1      -5.125  -4.803   3.241  0.00  0.00    -0.050 A 
ATOM     11  C   UNL     1      -4.053  -5.258   2.500  0.00  0.00    +0.013 A 
ATOM     12  C   UNL     1      -4.904  -3.812   4.354  0.00  0.00    +0.044 C 
ENDBRANCH   2   6
BRANCH   1  16
ATOM     13  C   UNL     1      -2.130  -1.734  -0.213  0.00  0.00    +0.121 A 
ATOM     14  C   UNL     1      -0.940  -2.448  -0.196  0.00  0.00    +0.048 A 
ATOM     15  C   UNL     1      -0.963  -3.827  -0.130  0.00  0.00    +0.031 A 
ATOM     16  C   UNL     1      -2.177  -4.499  -0.082  0.00  0.00    +0.068 A 
ATOM     17  C   UNL     1      -3.367  -3.784  -0.099  0.00  0.00    +0.031 A 
ATOM     18  C   UNL     1      -3.343  -2.405  -0.159  0.00  0.00    +0.048 A 
BRANCH  13  19
ATOM     19  O   UNL     1      -2.106  -0.376  -0.278  0.00  0.00    -0.492 OA
BRANCH  19  21
ATOM     20  C   UNL     1      -0.997   1.767  -0.400  0.00  0.00    +0.048 C 
ATOM     21  C   UNL     1      -0.822   0.249  -0.331  0.00  0.00    +0.225 C 
ENDBRANCH  19  21
ENDBRANCH  13  19
ENDBRANCH   1  16
BRANCH   3  22
ATOM     22  C   UNL     1      -3.440  -9.188   0.983  0.00  0.00    -0.026 C 
BRANCH  22  23
ATOM     23  N   UNL     1      -2.931  -9.488   2.328  0.00  0.00    +0.382 N 
ATOM     24  H   UNL     1      -1.932  -9.623   2.288  0.00  0.00    -0.090 HD
ATOM     25  H   UNL     1      -3.142  -8.719   2.947  0.00  0.00    -0.090 HD
ATOM     26  H   UNL     1      -3.370 -10.328   2.674  0.00  0.00    -0.090 HD
ENDBRANCH  22  23
ENDBRANCH   3  22
TORSDOF 6
