REMARK  Name = ZINC36612894
REMARK  9 active torsions:
REMARK  status: ('A' for Active; 'I' for Inactive)
REMARK    1  A    between atoms: C_1  and  C_2
REMARK    2  A    between atoms: C_2  and  O_3
REMARK    3  A    between atoms: O_3  and  C_4
REMARK    4  A    between atoms: C_6  and  C_15
REMARK    5  A    between atoms: C_9  and  O_10
REMARK    6  A    between atoms: O_10  and  C_11
REMARK    7  A    between atoms: C_11  and  C_12
REMARK    8  A    between atoms: C_15  and  N_16
REMARK    9  A    between atoms: N_16  and  C_17
REMARK                            x       y       z     vdW  Elec       q    Type
REMARK                         _______ _______ _______ _____ _____    ______ ____
ROOT
ATOM      1  C   UNL     1       0.777  -1.811  -1.336  0.00  0.00    +0.162 A 
ATOM      2  C   UNL     1       0.243  -2.669  -0.388  0.00  0.00    +0.051 A 
ATOM      3  C   UNL     1       0.352  -4.037  -0.555  0.00  0.00    -0.061 A 
ATOM      4  C   UNL     1       0.992  -4.552  -1.667  0.00  0.00    +0.005 A 
ATOM      5  C   UNL     1       1.526  -3.702  -2.616  0.00  0.00    +0.049 A 
ATOM      6  C   UNL     1       1.416  -2.330  -2.458  0.00  0.00    +0.163 A 
ENDROOT
BRANCH   1   7
ATOM      7  O   UNL     1       0.671  -0.465  -1.174  0.00  0.00    -0.489 OA
BRANCH   7   9
ATOM      8  C   UNL     1      -0.019   1.526   0.010  0.00  0.00    +0.048 C 
ATOM      9  C   UNL     1       0.002  -0.004   0.002  0.00  0.00    +0.226 C 
ENDBRANCH   7   9
ENDBRANCH   1   7
BRANCH   6  10
ATOM     10  O   UNL     1       1.936  -1.492  -3.394  0.00  0.00    -0.479 OA
BRANCH  10  11
ATOM     11  C   UNL     1       2.578  -2.095  -4.520  0.00  0.00    +0.324 C 
BRANCH  11  12
ATOM     12  C   UNL     1       3.088  -1.019  -5.443  0.00  0.00    +0.248 C 
ATOM     13  O   UNL     1       2.919   0.150  -5.165  0.00  0.00    -0.272 OA
ATOM     14  N   UNL     1       3.733  -1.355  -6.578  0.00  0.00    -0.327 N 
ATOM     15  H   UNL     1       3.868  -2.289  -6.801  0.00  0.00    +0.145 HD
ATOM     16  H   UNL     1       4.061  -0.662  -7.173  0.00  0.00    +0.145 HD
ENDBRANCH  11  12
ENDBRANCH  10  11
ENDBRANCH   6  10
BRANCH   3  17
ATOM     17  C   UNL     1      -0.229  -4.969   0.477  0.00  0.00    -0.046 C 
BRANCH  17  18
ATOM     18  N   UNL     1      -1.621  -5.283   0.127  0.00  0.00    +0.385 N 
ATOM     19  H   UNL     1      -2.161  -4.431   0.100  0.00  0.00    -0.085 HD
ATOM     20  H   UNL     1      -1.647  -5.726  -0.779  0.00  0.00    -0.085 HD
BRANCH  18  21
ATOM     21  C   UNL     1      -2.187  -6.191   1.133  0.00  0.00    -0.067 C 
ATOM     22  C   UNL     1      -2.146  -5.518   2.507  0.00  0.00    -0.009 C 
ATOM     23  C   UNL     1      -2.736  -6.464   3.555  0.00  0.00    -0.012 C 
ATOM     24  C   UNL     1      -4.185  -6.791   3.189  0.00  0.00    +0.007 C 
ATOM     25  C   UNL     1      -4.225  -7.464   1.815  0.00  0.00    -0.012 C 
ATOM     26  C   UNL     1      -3.636  -6.518   0.767  0.00  0.00    -0.009 C 
ATOM     27  C   UNL     1      -3.406  -8.755   1.855  0.00  0.00    +0.007 C 
ATOM     28  C   UNL     1      -1.956  -8.428   2.221  0.00  0.00    -0.012 C 
ATOM     29  C   UNL     1      -1.916  -7.755   3.595  0.00  0.00    +0.007 C 
ATOM     30  C   UNL     1      -1.367  -7.482   1.173  0.00  0.00    -0.009 C 
ENDBRANCH  18  21
ENDBRANCH  17  18
ENDBRANCH   3  17
TORSDOF 8
