REMARK  Name = ZINC57655781
REMARK  8 active torsions:
REMARK  status: ('A' for Active; 'I' for Inactive)
REMARK    1  A    between atoms: C_1  and  C_2
REMARK    2  A    between atoms: C_6  and  C_8
REMARK    3  A    between atoms: C_12  and  O_23
REMARK    4  A    between atoms: C_13  and  O_21
REMARK    5  A    between atoms: C_17  and  C_19
REMARK    6  A    between atoms: C_17  and  C_20
REMARK    7  A    between atoms: O_21  and  C_22
REMARK    8  A    between atoms: O_23  and  C_24
REMARK                            x       y       z     vdW  Elec       q    Type
REMARK                         _______ _______ _______ _____ _____    ______ ____
ROOT
ATOM      1  C   UNL     1       0.054  -2.845   2.489  0.00  0.00    -0.009 C 
ATOM      2  C   UNL     1       1.464  -3.279   2.792  0.00  0.00    -0.050 A 
ATOM      3  C   UNL     1       2.498  -2.387   2.546  0.00  0.00    +0.052 A 
ATOM      4  C   UNL     1       3.808  -2.743   2.812  0.00  0.00    +0.162 A 
ATOM      5  C   UNL     1       4.088  -4.004   3.331  0.00  0.00    +0.162 A 
ATOM      6  C   UNL     1       3.054  -4.890   3.574  0.00  0.00    +0.053 A 
ATOM      7  C   UNL     1       1.743  -4.528   3.304  0.00  0.00    -0.043 A 
ATOM      8  C   UNL     1       0.648  -5.528   3.576  0.00  0.00    +0.022 C 
ATOM      9  C   UNL     1      -0.707  -4.820   3.599  0.00  0.00    -0.069 C 
ATOM     10  N   UNL     1      -0.831  -4.008   2.379  0.00  0.00    +0.390 N 
ATOM     11  C   UNL     1      -1.829  -5.859   3.642  0.00  0.00    -0.010 C 
ATOM     12  C   UNL     1      -0.792  -3.915   4.830  0.00  0.00    -0.010 C 
ATOM     13  H   UNL     1      -1.786  -3.697   2.277  0.00  0.00    -0.084 HD
ATOM     14  H   UNL     1      -0.566  -4.559   1.577  0.00  0.00    -0.084 HD
ENDROOT
BRANCH   1  20
ATOM     15  C   UNL     1      -0.018   1.503   0.010  0.00  0.00    +0.044 C 
ATOM     16  C   UNL     1       0.002  -0.004   0.002  0.00  0.00    -0.050 A 
ATOM     17  C   UNL     1       0.006  -0.689  -1.199  0.00  0.00    +0.003 A 
ATOM     18  C   UNL     1       0.025  -2.071  -1.207  0.00  0.00    +0.000 A 
ATOM     19  C   UNL     1       0.040  -2.768  -0.013  0.00  0.00    +0.002 A 
ATOM     20  C   UNL     1       0.037  -2.084   1.188  0.00  0.00    -0.057 A 
ATOM     21  C   UNL     1       0.023  -0.702   1.195  0.00  0.00    +0.005 A 
ENDBRANCH   1  20
BRANCH   5  22
ATOM     22  O   UNL     1       5.373  -4.363   3.596  0.00  0.00    -0.491 OA
ATOM     23  C   UNL     1       5.584  -5.673   4.127  0.00  0.00    +0.277 C 
ENDBRANCH   5  22
BRANCH   4  24
ATOM     24  O   UNL     1       4.817  -1.865   2.568  0.00  0.00    -0.491 OA
ATOM     25  C   UNL     1       4.453  -0.590   2.035  0.00  0.00    +0.277 C 
ENDBRANCH   4  24
TORSDOF 3
