REMARK  Name = ZINC50956384
REMARK  3 active torsions:
REMARK  status: ('A' for Active; 'I' for Inactive)
REMARK    1  A    between atoms: C_4  and  N_17
REMARK    2  A    between atoms: C_5  and  N_7
REMARK    3  A    between atoms: C_11  and  C_14
REMARK                            x       y       z     vdW  Elec       q    Type
REMARK                         _______ _______ _______ _____ _____    ______ ____
ROOT
ATOM      1  N   UNL     1       1.238  -2.077  -0.021  0.00  0.00    -0.323 N 
ATOM      2  C   UNL     1       1.256  -2.842   1.236  0.00  0.00    +0.133 C 
ATOM      3  C   UNL     1       2.395  -3.865   1.163  0.00  0.00    +0.179 C 
ATOM      4  O   UNL     1       2.268  -4.626  -0.041  0.00  0.00    -0.364 OA
ATOM      5  C   UNL     1       2.383  -3.851  -1.237  0.00  0.00    +0.220 C 
ATOM      6  C   UNL     1       1.238  -2.828  -1.287  0.00  0.00    +0.146 C 
ENDROOT
BRANCH   1  11
ATOM      7  C   UNL     1      -0.017   1.377   0.010  0.00  0.00    +0.002 A 
ATOM      8  C   UNL     1       1.171   2.086   0.002  0.00  0.00    +0.002 A 
ATOM      9  C   UNL     1       2.380   1.416  -0.013  0.00  0.00    +0.034 A 
ATOM     10  C   UNL     1       2.406   0.035  -0.021  0.00  0.00    +0.147 A 
ATOM     11  C   UNL     1       1.215  -0.681  -0.013  0.00  0.00    +0.060 A 
ATOM     12  C   UNL     1       0.002  -0.004   0.002  0.00  0.00    +0.025 A 
BRANCH  10  13
ATOM     13  N   UNL     1       3.701  -0.682  -0.037  0.00  0.00    +0.058 N 
ATOM     14  O   UNL     1       4.737  -0.058  -0.044  0.00  0.00    -0.126 OA
ATOM     15  O   UNL     1       3.723  -1.891  -0.044  0.00  0.00    -0.126 OA
ENDBRANCH  10  13
ENDBRANCH   1  11
BRANCH   5  16
ATOM     16  C   UNL     1       2.297  -4.761  -2.436  0.00  0.00    +0.241 C 
ATOM     17  O   UNL     1       2.061  -5.941  -2.286  0.00  0.00    -0.273 OA
ATOM     18  N   UNL     1       2.482  -4.263  -3.674  0.00  0.00    -0.327 N 
ATOM     19  H   UNL     1       2.671  -3.319  -3.794  0.00  0.00    +0.145 HD
ATOM     20  H   UNL     1       2.427  -4.848  -4.446  0.00  0.00    +0.145 HD
ENDBRANCH   5  16
TORSDOF 3
