REMARK  Name = ZINC51722703
REMARK  7 active torsions:
REMARK  status: ('A' for Active; 'I' for Inactive)
REMARK    1  A    between atoms: C_1  and  C_2
REMARK    2  A    between atoms: C_2  and  C_3
REMARK    3  A    between atoms: C_6  and  C_8
REMARK    4  A    between atoms: C_13  and  N_20
REMARK    5  A    between atoms: C_16  and  C_18
REMARK    6  A    between atoms: C_16  and  C_19
REMARK    7  A    between atoms: N_20  and  C_21
REMARK                            x       y       z     vdW  Elec       q    Type
REMARK                         _______ _______ _______ _____ _____    ______ ____
ROOT
ATOM      1  C   UNL     1      -4.510  -1.901   1.532  0.00  0.00    +0.144 A 
ATOM      2  N   UNL     1      -5.757  -2.290   1.312  0.00  0.00    -0.241 NA
ATOM      3  C   UNL     1      -6.612  -2.530   2.299  0.00  0.00    +0.051 A 
ATOM      4  C   UNL     1      -6.155  -2.359   3.571  0.00  0.00    -0.001 A 
ATOM      5  S   UNL     1      -4.473  -1.854   3.320  0.00  0.00    -0.071 S 
ATOM      6  C   UNL     1      -6.899  -2.559   4.848  0.00  0.00    -0.032 C 
ATOM      7  C   UNL     1      -8.183  -3.345   4.538  0.00  0.00    -0.004 C 
ATOM      8  C   UNL     1      -8.867  -2.709   3.325  0.00  0.00    -0.031 C 
ATOM      9  C   UNL     1      -8.051  -2.978   2.060  0.00  0.00    +0.062 C 
ATOM     10  C   UNL     1     -10.267  -3.304   3.162  0.00  0.00    +0.011 C 
ATOM     11  C   UNL     1      -8.983  -1.199   3.543  0.00  0.00    +0.011 C 
ENDROOT
BRANCH   1  15
ATOM     12  C   UNL     1      -1.493  -1.019  -0.263  0.00  0.00    +0.106 A 
ATOM     13  C   UNL     1      -2.296  -1.284  -1.313  0.00  0.00    +0.045 A 
ATOM     14  C   UNL     1      -3.550  -1.655  -0.790  0.00  0.00    +0.052 A 
ATOM     15  C   UNL     1      -3.443  -1.595   0.567  0.00  0.00    +0.160 A 
ATOM     16  O   UNL     1      -2.187  -1.212   0.871  0.00  0.00    -0.458 OA
BRANCH  12  18
ATOM     17  C   UNL     1       0.016   0.945  -0.397  0.00  0.00    +0.012 C 
ATOM     18  C   UNL     1      -0.053  -0.583  -0.347  0.00  0.00    +0.071 C 
ENDBRANCH  12  18
ENDBRANCH   1  15
BRANCH   6  19
ATOM     19  N   UNL     1      -6.068  -3.318   5.792  0.00  0.00    +0.382 N 
ATOM     20  C   UNL     1      -6.749  -3.396   7.091  0.00  0.00    -0.100 C 
ATOM     21  H   UNL     1      -5.918  -4.250   5.434  0.00  0.00    -0.085 HD
ATOM     22  H   UNL     1      -5.179  -2.855   5.905  0.00  0.00    -0.085 HD
ENDBRANCH   6  19
TORSDOF 3
