REMARK  Name = ZINC65149208
REMARK  7 active torsions:
REMARK  status: ('A' for Active; 'I' for Inactive)
REMARK    1  A    between atoms: C_1  and  C_2
REMARK    2  A    between atoms: C_3  and  N_14
REMARK    3  A    between atoms: C_5  and  C_7
REMARK    4  A    between atoms: C_11  and  C_13
REMARK    5  A    between atoms: C_15  and  C_17
REMARK    6  A    between atoms: C_17  and  C_18
REMARK    7  A    between atoms: C_18  and  C_19
REMARK                            x       y       z     vdW  Elec       q    Type
REMARK                         _______ _______ _______ _____ _____    ______ ____
ROOT
ATOM      1  N   UNL     1      -2.368  -0.402   0.011  0.00  0.00    -0.285 N 
ATOM      2  C   UNL     1      -3.394  -1.270  -0.092  0.00  0.00    +0.218 C 
ATOM      3  O   UNL     1      -3.179  -2.464  -0.100  0.00  0.00    -0.275 OA
ATOM      4  H   UNL     1      -2.543   0.550   0.077  0.00  0.00    +0.155 HD
ENDROOT
BRANCH   1   7
ATOM      5  C   UNL     1      -0.118   1.190  -1.236  0.00  0.00    +0.053 C 
ATOM      6  C   UNL     1      -0.044  -0.147  -0.545  0.00  0.00    +0.008 A 
ATOM      7  C   UNL     1      -1.043  -0.876   0.020  0.00  0.00    +0.044 A 
ATOM      8  C   UNL     1      -0.734  -2.093   0.606  0.00  0.00    +0.040 A 
ATOM      9  C   UNL     1       0.553  -2.518   0.597  0.00  0.00    +0.052 A 
ATOM     10  S   UNL     1       1.378  -1.189  -0.263  0.00  0.00    -0.091 S 
BRANCH   9  11
ATOM     11  C   UNL     1       1.136  -3.788   1.161  0.00  0.00    +0.315 C 
ATOM     12  N   UNL     1       2.340  -4.183   0.408  0.00  0.00    -0.224 N 
ATOM     13  N   UNL     1       3.385  -4.162   1.343  0.00  0.00    -0.151 NA
ATOM     14  C   UNL     1       2.947  -3.816   2.497  0.00  0.00    +0.204 C 
ATOM     15  O   UNL     1       1.614  -3.571   2.498  0.00  0.00    -0.451 OA
ATOM     16  C   UNL     1       3.819  -3.697   3.721  0.00  0.00    +0.110 C 
ATOM     17  H   UNL     1       2.397  -4.410  -0.533  0.00  0.00    +0.172 HD
ENDBRANCH   9  11
ENDBRANCH   1   7
BRANCH   2  18
ATOM     18  C   UNL     1      -4.807  -0.758  -0.196  0.00  0.00    +0.100 C 
BRANCH  18  19
ATOM     19  C   UNL     1      -5.772  -1.941  -0.300  0.00  0.00    +0.042 C 
BRANCH  19  20
ATOM     20  C   UNL     1      -7.185  -1.429  -0.404  0.00  0.00    -0.041 C 
ATOM     21  C   UNL     1      -7.894  -1.224  -1.537  0.00  0.00    -0.001 A 
ATOM     22  C   UNL     1      -7.574  -1.407  -2.958  0.00  0.00    +0.010 A 
ATOM     23  C   UNL     1      -8.511  -1.108  -3.886  0.00  0.00    +0.001 A 
ATOM     24  C   UNL     1      -9.777  -0.627  -3.526  0.00  0.00    +0.002 A 
ATOM     25  C   UNL     1     -10.146  -0.433  -2.242  0.00  0.00    +0.026 A 
ATOM     26  C   UNL     1      -9.239  -0.715  -1.183  0.00  0.00    +0.043 A 
ATOM     27  N   UNL     1      -9.357  -0.611   0.118  0.00  0.00    -0.380 N 
ATOM     28  C   UNL     1      -8.101  -1.047   0.738  0.00  0.00    +0.144 C 
ATOM     29  H   UNL     1     -10.144  -0.301   0.592  0.00  0.00    +0.160 HD
ENDBRANCH  19  20
ENDBRANCH  18  19
ENDBRANCH   2  18
TORSDOF 5
