REMARK  Name = ZINC39722522
REMARK  7 active torsions:
REMARK  status: ('A' for Active; 'I' for Inactive)
REMARK    1  A    between atoms: N_9  and  C_30
REMARK    2  A    between atoms: C_10  and  S_13
REMARK    3  A    between atoms: S_13  and  C_14
REMARK    4  A    between atoms: C_14  and  C_15
REMARK    5  A    between atoms: C_23  and  C_27
REMARK    6  A    between atoms: C_30  and  C_31
REMARK    7  A    between atoms: C_31  and  C_32
REMARK                            x       y       z     vdW  Elec       q    Type
REMARK                         _______ _______ _______ _____ _____    ______ ____
ROOT
ATOM      1  C   UNL     1      -0.017   1.375   0.010  0.00  0.00    +0.001 A 
ATOM      2  C   UNL     1       1.168   2.095   0.002  0.00  0.00    +0.002 A 
ATOM      3  C   UNL     1       2.386   1.443  -0.018  0.00  0.00    +0.024 A 
ATOM      4  C   UNL     1       2.422   0.059  -0.028  0.00  0.00    +0.041 A 
ATOM      5  C   UNL     1       1.223  -0.674  -0.012  0.00  0.00    +0.058 A 
ATOM      6  C   UNL     1       0.002  -0.004   0.002  0.00  0.00    +0.015 A 
ATOM      7  C   UNL     1       1.296  -2.146   0.004  0.00  0.00    +0.250 C 
ATOM      8  O   UNL     1       0.289  -2.812  -0.145  0.00  0.00    -0.270 OA
ATOM      9  N   UNL     1       2.489  -2.748   0.187  0.00  0.00    -0.270 N 
ATOM     10  C   UNL     1       3.679  -1.977   0.545  0.00  0.00    +0.222 C 
ATOM     11  N   UNL     1       3.623  -0.642  -0.062  0.00  0.00    -0.317 N 
ATOM     12  H   UNL     1       4.408  -0.255  -0.480  0.00  0.00    +0.149 HD
ENDROOT
BRANCH  10  13
ATOM     13  S   UNL     1       3.765  -1.809   2.349  0.00  0.00    -0.111 S 
BRANCH  13  14
ATOM     14  C   UNL     1       2.232  -0.943   2.783  0.00  0.00    +0.146 C 
BRANCH  14  15
ATOM     15  C   UNL     1       2.176  -0.736   4.274  0.00  0.00    +0.120 A 
ATOM     16  N   UNL     1       1.093  -0.105   4.798  0.00  0.00    -0.310 N 
ATOM     17  H   UNL     1       0.383   0.198   4.210  0.00  0.00    +0.170 HD
ATOM     18  C   UNL     1       0.994   0.104   6.131  0.00  0.00    +0.259 A 
ATOM     19  O   UNL     1       0.029   0.668   6.613  0.00  0.00    -0.267 OA
ATOM     20  C   UNL     1       2.101  -0.377   6.976  0.00  0.00    +0.065 A 
ATOM     21  C   UNL     1       2.094  -0.210   8.360  0.00  0.00    +0.016 A 
ATOM     22  C   UNL     1       3.140  -0.672   9.106  0.00  0.00    +0.016 A 
ATOM     23  C   UNL     1       4.224  -1.314   8.493  0.00  0.00    +0.065 A 
ATOM     24  C   UNL     1       4.250  -1.490   7.114  0.00  0.00    +0.043 A 
ATOM     25  C   UNL     1       3.185  -1.022   6.342  0.00  0.00    +0.079 A 
ATOM     26  N   UNL     1       3.163  -1.175   4.994  0.00  0.00    -0.233 NA
BRANCH  23  27
ATOM     27  C   UNL     1       5.347  -1.807   9.317  0.00  0.00    +0.387 C 
ATOM     28  O   UNL     1       5.328  -1.654  10.530  0.00  0.00    -0.241 OA
ATOM     29  O   UNL     1       6.295  -2.368   8.787  0.00  0.00    -0.241 OA
ENDBRANCH  23  27
ENDBRANCH  14  15
ENDBRANCH  13  14
ENDBRANCH  10  13
BRANCH   9  30
ATOM     30  C   UNL     1       2.594  -4.200   0.023  0.00  0.00    +0.115 C 
BRANCH  30  31
ATOM     31  C   UNL     1       2.935  -4.526  -1.432  0.00  0.00    +0.049 C 
BRANCH  31  32
ATOM     32  C   UNL     1       3.044  -6.020  -1.600  0.00  0.00    -0.072 C 
ATOM     33  C   UNL     1       2.000  -6.661  -2.017  0.00  0.00    -0.028 C 
ATOM     34  C   UNL     1       1.952  -8.147  -2.222  0.00  0.00    +0.027 C 
ATOM     35  C   UNL     1       3.371  -8.716  -2.287  0.00  0.00    +0.004 C 
ATOM     36  C   UNL     1       4.164  -8.178  -1.090  0.00  0.00    +0.005 C 
ATOM     37  C   UNL     1       4.357  -6.670  -1.278  0.00  0.00    +0.030 C 
ENDBRANCH  31  32
ENDBRANCH  30  31
ENDBRANCH   9  30
TORSDOF 7
