REMARK  Name = ZINC28558514
REMARK  1 active torsions:
REMARK  status: ('A' for Active; 'I' for Inactive)
REMARK    1  A    between atoms: C_1  and  N_2
REMARK                            x       y       z     vdW  Elec       q    Type
REMARK                         _______ _______ _______ _____ _____    ______ ____
ROOT
ATOM      1  C   UNL     1       1.093  -2.185  -0.022  0.00  0.00    +0.155 C 
ATOM      2  N   UNL     1       1.157  -0.721  -0.006  0.00  0.00    -0.283 N 
ATOM      3  C   UNL     1       2.360  -0.102  -0.010  0.00  0.00    +0.263 A 
ATOM      4  O   UNL     1       3.397  -0.740  -0.026  0.00  0.00    -0.267 OA
ATOM      5  C   UNL     1       2.370   1.365   0.008  0.00  0.00    +0.069 A 
ATOM      6  C   UNL     1       3.562   2.092   0.006  0.00  0.00    +0.064 A 
ATOM      7  C   UNL     1       3.522   3.471   0.023  0.00  0.00    +0.163 A 
ATOM      8  C   UNL     1       2.296   4.143   0.041  0.00  0.00    +0.164 A 
ATOM      9  C   UNL     1       1.108   3.435   0.043  0.00  0.00    +0.078 A 
ATOM     10  C   UNL     1       1.128   2.041   0.027  0.00  0.00    +0.083 A 
ATOM     11  N   UNL     1      -0.017   1.315   0.028  0.00  0.00    -0.215 NA
ATOM     12  C   UNL     1       0.002   0.006   0.013  0.00  0.00    +0.201 A 
ATOM     13  N   UNL     1      -1.195  -0.666   0.015  0.00  0.00    -0.298 N 
ATOM     14  C   UNL     1      -2.006  -0.299  -1.154  0.00  0.00    +0.127 C 
ATOM     15  C   UNL     1      -3.246  -1.198  -1.212  0.00  0.00    +0.128 C 
ATOM     16  N   UNL     1      -3.944  -1.116   0.080  0.00  0.00    -0.283 N 
ATOM     17  C   UNL     1      -3.164  -1.336   1.307  0.00  0.00    +0.128 C 
ATOM     18  C   UNL     1      -1.927  -0.432   1.267  0.00  0.00    +0.127 C 
ATOM     19  C   UNL     1      -5.263  -0.846   0.138  0.00  0.00    +0.300 C 
ATOM     20  O   UNL     1      -5.805  -0.687   1.215  0.00  0.00    -0.253 OA
ATOM     21  N   UNL     1      -5.982  -0.753  -0.998  0.00  0.00    -0.313 N 
ATOM     22  O   UNL     1       2.251   5.503   0.053  0.00  0.00    -0.485 OA
ATOM     23  C   UNL     1       3.453   6.183   0.429  0.00  0.00    +0.270 C 
ATOM     24  C   UNL     1       4.624   5.549  -0.334  0.00  0.00    +0.270 C 
ATOM     25  O   UNL     1       4.695   4.165   0.025  0.00  0.00    -0.485 OA
ATOM     26  H   UNL     1      -7.059  -0.533  -0.951  0.00  0.00    +0.146 HD
ATOM     27  H   UNL     1      -5.492  -0.897  -1.973  0.00  0.00    +0.146 HD
ENDROOT
TORSDOF 0
