REMARK  Name = ZINC40509751
REMARK  7 active torsions:
REMARK  status: ('A' for Active; 'I' for Inactive)
REMARK    1  A    between atoms: C_1  and  C_2
REMARK    2  A    between atoms: C_6  and  O_8
REMARK    3  A    between atoms: O_8  and  C_9
REMARK    4  A    between atoms: C_10  and  C_17
REMARK    5  A    between atoms: C_11  and  C_16
REMARK    6  A    between atoms: C_13  and  C_15
REMARK    7  A    between atoms: C_17  and  N_18
REMARK                            x       y       z     vdW  Elec       q    Type
REMARK                         _______ _______ _______ _____ _____    ______ ____
ROOT
ATOM      1  C   UNL     1       0.151  -2.066   3.512  0.00  0.00    +0.222 A 
ATOM      2  C   UNL     1       0.279  -2.736   4.723  0.00  0.00    +0.000 A 
ATOM      3  C   UNL     1       0.381  -2.001   5.891  0.00  0.00    -0.042 A 
ATOM      4  C   UNL     1       0.350  -0.616   5.807  0.00  0.00    +0.026 A 
ATOM      5  C   UNL     1       0.220  -0.017   4.570  0.00  0.00    +0.042 A 
ATOM      6  N   UNL     1       0.130  -0.744   3.472  0.00  0.00    -0.218 NA
ATOM      7  C   UNL     1       0.186   1.486   4.471  0.00  0.00    +0.066 C 
ATOM      8  C   UNL     1       0.521  -2.689   7.224  0.00  0.00    +0.044 C 
ENDROOT
BRANCH   1   9
ATOM      9  O   UNL     1       0.050  -2.775   2.360  0.00  0.00    -0.436 OA
BRANCH   9  15
ATOM     10  C   UNL     1      -2.589  -0.720  -1.195  0.00  0.00    +0.044 C 
ATOM     11  C   UNL     1      -1.260  -1.067  -0.573  0.00  0.00    -0.047 A 
ATOM     12  C   UNL     1      -0.086  -0.684  -1.195  0.00  0.00    +0.005 A 
ATOM     13  C   UNL     1       1.135  -1.001  -0.628  0.00  0.00    +0.024 A 
ATOM     14  C   UNL     1       1.183  -1.701   0.563  0.00  0.00    +0.083 A 
ATOM     15  C   UNL     1       0.006  -2.086   1.189  0.00  0.00    +0.149 A 
ATOM     16  C   UNL     1      -1.217  -1.762   0.620  0.00  0.00    +0.051 A 
ATOM     17 CL   UNL     1       2.716  -2.099   1.275  0.00  0.00    -0.080 Cl
ENDBRANCH   9  15
ENDBRANCH   1   9
BRANCH   2  18
ATOM     18  C   UNL     1       0.307  -4.242   4.763  0.00  0.00    -0.045 C 
BRANCH  18  19
ATOM     19  N   UNL     1       1.694  -4.709   4.642  0.00  0.00    +0.381 N 
ATOM     20  H   UNL     1       2.082  -4.389   3.767  0.00  0.00    -0.090 HD
ATOM     21  H   UNL     1       2.241  -4.342   5.406  0.00  0.00    -0.090 HD
ATOM     22  H   UNL     1       1.713  -5.718   4.669  0.00  0.00    -0.090 HD
ENDBRANCH  18  19
ENDBRANCH   2  18
TORSDOF 4
