REMARK  Name = ZINC48797068
REMARK  6 active torsions:
REMARK  status: ('A' for Active; 'I' for Inactive)
REMARK    1  A    between atoms: C_3  and  C_9
REMARK    2  A    between atoms: C_4  and  O_8
REMARK    3  A    between atoms: C_9  and  N_10
REMARK    4  A    between atoms: N_10  and  C_11
REMARK    5  A    between atoms: N_14  and  C_17
REMARK    6  A    between atoms: C_17  and  C_18
REMARK                            x       y       z     vdW  Elec       q    Type
REMARK                         _______ _______ _______ _____ _____    ______ ____
ROOT
ATOM      1  N   UNL     1       4.200   2.245  -1.392  0.00  0.00    +0.384 N 
ATOM      2  H   UNL     1       4.368   1.307  -1.724  0.00  0.00    -0.085 HD
ATOM      3  H   UNL     1       3.531   2.700  -1.994  0.00  0.00    -0.085 HD
ENDROOT
BRANCH   1   4
ATOM      4  C   UNL     1       5.460   3.001  -1.401  0.00  0.00    -0.069 C 
ATOM      5  C   UNL     1       5.184   4.459  -1.025  0.00  0.00    -0.000 C 
ATOM      6  C   UNL     1       6.490   5.254  -1.095  0.00  0.00    +0.083 C 
ATOM      7  N   UNL     1       7.040   5.176  -2.454  0.00  0.00    -0.294 NA
ATOM      8  C   UNL     1       7.357   3.789  -2.820  0.00  0.00    +0.083 C 
ATOM      9  C   UNL     1       6.077   2.950  -2.801  0.00  0.00    -0.000 C 
BRANCH   7  10
ATOM     10  C   UNL     1       8.220   6.040  -2.596  0.00  0.00    +0.180 C 
BRANCH  10  11
ATOM     11  C   UNL     1       8.608   6.126  -4.050  0.00  0.00    +0.225 C 
ATOM     12  O   UNL     1       7.965   5.527  -4.886  0.00  0.00    -0.275 OA
ATOM     13  N   UNL     1       9.669   6.869  -4.421  0.00  0.00    -0.328 N 
ATOM     14  H   UNL     1      10.183   7.348  -3.752  0.00  0.00    +0.145 HD
ATOM     15  H   UNL     1       9.919   6.925  -5.356  0.00  0.00    +0.145 HD
ENDBRANCH  10  11
ENDBRANCH   7  10
ENDBRANCH   1   4
BRANCH   1  16
ATOM     16  C   UNL     1       3.670   2.193  -0.023  0.00  0.00    -0.043 C 
BRANCH  16  19
ATOM     17  C   UNL     1      -0.017   1.378   0.010  0.00  0.00    +0.002 A 
ATOM     18  C   UNL     1       1.170   2.088   0.002  0.00  0.00    +0.005 A 
ATOM     19  C   UNL     1       2.378   1.418  -0.013  0.00  0.00    -0.022 A 
ATOM     20  C   UNL     1       2.400   0.031  -0.021  0.00  0.00    +0.132 A 
ATOM     21  C   UNL     1       1.208  -0.680  -0.013  0.00  0.00    +0.059 A 
ATOM     22  C   UNL     1       0.002  -0.004   0.002  0.00  0.00    +0.019 A 
ATOM     23 BR   UNL     1       1.233  -2.571  -0.024  0.00  0.00    -0.047 Br
BRANCH  20  24
ATOM     24  O   UNL     1       3.587  -0.631  -0.037  0.00  0.00    -0.505 OA
ATOM     25  H   UNL     1       3.940  -0.827   0.842  0.00  0.00    +0.292 HD
ENDBRANCH  20  24
ENDBRANCH  16  19
ENDBRANCH   1  16
TORSDOF 6
