REMARK  Name = ZINC41701595
REMARK  7 active torsions:
REMARK  status: ('A' for Active; 'I' for Inactive)
REMARK    1  A    between atoms: C_1  and  C_2
REMARK    2  A    between atoms: C_2  and  C_3
REMARK    3  A    between atoms: N_5  and  C_6
REMARK    4  A    between atoms: C_9  and  C_12
REMARK    5  A    between atoms: C_12  and  C_14
REMARK    6  A    between atoms: C_12  and  N_15
REMARK    7  A    between atoms: N_15  and  C_16
REMARK                            x       y       z     vdW  Elec       q    Type
REMARK                         _______ _______ _______ _____ _____    ______ ____
ROOT
ATOM      1  N   UNL     1       3.169  -4.546  -6.647  0.00  0.00    -0.342 N 
ATOM      2  H   UNL     1       2.577  -5.116  -6.132  0.00  0.00    +0.146 HD
ENDROOT
BRANCH   1   3
ATOM      3  C   UNL     1       3.382  -4.799  -7.943  0.00  0.00    +0.081 C 
ATOM      4  C   UNL     1       2.669  -5.822  -8.584  0.00  0.00    +0.051 C 
ATOM      5  C   UNL     1       2.794  -6.017  -9.966  0.00  0.00    +0.024 C 
ATOM      6  C   UNL     1       2.060  -7.053 -10.556  0.00  0.00    -0.003 A 
ATOM      7  C   UNL     1       2.135  -7.308 -11.938  0.00  0.00    +0.010 A 
ATOM      8  C   UNL     1       1.407  -8.325 -12.473  0.00  0.00    +0.001 A 
ATOM      9  C   UNL     1       0.584  -9.123 -11.683  0.00  0.00    +0.002 A 
ATOM     10  C   UNL     1       0.468  -8.926 -10.341  0.00  0.00    +0.024 A 
ATOM     11  C   UNL     1       1.195  -7.892  -9.724  0.00  0.00    +0.041 A 
ATOM     12  N   UNL     1       1.101  -7.677  -8.409  0.00  0.00    -0.281 N 
ATOM     13  C   UNL     1       1.784  -6.710  -7.813  0.00  0.00    +0.249 C 
ATOM     14  O   UNL     1       1.673  -6.550  -6.606  0.00  0.00    -0.270 OA
ATOM     15  H   UNL     1       0.522  -8.245  -7.878  0.00  0.00    +0.155 HD
ENDBRANCH   1   3
BRANCH   1  16
ATOM     16  C   UNL     1       3.831  -3.407  -6.005  0.00  0.00    +0.097 C 
ATOM     17  C   UNL     1       5.229  -3.824  -5.543  0.00  0.00    +0.033 C 
BRANCH  16  21
ATOM     18  C   UNL     1       1.534  -2.144  -2.629  0.00  0.00    +0.033 A 
ATOM     19  C   UNL     1       2.127  -1.202  -3.459  0.00  0.00    +0.023 A 
ATOM     20  C   UNL     1       2.869  -1.613  -4.549  0.00  0.00    +0.007 A 
ATOM     21  C   UNL     1       3.021  -2.962  -4.814  0.00  0.00    -0.027 A 
ATOM     22  C   UNL     1       2.431  -3.902  -3.990  0.00  0.00    +0.007 A 
ATOM     23  C   UNL     1       1.694  -3.498  -2.894  0.00  0.00    +0.023 A 
BRANCH  18  26
ATOM     24  C   UNL     1       0.804  -2.452  -0.385  0.00  0.00    +0.217 C 
ATOM     25  O   UNL     1       1.414  -3.499  -0.343  0.00  0.00    -0.275 OA
ATOM     26  N   UNL     1       0.782  -1.730  -1.524  0.00  0.00    -0.286 N 
ATOM     27  H   UNL     1       0.245  -0.924  -1.577  0.00  0.00    +0.155 HD
BRANCH  24  29
ATOM     28  C   UNL     1       0.255  -2.954   1.980  0.00  0.00    +0.013 C 
ATOM     29  C   UNL     1       0.071  -1.957   0.835  0.00  0.00    +0.093 C 
ENDBRANCH  24  29
ENDBRANCH  18  26
ENDBRANCH  16  21
ENDBRANCH   1  16
TORSDOF 5
