REMARK  Name = ZINC43965415
REMARK  10 active torsions:
REMARK  status: ('A' for Active; 'I' for Inactive)
REMARK    1  A    between atoms: C_1  and  C_2
REMARK    2  A    between atoms: C_2  and  C_3
REMARK    3  A    between atoms: C_3  and  C_4
REMARK    4  A    between atoms: C_8  and  N_21
REMARK    5  A    between atoms: C_10  and  N_13
REMARK    6  A    between atoms: C_18  and  C_19
REMARK    7  A    between atoms: C_18  and  C_20
REMARK    8  A    between atoms: N_21  and  C_22
REMARK    9  A    between atoms: C_22  and  C_23
REMARK   10  A    between atoms: C_23  and  C_24
REMARK                            x       y       z     vdW  Elec       q    Type
REMARK                         _______ _______ _______ _____ _____    ______ ____
ROOT
ATOM      1  C   UNL     1       0.888  -1.708   2.689  0.00  0.00    -0.010 C 
ATOM      2  C   UNL     1      -0.558  -2.051   3.056  0.00  0.00    +0.002 C 
ATOM      3  C   UNL     1      -0.814  -3.535   2.786  0.00  0.00    -0.014 C 
ATOM      4  C   UNL     1       0.140  -4.379   3.633  0.00  0.00    -0.054 C 
ATOM      5  C   UNL     1       1.586  -4.037   3.266  0.00  0.00    +0.044 C 
ATOM      6  C   UNL     1       1.842  -2.553   3.536  0.00  0.00    +0.021 C 
ENDROOT
BRANCH   5   7
ATOM      7  N   UNL     1       2.502  -4.848   4.079  0.00  0.00    -0.291 NA
ATOM      8  C   UNL     1       1.925  -6.169   4.364  0.00  0.00    +0.113 C 
ATOM      9  C   UNL     1       2.884  -6.957   5.261  0.00  0.00    +0.175 C 
ATOM     10  O   UNL     1       4.160  -7.050   4.620  0.00  0.00    -0.377 OA
ATOM     11  C   UNL     1       4.751  -5.781   4.329  0.00  0.00    +0.181 C 
ATOM     12  C   UNL     1       3.811  -4.981   3.423  0.00  0.00    +0.040 C 
ATOM     13  C   UNL     1       3.641  -5.713   2.090  0.00  0.00    +0.030 C 
ATOM     14  C   UNL     1       4.401  -3.592   3.172  0.00  0.00    +0.030 C 
ENDBRANCH   5   7
BRANCH   4  15
ATOM     15  N   UNL     1      -0.085  -4.094   5.056  0.00  0.00    +0.382 N 
ATOM     16  H   UNL     1       0.618  -4.563   5.608  0.00  0.00    -0.085 HD
ATOM     17  H   UNL     1      -0.026  -3.099   5.213  0.00  0.00    -0.085 HD
BRANCH  15  18
ATOM     18  C   UNL     1      -1.417  -4.574   5.447  0.00  0.00    -0.082 C 
BRANCH  18  19
ATOM     19  C   UNL     1      -1.651  -4.277   6.930  0.00  0.00    -0.022 C 
ATOM     20  C   UNL     1      -3.038  -4.777   7.337  0.00  0.00    +0.002 C 
ENDBRANCH  18  19
ENDBRANCH  15  18
ENDBRANCH   4  15
BRANCH   1  21
ATOM     21  C   UNL     1       1.144  -0.224   2.958  0.00  0.00    +0.003 C 
BRANCH  21  23
ATOM     22  C   UNL     1       0.535   2.105   2.292  0.00  0.00    +0.004 C 
ATOM     23  C   UNL     1       0.278   0.621   2.022  0.00  0.00    -0.003 C 
ENDBRANCH  21  23
ENDBRANCH   1  21
TORSDOF 6
