REMARK  Name = ZINC66233413
REMARK  7 active torsions:
REMARK  status: ('A' for Active; 'I' for Inactive)
REMARK    1  A    between atoms: C_1  and  C_2
REMARK    2  A    between atoms: C_2  and  C_4
REMARK    3  A    between atoms: C_2  and  N_15
REMARK    4  A    between atoms: N_18  and  C_19
REMARK    5  A    between atoms: C_19  and  C_20
REMARK    6  A    between atoms: C_20  and  C_21
REMARK    7  A    between atoms: N_25  and  C_26
REMARK                            x       y       z     vdW  Elec       q    Type
REMARK                         _______ _______ _______ _____ _____    ______ ____
ROOT
ATOM      1  N   UNL     1       0.711  -0.489   1.189  0.00  0.00    -0.293 N 
ATOM      2  C   UNL     1       0.051  -0.633   2.355  0.00  0.00    +0.300 C 
ATOM      3  O   UNL     1      -1.132  -0.361   2.423  0.00  0.00    -0.253 OA
ATOM      4  N   UNL     1       0.703  -1.080   3.447  0.00  0.00    -0.299 N 
ATOM      5  H   UNL     1       1.654  -0.707   1.135  0.00  0.00    +0.151 HD
ATOM      6  H   UNL     1       1.647  -1.298   3.394  0.00  0.00    +0.150 HD
ENDROOT
BRANCH   1   8
ATOM      7  C   UNL     1      -0.019   1.526   0.010  0.00  0.00    +0.033 C 
ATOM      8  C   UNL     1       0.002  -0.004   0.002  0.00  0.00    +0.102 C 
BRANCH   8   9
ATOM      9  C   UNL     1       0.707  -0.490  -1.238  0.00  0.00    -0.025 A 
ATOM     10  C   UNL     1       2.089  -0.510  -1.282  0.00  0.00    +0.009 A 
ATOM     11  C   UNL     1       2.744  -0.956  -2.415  0.00  0.00    +0.048 A 
ATOM     12  C   UNL     1       2.014  -1.383  -3.510  0.00  0.00    +0.142 A 
ATOM     13  C   UNL     1       0.621  -1.362  -3.467  0.00  0.00    +0.076 A 
ATOM     14  C   UNL     1      -0.029  -0.920  -2.326  0.00  0.00    +0.032 A 
ATOM     15  N   UNL     1      -0.107  -1.795  -4.584  0.00  0.00    -0.280 N 
ATOM     16  C   UNL     1       0.526  -2.508  -5.541  0.00  0.00    +0.255 C 
ATOM     17  O   UNL     1      -0.076  -2.866  -6.532  0.00  0.00    -0.272 OA
ATOM     18  C   UNL     1       1.983  -2.856  -5.374  0.00  0.00    +0.325 C 
ATOM     19  O   UNL     1       2.641  -1.825  -4.633  0.00  0.00    -0.481 OA
ATOM     20  H   UNL     1      -1.050  -1.586  -4.668  0.00  0.00    +0.155 HD
ENDBRANCH   8   9
ENDBRANCH   1   8
BRANCH   4  21
ATOM     21  C   UNL     1      -0.014  -1.237   4.715  0.00  0.00    +0.113 C 
BRANCH  21  22
ATOM     22  C   UNL     1       0.950  -1.754   5.785  0.00  0.00    +0.091 C 
BRANCH  22  23
ATOM     23  C   UNL     1       0.212  -1.915   7.090  0.00  0.00    +0.088 A 
ATOM     24  N   UNL     1      -0.477  -2.963   7.449  0.00  0.00    -0.350 N 
ATOM     25  C   UNL     1      -0.993  -2.756   8.670  0.00  0.00    +0.101 A 
ATOM     26  C   UNL     1      -0.609  -1.533   9.082  0.00  0.00    +0.104 A 
ATOM     27  N   UNL     1       0.160  -1.001   8.082  0.00  0.00    -0.339 N 
ATOM     28  C   UNL     1       0.804   0.315   8.087  0.00  0.00    +0.150 C 
ATOM     29  H   UNL     1      -0.597  -3.765   6.918  0.00  0.00    +0.166 HD
ENDBRANCH  22  23
ENDBRANCH  21  22
ENDBRANCH   4  21
TORSDOF 5
