REMARK  Name = ZINC37671388
REMARK  6 active torsions:
REMARK  status: ('A' for Active; 'I' for Inactive)
REMARK    1  A    between atoms: C_1  and  C_2
REMARK    2  A    between atoms: C_9  and  N_11
REMARK    3  A    between atoms: N_11  and  C_12
REMARK    4  A    between atoms: C_12  and  C_13
REMARK    5  A    between atoms: C_15  and  N_20
REMARK    6  A    between atoms: C_18  and  O_19
REMARK                            x       y       z     vdW  Elec       q    Type
REMARK                         _______ _______ _______ _____ _____    ______ ____
ROOT
ATOM      1  N   UNL     1       0.050  -2.771   2.395  0.00  0.00    -0.325 N 
ATOM      2  H   UNL     1       0.064  -3.740   2.393  0.00  0.00    +0.148 HD
ENDROOT
BRANCH   1  11
ATOM      3  C   UNL     1      -0.018   1.503   0.010  0.00  0.00    +0.044 C 
ATOM      4  C   UNL     1       0.002  -0.004   0.002  0.00  0.00    -0.044 A 
ATOM      5  C   UNL     1       0.006  -0.683  -1.182  0.00  0.00    +0.051 A 
ATOM      6  C   UNL     1       0.025  -2.087  -1.172  0.00  0.00    +0.158 A 
ATOM      7  N   UNL     1       0.033  -2.998  -2.140  0.00  0.00    -0.215 NA
ATOM      8  C   UNL     1       0.052  -4.213  -1.609  0.00  0.00    +0.246 A 
ATOM      9  N   UNL     1       0.057  -4.123  -0.301  0.00  0.00    -0.152 NA
ATOM     10  N   UNL     1       0.040  -2.758   0.019  0.00  0.00    -0.199 N 
ATOM     11  C   UNL     1       0.035  -2.076   1.199  0.00  0.00    +0.123 A 
ATOM     12  C   UNL     1       0.023  -0.712   1.207  0.00  0.00    +0.047 A 
ENDBRANCH   1  11
BRANCH   1  13
ATOM     13  C   UNL     1       0.046  -2.041   3.666  0.00  0.00    +0.142 C 
BRANCH  13  14
ATOM     14  C   UNL     1       0.065  -3.023   4.809  0.00  0.00    +0.013 A 
ATOM     15  C   UNL     1       1.225  -3.218   5.532  0.00  0.00    +0.031 A 
ATOM     16  C   UNL     1       1.242  -4.123   6.585  0.00  0.00    +0.025 A 
ATOM     17  C   UNL     1       0.092  -4.831   6.910  0.00  0.00    +0.026 A 
ATOM     18  C   UNL     1      -1.067  -4.635   6.186  0.00  0.00    +0.047 A 
ATOM     19  C   UNL     1      -1.084  -3.727   5.137  0.00  0.00    +0.122 A 
BRANCH  16  20
ATOM     20  N   UNL     1       2.417  -4.321   7.319  0.00  0.00    -0.358 N 
ATOM     21  H   UNL     1       3.220  -3.827   7.092  0.00  0.00    +0.142 HD
ATOM     22  H   UNL     1       2.429  -4.953   8.055  0.00  0.00    +0.142 HD
ENDBRANCH  16  20
BRANCH  19  23
ATOM     23  O   UNL     1      -2.228  -3.530   4.427  0.00  0.00    -0.506 OA
ATOM     24  H   UNL     1      -2.323  -4.118   3.665  0.00  0.00    +0.292 HD
ENDBRANCH  19  23
ENDBRANCH  13  14
ENDBRANCH   1  13
TORSDOF 5
