REMARK  Name = ZINC56522925
REMARK  10 active torsions:
REMARK  status: ('A' for Active; 'I' for Inactive)
REMARK    1  A    between atoms: C_1  and  C_2
REMARK    2  A    between atoms: C_2  and  C_4
REMARK    3  A    between atoms: C_2  and  N_13
REMARK    4  A    between atoms: N_9  and  C_10
REMARK    5  A    between atoms: C_10  and  C_11
REMARK    6  A    between atoms: C_16  and  C_19
REMARK    7  A    between atoms: C_19  and  C_20
REMARK    8  A    between atoms: C_20  and  N_21
REMARK    9  A    between atoms: N_21  and  C_22
REMARK   10  A    between atoms: N_21  and  C_23
REMARK                            x       y       z     vdW  Elec       q    Type
REMARK                         _______ _______ _______ _____ _____    ______ ____
ROOT
ATOM      1  C   UNL     1       0.019   1.316   0.775  0.00  0.00    -0.004 C 
ATOM      2  C   UNL     1       0.002  -0.004   0.002  0.00  0.00    +0.017 C 
ENDROOT
BRANCH   2   3
ATOM      3  C   UNL     1      -1.363  -0.634   0.114  0.00  0.00    +0.207 C 
ATOM      4  O   UNL     1      -1.591  -1.432   0.997  0.00  0.00    -0.277 OA
ATOM      5  N   UNL     1      -2.328  -0.310  -0.769  0.00  0.00    -0.242 N 
ATOM      6  C   UNL     1      -3.549  -0.873  -0.669  0.00  0.00    +0.306 C 
ATOM      7  O   UNL     1      -3.778  -1.673   0.217  0.00  0.00    -0.252 OA
ATOM      8  N   UNL     1      -4.515  -0.549  -1.551  0.00  0.00    -0.296 N 
ATOM      9  H   UNL     1      -2.145   0.329  -1.476  0.00  0.00    +0.159 HD
ATOM     10  H   UNL     1      -4.332   0.089  -2.258  0.00  0.00    +0.151 HD
BRANCH   8  11
ATOM     11  C   UNL     1      -5.841  -1.161  -1.442  0.00  0.00    +0.132 C 
BRANCH  11  12
ATOM     12  C   UNL     1      -6.729  -0.634  -2.540  0.00  0.00    -0.016 C 
ATOM     13  C   UNL     1      -7.330  -1.467  -3.353  0.00  0.00    +0.005 C 
ENDBRANCH  11  12
ENDBRANCH   8  11
ENDBRANCH   2   3
BRANCH   2  14
ATOM     14  N   UNL     1       1.009  -0.914   0.564  0.00  0.00    +0.387 N 
ATOM     15  C   UNL     1       1.010  -2.170  -0.196  0.00  0.00    -0.078 C 
ATOM     16  C   UNL     1       1.999  -3.152   0.435  0.00  0.00    -0.015 C 
ATOM     17  C   UNL     1       3.403  -2.539   0.413  0.00  0.00    -0.016 C 
ATOM     18  C   UNL     1       3.373  -1.194   1.145  0.00  0.00    -0.015 C 
ATOM     19  C   UNL     1       2.333  -0.284   0.487  0.00  0.00    -0.078 C 
ATOM     20  H   UNL     1       0.785  -1.107   1.529  0.00  0.00    -0.081 HD
BRANCH  17  21
ATOM     21  C   UNL     1       4.383  -3.481   1.114  0.00  0.00    -0.015 C 
BRANCH  21  22
ATOM     22  C   UNL     1       5.804  -2.928   0.982  0.00  0.00    -0.079 C 
BRANCH  22  23
ATOM     23  N   UNL     1       6.746  -3.833   1.655  0.00  0.00    +0.376 N 
ATOM     24  C   UNL     1       6.766  -5.125   0.958  0.00  0.00    -0.097 C 
ATOM     25  C   UNL     1       8.091  -3.243   1.633  0.00  0.00    -0.097 C 
ATOM     26  H   UNL     1       6.455  -3.971   2.611  0.00  0.00    -0.083 HD
ENDBRANCH  22  23
ENDBRANCH  21  22
ENDBRANCH  17  21
ENDBRANCH   2  14
TORSDOF 7
