REMARK  Name = ZINC37810037
REMARK  6 active torsions:
REMARK  status: ('A' for Active; 'I' for Inactive)
REMARK    1  A    between atoms: C_1  and  C_2
REMARK    2  A    between atoms: C_2  and  C_3
REMARK    3  A    between atoms: C_2  and  C_6
REMARK    4  A    between atoms: C_2  and  N_20
REMARK    5  A    between atoms: N_8  and  C_9
REMARK    6  A    between atoms: N_8  and  C_10
REMARK                            x       y       z     vdW  Elec       q    Type
REMARK                         _______ _______ _______ _____ _____    ______ ____
ROOT
ATOM      1  C   UNL     1      -1.967   0.867  -0.728  0.00  0.00    +0.204 C 
ATOM      2  O   UNL     1      -2.720   1.778  -0.456  0.00  0.00    -0.277 OA
ATOM      3  N   UNL     1      -2.463  -0.315  -1.146  0.00  0.00    -0.302 N 
ATOM      4  C   UNL     1      -1.553  -1.385  -1.561  0.00  0.00    +0.132 C 
ENDROOT
BRANCH   3   5
ATOM      5  C   UNL     1      -3.912  -0.529  -1.185  0.00  0.00    +0.082 C 
ATOM      6  C   UNL     1      -4.206  -1.929  -1.726  0.00  0.00    +0.010 C 
ATOM      7  C   UNL     1      -5.719  -2.152  -1.768  0.00  0.00    +0.009 C 
ATOM      8  C   UNL     1      -6.364  -1.107  -2.680  0.00  0.00    -0.010 C 
ATOM      9  C   UNL     1      -5.791  -1.239  -4.092  0.00  0.00    +0.007 C 
ATOM     10  C   UNL     1      -4.278  -1.016  -4.051  0.00  0.00    -0.010 C 
ATOM     11  C   UNL     1      -3.633  -2.061  -3.139  0.00  0.00    +0.009 C 
ATOM     12  C   UNL     1      -3.983   0.385  -3.510  0.00  0.00    +0.009 C 
ATOM     13  C   UNL     1      -4.557   0.517  -2.097  0.00  0.00    +0.010 C 
ATOM     14  C   UNL     1      -6.070   0.294  -2.139  0.00  0.00    +0.009 C 
ENDBRANCH   3   5
BRANCH   1  16
ATOM     15  C   UNL     1      -0.177   2.513  -0.244  0.00  0.00    -0.001 C 
ATOM     16  C   UNL     1      -0.478   1.055  -0.598  0.00  0.00    +0.007 C 
BRANCH  16  17
ATOM     17  N   UNL     1       0.171   0.717  -1.872  0.00  0.00    +0.388 N 
ATOM     18  H   UNL     1       1.152   0.947  -1.821  0.00  0.00    -0.089 HD
ATOM     19  H   UNL     1       0.066  -0.271  -2.051  0.00  0.00    -0.089 HD
ATOM     20  H   UNL     1      -0.259   1.242  -2.618  0.00  0.00    -0.089 HD
ENDBRANCH  16  17
BRANCH  16  21
ATOM     21  C   UNL     1       0.058   0.141   0.506  0.00  0.00    -0.014 C 
ATOM     22  C   UNL     1       0.401   0.784   1.851  0.00  0.00    +0.003 C 
ATOM     23  C   UNL     1       1.520   0.316   0.920  0.00  0.00    +0.003 C 
ENDBRANCH  16  21
ENDBRANCH   1  16
TORSDOF 4
