REMARK  Name = ZINC52785331
REMARK  7 active torsions:
REMARK  status: ('A' for Active; 'I' for Inactive)
REMARK    1  A    between atoms: C_1  and  O_2
REMARK    2  A    between atoms: O_2  and  C_3
REMARK    3  A    between atoms: C_3  and  C_4
REMARK    4  A    between atoms: C_4  and  C_5
REMARK    5  A    between atoms: C_5  and  C_7
REMARK    6  A    between atoms: C_5  and  N_21
REMARK    7  A    between atoms: C_13  and  C_17
REMARK                            x       y       z     vdW  Elec       q    Type
REMARK                         _______ _______ _______ _____ _____    ______ ____
ROOT
ATOM      1  C   UNL     1       1.379  -4.200  -2.107  0.00  0.00    +0.123 A 
ATOM      2  N   UNL     1       0.389  -5.041  -2.261  0.00  0.00    -0.135 NA
ATOM      3  N   UNL     1       0.792  -6.246  -2.057  0.00  0.00    -0.128 NA
ATOM      4  C   UNL     1       2.080  -6.236  -1.757  0.00  0.00    +0.180 A 
ATOM      5  N   UNL     1       2.486  -4.925  -1.788  0.00  0.00    -0.286 N 
ATOM      6  C   UNL     1       3.783  -4.595  -1.523  0.00  0.00    +0.106 A 
ATOM      7  C   UNL     1       4.687  -5.553  -1.229  0.00  0.00    +0.073 A 
ATOM      8  C   UNL     1       4.304  -6.905  -1.193  0.00  0.00    +0.037 A 
ATOM      9  C   UNL     1       3.012  -7.248  -1.448  0.00  0.00    +0.086 A 
ATOM     10 CL   UNL     1       2.521  -8.912  -1.409  0.00  0.00    -0.080 Cl
ENDROOT
BRANCH   7  11
ATOM     11  C   UNL     1       6.116  -5.171  -0.939  0.00  0.00    +0.419 C 
ATOM     12  F   UNL     1       6.294  -5.046   0.443  0.00  0.00    -0.166 F 
ATOM     13  F   UNL     1       6.973  -6.161  -1.432  0.00  0.00    -0.166 F 
ATOM     14  F   UNL     1       6.407  -3.951  -1.558  0.00  0.00    -0.166 F 
ENDBRANCH   7  11
BRANCH   1  15
ATOM     15  C   UNL     1       1.309  -2.703  -2.261  0.00  0.00    -0.003 C 
BRANCH  15  16
ATOM     16  N   UNL     1       0.548  -2.371  -3.474  0.00  0.00    +0.385 N 
ATOM     17  H   UNL     1       0.501  -1.368  -3.577  0.00  0.00    -0.089 HD
ATOM     18  H   UNL     1       1.007  -2.771  -4.279  0.00  0.00    -0.089 HD
ATOM     19  H   UNL     1      -0.386  -2.746  -3.398  0.00  0.00    -0.089 HD
ENDBRANCH  15  16
BRANCH  15  20
ATOM     20  C   UNL     1       0.613  -2.097  -1.041  0.00  0.00    +0.019 C 
BRANCH  20  21
ATOM     21  C   UNL     1       0.652  -0.570  -1.138  0.00  0.00    +0.158 C 
BRANCH  21  23
ATOM     22  C   UNL     1      -0.017   1.425   0.010  0.00  0.00    +0.193 C 
ATOM     23  O   UNL     1       0.002  -0.004   0.002  0.00  0.00    -0.383 OA
ENDBRANCH  21  23
ENDBRANCH  20  21
ENDBRANCH  15  20
ENDBRANCH   1  15
TORSDOF 6
