REMARK  Name = ZINC15884946
REMARK  7 active torsions:
REMARK  status: ('A' for Active; 'I' for Inactive)
REMARK    1  A    between atoms: C_7  and  N_12
REMARK    2  A    between atoms: C_8  and  O_11
REMARK    3  A    between atoms: N_13  and  C_14
REMARK    4  A    between atoms: C_14  and  C_16
REMARK    5  A    between atoms: C_16  and  N_17
REMARK    6  A    between atoms: C_18  and  C_20
REMARK    7  A    between atoms: C_21  and  C_22
REMARK                            x       y       z     vdW  Elec       q    Type
REMARK                         _______ _______ _______ _____ _____    ______ ____
ROOT
ATOM      1  N   UNL     1       0.771  -3.153  -0.022  0.00  0.00    -0.151 NA
ATOM      2  N   UNL     1       1.249  -4.351  -0.034  0.00  0.00    -0.078 NA
ENDROOT
BRANCH   1   9
ATOM      3  C   UNL     1      -0.017   1.375   0.010  0.00  0.00    +0.001 A 
ATOM      4  C   UNL     1       1.171   2.089   0.002  0.00  0.00    +0.002 A 
ATOM      5  C   UNL     1       2.385   1.433  -0.013  0.00  0.00    +0.026 A 
ATOM      6  C   UNL     1       2.424   0.043  -0.021  0.00  0.00    +0.051 A 
ATOM      7  C   UNL     1       1.220  -0.677  -0.013  0.00  0.00    +0.030 A 
ATOM      8  C   UNL     1       0.002  -0.004   0.002  0.00  0.00    +0.012 A 
ATOM      9  C   UNL     1       1.597  -2.106  -0.025  0.00  0.00    +0.152 A 
ATOM     10  C   UNL     1       2.998  -2.136  -0.039  0.00  0.00    +0.219 A 
ATOM     11  N   UNL     1       3.469  -0.867  -0.036  0.00  0.00    -0.324 N 
ATOM     12  H   UNL     1       4.409  -0.627  -0.044  0.00  0.00    +0.169 HD
BRANCH  10  13
ATOM     13  O   UNL     1       3.756  -3.252  -0.052  0.00  0.00    -0.492 OA
ATOM     14  H   UNL     1       3.968  -3.572  -0.939  0.00  0.00    +0.294 HD
ENDBRANCH  10  13
ENDBRANCH   1   9
BRANCH   2  15
ATOM     15  C   UNL     1       0.420  -5.404  -0.031  0.00  0.00    +0.271 C 
ATOM     16  O   UNL     1      -0.782  -5.230  -0.018  0.00  0.00    -0.270 OA
BRANCH  15  17
ATOM     17  C   UNL     1       0.978  -6.803  -0.045  0.00  0.00    +0.204 C 
BRANCH  17  18
ATOM     18  N   UNL     1      -0.123  -7.769  -0.039  0.00  0.00    -0.303 N 
ATOM     19  C   UNL     1       0.139  -9.091  -0.049  0.00  0.00    +0.237 C 
ATOM     20  O   UNL     1       1.292  -9.483  -0.063  0.00  0.00    -0.271 OA
ATOM     21  H   UNL     1      -1.042  -7.457  -0.028  0.00  0.00    +0.149 HD
BRANCH  19  22
ATOM     22  C   UNL     1      -0.925 -10.024  -0.043  0.00  0.00    +0.071 C 
ATOM     23  C   UNL     1      -0.661 -11.354  -0.053  0.00  0.00    +0.051 C 
BRANCH  23  24
ATOM     24  C   UNL     1      -1.726 -12.288  -0.048  0.00  0.00    +0.128 A 
ATOM     25  C   UNL     1      -1.603 -13.662  -0.051  0.00  0.00    +0.049 A 
ATOM     26  C   UNL     1      -2.907 -14.180  -0.043  0.00  0.00    +0.042 A 
ATOM     27  C   UNL     1      -3.755 -13.127  -0.035  0.00  0.00    +0.195 A 
ATOM     28  O   UNL     1      -3.043 -11.992  -0.032  0.00  0.00    -0.464 OA
ENDBRANCH  23  24
ENDBRANCH  19  22
ENDBRANCH  17  18
ENDBRANCH  15  17
ENDBRANCH   2  15
TORSDOF 7
