REMARK  Name = ZINC49511213
REMARK  5 active torsions:
REMARK  status: ('A' for Active; 'I' for Inactive)
REMARK    1  A    between atoms: C_1  and  C_2
REMARK    2  A    between atoms: C_2  and  C_4
REMARK    3  A    between atoms: C_2  and  N_11
REMARK    4  A    between atoms: C_4  and  N_5
REMARK    5  A    between atoms: C_12  and  N_22
REMARK                            x       y       z     vdW  Elec       q    Type
REMARK                         _______ _______ _______ _____ _____    ______ ____
ROOT
ATOM      1  N   UNL     1      -1.415  -0.490   0.177  0.00  0.00    -0.292 N 
ATOM      2  C   UNL     1      -1.916  -1.332  -0.779  0.00  0.00    +0.100 A 
ATOM      3  C   UNL     1      -3.204  -1.750  -0.771  0.00  0.00    +0.050 A 
ATOM      4  C   UNL     1      -4.083  -1.316   0.249  0.00  0.00    -0.010 A 
ATOM      5  C   UNL     1      -5.421  -1.725   0.293  0.00  0.00    +0.009 A 
ATOM      6  C   UNL     1      -6.229  -1.278   1.300  0.00  0.00    +0.001 A 
ATOM      7  C   UNL     1      -5.742  -0.423   2.281  0.00  0.00    +0.001 A 
ATOM      8  C   UNL     1      -4.440  -0.006   2.265  0.00  0.00    +0.014 A 
ATOM      9  C   UNL     1      -3.589  -0.445   1.250  0.00  0.00    +0.047 A 
ATOM     10  C   UNL     1      -2.184  -0.034   1.188  0.00  0.00    +0.261 A 
ATOM     11  O   UNL     1      -1.719   0.711   2.032  0.00  0.00    -0.267 OA
ENDROOT
BRANCH   2  12
ATOM     12  N   UNL     1      -1.078  -1.770  -1.787  0.00  0.00    -0.344 N 
ATOM     13  H   UNL     1      -0.185  -1.400  -1.871  0.00  0.00    +0.144 HD
ATOM     14  H   UNL     1      -1.383  -2.446  -2.411  0.00  0.00    +0.144 HD
ENDBRANCH   2  12
BRANCH   1  16
ATOM     15  C   UNL     1       0.068   1.437  -0.085  0.00  0.00    +0.032 C 
ATOM     16  C   UNL     1      -0.011  -0.079   0.104  0.00  0.00    +0.103 C 
BRANCH  16  17
ATOM     17  C   UNL     1       0.702  -0.469   1.401  0.00  0.00    +0.109 C 
BRANCH  17  18
ATOM     18  N   UNL     1       0.550  -1.913   1.628  0.00  0.00    -0.296 NA
ATOM     19  C   UNL     1       0.801  -2.254   3.036  0.00  0.00    +0.112 C 
ATOM     20  C   UNL     1       0.574  -3.754   3.240  0.00  0.00    +0.175 C 
ATOM     21  O   UNL     1       1.419  -4.484   2.347  0.00  0.00    -0.377 OA
ATOM     22  C   UNL     1       1.202  -4.177   0.967  0.00  0.00    +0.175 C 
ATOM     23  C   UNL     1       1.435  -2.682   0.740  0.00  0.00    +0.112 C 
ENDBRANCH  17  18
ENDBRANCH  16  17
ENDBRANCH   1  16
TORSDOF 4
