REMARK  Name = ZINC39670869
REMARK  7 active torsions:
REMARK  status: ('A' for Active; 'I' for Inactive)
REMARK    1  A    between atoms: C_1  and  C_2
REMARK    2  A    between atoms: C_2  and  C_3
REMARK    3  A    between atoms: C_2  and  C_4
REMARK    4  A    between atoms: C_8  and  C_17
REMARK    5  A    between atoms: N_19  and  C_20
REMARK    6  A    between atoms: C_20  and  C_21
REMARK    7  A    between atoms: C_21  and  C_22
REMARK                            x       y       z     vdW  Elec       q    Type
REMARK                         _______ _______ _______ _____ _____    ______ ____
ROOT
ATOM      1  C   UNL     1       0.657  -0.251  -1.039  0.00  0.00    +0.218 C 
ATOM      2  O   UNL     1      -0.020  -0.917  -1.793  0.00  0.00    -0.275 OA
ATOM      3  N   UNL     1       1.947   0.003  -1.336  0.00  0.00    -0.300 N 
ATOM      4  C   UNL     1       2.925   0.783  -0.543  0.00  0.00    +0.121 C 
ATOM      5  C   UNL     1       4.252   0.003  -0.681  0.00  0.00    +0.100 C 
ATOM      6  C   UNL     1       4.103  -0.794  -1.988  0.00  0.00    -0.004 C 
ATOM      7  C   UNL     1       2.709  -0.442  -2.527  0.00  0.00    +0.115 C 
ATOM      8  C   UNL     1       4.191  -2.291  -1.707  0.00  0.00    -0.010 C 
ATOM      9  C   UNL     1       4.098  -3.060  -3.028  0.00  0.00    -0.082 C 
ATOM     10  N   UNL     1       5.190  -2.644  -3.916  0.00  0.00    +0.379 N 
ATOM     11  C   UNL     1       5.045  -1.223  -4.256  0.00  0.00    -0.082 C 
ATOM     12  C   UNL     1       5.178  -0.377  -2.987  0.00  0.00    -0.010 C 
ATOM     13  H   UNL     1       6.074  -2.789  -3.451  0.00  0.00    -0.086 HD
ATOM     14  H   UNL     1       5.163  -3.195  -4.761  0.00  0.00    -0.086 HD
ENDROOT
BRANCH   5  15
ATOM     15  C   UNL     1       4.436  -0.930   0.487  0.00  0.00    +0.218 C 
ATOM     16  O   UNL     1       3.468  -1.405   1.043  0.00  0.00    -0.275 OA
ATOM     17  N   UNL     1       5.676  -1.238   0.915  0.00  0.00    -0.315 N 
ATOM     18  H   UNL     1       6.451  -0.858   0.471  0.00  0.00    +0.149 HD
BRANCH  17  19
ATOM     19  C   UNL     1       5.855  -2.145   2.051  0.00  0.00    +0.112 C 
BRANCH  19  20
ATOM     20  C   UNL     1       7.349  -2.325   2.330  0.00  0.00    +0.093 C 
BRANCH  20  21
ATOM     21  C   UNL     1       7.533  -3.259   3.499  0.00  0.00    +0.106 A 
ATOM     22  C   UNL     1       7.660  -4.596   3.425  0.00  0.00    +0.044 A 
ATOM     23  C   UNL     1       7.810  -5.066   4.750  0.00  0.00    +0.041 A 
ATOM     24  C   UNL     1       7.767  -3.989   5.553  0.00  0.00    +0.195 A 
ATOM     25  O   UNL     1       7.605  -2.896   4.790  0.00  0.00    -0.468 OA
ENDBRANCH  20  21
ENDBRANCH  19  20
ENDBRANCH  17  19
ENDBRANCH   5  15
BRANCH   1  27
ATOM     26  C   UNL     1       0.139   1.821   0.222  0.00  0.00    +0.017 C 
ATOM     27  C   UNL     1       0.055   0.293   0.231  0.00  0.00    +0.069 C 
ATOM     28  C   UNL     1      -1.410  -0.136   0.327  0.00  0.00    +0.017 C 
ENDBRANCH   1  27
TORSDOF 5
