REMARK  Name = ZINC58841583
REMARK  13 active torsions:
REMARK  status: ('A' for Active; 'I' for Inactive)
REMARK    1  A    between atoms: C_1  and  C_2
REMARK    2  A    between atoms: N_4  and  C_5
REMARK    3  A    between atoms: C_5  and  C_6
REMARK    4  A    between atoms: N_8  and  C_9
REMARK    5  A    between atoms: C_9  and  C_10
REMARK    6  A    between atoms: N_12  and  C_13
REMARK    7  A    between atoms: C_13  and  C_14
REMARK    8  A    between atoms: C_14  and  C_15
REMARK    9  A    between atoms: C_14  and  N_23
REMARK   10  A    between atoms: C_18  and  O_21
REMARK   11  A    between atoms: O_21  and  C_22
REMARK   12  A    between atoms: N_23  and  C_24
REMARK   13  A    between atoms: N_23  and  C_25
REMARK                            x       y       z     vdW  Elec       q    Type
REMARK                         _______ _______ _______ _____ _____    ______ ____
ROOT
ATOM      1  C   UNL     1      -3.413  -8.313  -1.618  0.00  0.00    +0.230 C 
ATOM      2  O   UNL     1      -2.838  -7.485  -0.944  0.00  0.00    -0.274 OA
ATOM      3  N   UNL     1      -4.668  -8.689  -1.298  0.00  0.00    -0.315 N 
ATOM      4  H   UNL     1      -5.128  -9.351  -1.837  0.00  0.00    +0.149 HD
ENDROOT
BRANCH   1   5
ATOM      5  C   UNL     1      -2.725  -8.923  -2.812  0.00  0.00    +0.200 C 
BRANCH   5   8
ATOM      6  C   UNL     1      -0.577  -8.754  -3.950  0.00  0.00    +0.231 C 
ATOM      7  O   UNL     1      -0.965  -9.584  -4.744  0.00  0.00    -0.274 OA
ATOM      8  N   UNL     1      -1.382  -8.354  -2.945  0.00  0.00    -0.305 N 
ATOM      9  H   UNL     1      -1.071  -7.690  -2.310  0.00  0.00    +0.149 HD
BRANCH   6  10
ATOM     10  C   UNL     1       0.805  -8.168  -4.086  0.00  0.00    +0.200 C 
BRANCH  10  14
ATOM     11  C   UNL     1       3.416  -8.995  -6.761  0.00  0.00    +0.109 C 
ATOM     12  C   UNL     1       2.728  -8.386  -5.566  0.00  0.00    +0.210 C 
ATOM     13  O   UNL     1       3.303  -7.557  -4.893  0.00  0.00    -0.276 OA
ATOM     14  N   UNL     1       1.474  -8.761  -5.247  0.00  0.00    -0.307 N 
ATOM     15  H   UNL     1       1.014  -9.423  -5.786  0.00  0.00    +0.149 HD
ENDBRANCH  10  14
ENDBRANCH   6  10
ENDBRANCH   5   8
ENDBRANCH   1   5
BRANCH   3  16
ATOM     16  C   UNL     1      -5.336  -8.096  -0.137  0.00  0.00    +0.093 C 
BRANCH  16  17
ATOM     17  C   UNL     1      -6.777  -8.605  -0.064  0.00  0.00    -0.021 C 
BRANCH  17  18
ATOM     18  C   UNL     1      -6.772 -10.093   0.179  0.00  0.00    -0.059 A 
ATOM     19  C   UNL     1      -6.575 -10.582   1.457  0.00  0.00    +0.005 A 
ATOM     20  C   UNL     1      -6.570 -11.945   1.683  0.00  0.00    +0.046 A 
ATOM     21  C   UNL     1      -6.763 -12.823   0.625  0.00  0.00    +0.120 A 
ATOM     22  C   UNL     1      -6.961 -12.329  -0.656  0.00  0.00    +0.046 A 
ATOM     23  C   UNL     1      -6.970 -10.965  -0.875  0.00  0.00    +0.005 A 
BRANCH  21  24
ATOM     24  O   UNL     1      -6.758 -14.164   0.844  0.00  0.00    -0.495 OA
ATOM     25  C   UNL     1      -6.963 -15.008  -0.291  0.00  0.00    +0.277 C 
ENDBRANCH  21  24
ENDBRANCH  17  18
BRANCH  17  26
ATOM     26  N   UNL     1      -7.479  -7.932   1.037  0.00  0.00    +0.382 N 
ATOM     27  C   UNL     1      -7.485  -6.482   0.799  0.00  0.00    -0.096 C 
ATOM     28  C   UNL     1      -8.862  -8.422   1.109  0.00  0.00    -0.096 C 
ATOM     29  H   UNL     1      -7.007  -8.128   1.907  0.00  0.00    -0.082 HD
ENDBRANCH  17  26
ENDBRANCH  16  17
ENDBRANCH   3  16
TORSDOF 9
