REMARK  Name = ZINC36263917
REMARK  7 active torsions:
REMARK  status: ('A' for Active; 'I' for Inactive)
REMARK    1  A    between atoms: C_1  and  O_2
REMARK    2  A    between atoms: O_2  and  C_3
REMARK    3  A    between atoms: C_6  and  N_19
REMARK    4  A    between atoms: C_8  and  S_9
REMARK    5  A    between atoms: S_9  and  N_12
REMARK    6  A    between atoms: N_12  and  C_13
REMARK    7  A    between atoms: C_16  and  N_18
REMARK                            x       y       z     vdW  Elec       q    Type
REMARK                         _______ _______ _______ _____ _____    ______ ____
ROOT
ATOM      1  S   UNL     1      -0.080  -3.075   0.214  0.00  0.00    +0.062 S 
ATOM      2  O   UNL     1      -0.085  -4.480  -0.001  0.00  0.00    -0.153 OA
ATOM      3  O   UNL     1       0.529  -2.482   1.353  0.00  0.00    -0.153 OA
ENDROOT
BRANCH   1   9
ATOM      4  C   UNL     1       0.798  -0.972  -1.296  0.00  0.00    +0.146 A 
ATOM      5  C   UNL     1       1.404  -0.406  -2.409  0.00  0.00    +0.050 A 
ATOM      6  C   UNL     1       1.887  -1.215  -3.418  0.00  0.00    +0.036 A 
ATOM      7  C   UNL     1       1.766  -2.589  -3.321  0.00  0.00    +0.128 A 
ATOM      8  C   UNL     1       1.163  -3.156  -2.215  0.00  0.00    +0.065 A 
ATOM      9  C   UNL     1       0.683  -2.351  -1.199  0.00  0.00    +0.149 A 
BRANCH   7  10
ATOM     10  N   UNL     1       2.284  -3.454  -4.405  0.00  0.00    +0.056 N 
ATOM     11  O   UNL     1       2.812  -2.959  -5.373  0.00  0.00    -0.126 OA
ATOM     12  O   UNL     1       2.180  -4.656  -4.321  0.00  0.00    -0.126 OA
ENDBRANCH   7  10
BRANCH   4  14
ATOM     13  C   UNL     1       0.475   1.233  -0.469  0.00  0.00    +0.277 C 
ATOM     14  O   UNL     1       0.323  -0.178  -0.301  0.00  0.00    -0.493 OA
ENDBRANCH   4  14
ENDBRANCH   1   9
BRANCH   1  15
ATOM     15  N   UNL     1      -1.663  -2.591   0.218  0.00  0.00    -0.188 NA
ATOM     16  H   UNL     1      -1.999  -2.035   0.939  0.00  0.00    +0.148 HD
BRANCH  15  17
ATOM     17  C   UNL     1      -2.557  -3.002  -0.867  0.00  0.00    +0.061 C 
ATOM     18  C   UNL     1      -4.025  -3.255  -0.516  0.00  0.00    +0.004 C 
ATOM     19  C   UNL     1      -3.632  -2.008  -1.312  0.00  0.00    -0.055 C 
BRANCH  19  20
ATOM     20  N   UNL     1      -3.978  -1.977  -2.739  0.00  0.00    +0.381 N 
ATOM     21  H   UNL     1      -4.320  -2.884  -3.022  0.00  0.00    -0.090 HD
ATOM     22  H   UNL     1      -4.694  -1.284  -2.897  0.00  0.00    -0.090 HD
ATOM     23  H   UNL     1      -3.159  -1.744  -3.279  0.00  0.00    -0.090 HD
ENDBRANCH  19  20
ENDBRANCH  15  17
ENDBRANCH   1  15
TORSDOF 6
