REMARK  Name = ZINC57753659
REMARK  5 active torsions:
REMARK  status: ('A' for Active; 'I' for Inactive)
REMARK    1  A    between atoms: C_6  and  C_7
REMARK    2  A    between atoms: C_7  and  C_8
REMARK    3  A    between atoms: C_8  and  C_10
REMARK    4  A    between atoms: C_8  and  C_12
REMARK    5  A    between atoms: C_10  and  N_11
REMARK                            x       y       z     vdW  Elec       q    Type
REMARK                         _______ _______ _______ _____ _____    ______ ____
ROOT
ATOM      1  C   UNL     1      -1.624  -1.006  -1.472  0.00  0.00    +0.006 C 
ENDROOT
BRANCH   1   2
ATOM      2  C   UNL     1      -2.920  -1.776  -1.485  0.00  0.00    -0.042 A 
ATOM      3  C   UNL     1      -4.042  -1.247  -0.873  0.00  0.00    +0.007 A 
ATOM      4  C   UNL     1      -5.233  -1.949  -0.883  0.00  0.00    +0.050 A 
ATOM      5  C   UNL     1      -5.305  -3.185  -1.505  0.00  0.00    +0.166 A 
ATOM      6  C   UNL     1      -4.175  -3.717  -2.121  0.00  0.00    +0.166 A 
ATOM      7  C   UNL     1      -2.986  -3.005  -2.112  0.00  0.00    +0.053 A 
ATOM      8  O   UNL     1      -4.500  -4.930  -2.655  0.00  0.00    -0.453 OA
ATOM      9  C   UNL     1      -5.727  -5.319  -2.010  0.00  0.00    +0.466 C 
ATOM     10  O   UNL     1      -6.338  -4.064  -1.654  0.00  0.00    -0.453 OA
ENDBRANCH   1   2
BRANCH   1  11
ATOM     11  C   UNL     1      -1.180  -0.780  -0.026  0.00  0.00    +0.041 C 
BRANCH  11  17
ATOM     12  C   UNL     1       0.402  -2.660   0.445  0.00  0.00    +0.007 A 
ATOM     13  C   UNL     1       0.706  -3.876   1.028  0.00  0.00    +0.050 A 
ATOM     14  C   UNL     1      -0.248  -4.543   1.782  0.00  0.00    +0.162 A 
ATOM     15  C   UNL     1      -1.509  -3.983   1.952  0.00  0.00    +0.162 A 
ATOM     16  C   UNL     1      -1.807  -2.764   1.364  0.00  0.00    +0.053 A 
ATOM     17  C   UNL     1      -0.852  -2.105   0.613  0.00  0.00    -0.043 A 
ATOM     18  O   UNL     1      -2.457  -4.617   2.695  0.00  0.00    -0.485 OA
ATOM     19  C   UNL     1      -2.245  -6.009   2.958  0.00  0.00    +0.270 C 
ATOM     20  C   UNL     1      -0.788  -6.197   3.402  0.00  0.00    +0.270 C 
ATOM     21  O   UNL     1       0.065  -5.742   2.346  0.00  0.00    -0.485 OA
ENDBRANCH  11  17
ENDBRANCH   1  11
BRANCH   1  22
ATOM     22  C   UNL     1      -1.827   0.345  -2.161  0.00  0.00    -0.078 C 
BRANCH  22  23
ATOM     23  N   UNL     1      -0.536   1.039  -2.265  0.00  0.00    +0.379 N 
ATOM     24  H   UNL     1      -0.199   1.262  -1.341  0.00  0.00    -0.090 HD
ATOM     25  H   UNL     1       0.130   0.442  -2.732  0.00  0.00    -0.090 HD
ATOM     26  H   UNL     1      -0.654   1.890  -2.795  0.00  0.00    -0.090 HD
ENDBRANCH  22  23
ENDBRANCH   1  22
TORSDOF 5
