REMARK  Name = ZINC45871057
REMARK  14 active torsions:
REMARK  status: ('A' for Active; 'I' for Inactive)
REMARK    1  A    between atoms: C_1  and  C_2
REMARK    2  A    between atoms: C_2  and  N_3
REMARK    3  A    between atoms: N_3  and  C_4
REMARK    4  A    between atoms: N_3  and  C_6
REMARK    5  A    between atoms: C_4  and  C_5
REMARK    6  A    between atoms: C_6  and  C_8
REMARK    7  A    between atoms: C_6  and  C_26
REMARK    8  A    between atoms: C_8  and  N_9
REMARK    9  A    between atoms: C_10  and  C_12
REMARK   10  A    between atoms: C_12  and  C_13
REMARK   11  A    between atoms: C_14  and  C_25
REMARK   12  A    between atoms: C_18  and  S_23
REMARK   13  A    between atoms: C_21  and  C_22
REMARK   14  A    between atoms: S_23  and  C_24
REMARK                            x       y       z     vdW  Elec       q    Type
REMARK                         _______ _______ _______ _____ _____    ______ ____
ROOT
ATOM      1  N   UNL     1      -1.678  -2.420   0.791  0.00  0.00    -0.316 N 
ATOM      2  C   UNL     1      -1.305  -3.459   0.017  0.00  0.00    +0.217 C 
ATOM      3  O   UNL     1      -1.097  -3.290  -1.166  0.00  0.00    -0.275 OA
ATOM      4  H   UNL     1      -1.774  -2.538   1.749  0.00  0.00    +0.149 HD
ENDROOT
BRANCH   1   5
ATOM      5  C   UNL     1      -1.937  -1.111   0.185  0.00  0.00    +0.093 C 
BRANCH   5   6
ATOM      6  C   UNL     1      -2.201  -0.083   1.286  0.00  0.00    -0.020 C 
BRANCH   6   7
ATOM      7  C   UNL     1      -2.347   1.285   0.671  0.00  0.00    -0.059 A 
ATOM      8  C   UNL     1      -2.699   1.411  -0.660  0.00  0.00    +0.002 A 
ATOM      9  C   UNL     1      -2.833   2.666  -1.224  0.00  0.00    +0.000 A 
ATOM     10  C   UNL     1      -2.615   3.795  -0.457  0.00  0.00    +0.000 A 
ATOM     11  C   UNL     1      -2.264   3.670   0.874  0.00  0.00    +0.000 A 
ATOM     12  C   UNL     1      -2.134   2.415   1.439  0.00  0.00    +0.002 A 
ENDBRANCH   6   7
BRANCH   6  13
ATOM     13  N   UNL     1      -1.076  -0.077   2.231  0.00  0.00    +0.385 N 
ATOM     14  H   UNL     1      -0.690  -1.007   2.299  0.00  0.00    -0.081 HD
BRANCH  13  16
ATOM     15  C   UNL     1       0.395   0.447   0.344  0.00  0.00    -0.017 C 
ATOM     16  C   UNL     1      -0.041   0.849   1.754  0.00  0.00    -0.081 C 
ENDBRANCH  13  16
BRANCH  13  17
ATOM     17  C   UNL     1      -1.549   0.354   3.553  0.00  0.00    -0.081 C 
ATOM     18  C   UNL     1      -2.465  -0.720   4.143  0.00  0.00    -0.017 C 
ENDBRANCH  13  17
ENDBRANCH   6  13
ENDBRANCH   5   6
ENDBRANCH   1   5
BRANCH   2  19
ATOM     19  C   UNL     1      -1.147  -4.830   0.622  0.00  0.00    +0.134 C 
BRANCH  19  20
ATOM     20  C   UNL     1      -0.609  -5.779  -0.418  0.00  0.00    +0.004 A 
ATOM     21  C   UNL     1      -1.478  -6.417  -1.311  0.00  0.00    +0.047 A 
ATOM     22  N   UNL     1      -1.006  -7.244  -2.217  0.00  0.00    -0.216 NA
ATOM     23  C   UNL     1       0.305  -7.492  -2.304  0.00  0.00    +0.254 A 
ATOM     24  N   UNL     1       1.018  -8.269  -3.113  0.00  0.00    -0.183 NA
ATOM     25  C   UNL     1       2.309  -8.178  -2.801  0.00  0.00    +0.211 A 
ATOM     26  N   UNL     1       2.458  -7.345  -1.790  0.00  0.00    -0.137 NA
ATOM     27  N   UNL     1       1.180  -6.885  -1.447  0.00  0.00    -0.200 N 
ATOM     28  C   UNL     1       0.725  -6.021  -0.503  0.00  0.00    +0.049 A 
ATOM     29  C   UNL     1       1.686  -5.344   0.441  0.00  0.00    +0.066 C 
ATOM     30  C   UNL     1      -2.960  -6.154  -1.233  0.00  0.00    +0.066 C 
BRANCH  25  31
ATOM     31  S   UNL     1       3.615  -9.038  -3.612  0.00  0.00    -0.088 S 
ATOM     32  C   UNL     1       2.773 -10.007  -4.894  0.00  0.00    +0.093 C 
ENDBRANCH  25  31
ENDBRANCH  19  20
ENDBRANCH   2  19
TORSDOF 9
