REMARK  Name = ZINC13051268
REMARK  9 active torsions:
REMARK  status: ('A' for Active; 'I' for Inactive)
REMARK    1  A    between atoms: C_1  and  C_2
REMARK    2  A    between atoms: C_2  and  C_4
REMARK    3  A    between atoms: C_2  and  O_32
REMARK    4  A    between atoms: C_4  and  N_5
REMARK    5  A    between atoms: C_11  and  C_30
REMARK    6  A    between atoms: C_15  and  S_16
REMARK    7  A    between atoms: S_16  and  C_17
REMARK    8  A    between atoms: C_17  and  C_18
REMARK    9  A    between atoms: N_20  and  C_21
REMARK                            x       y       z     vdW  Elec       q    Type
REMARK                         _______ _______ _______ _____ _____    ______ ____
ROOT
ATOM      1  N   UNL     1       4.950  -7.372  -0.650  0.00  0.00    -0.285 N 
ATOM      2  C   UNL     1       4.790  -8.711  -0.750  0.00  0.00    +0.262 A 
ATOM      3  O   UNL     1       5.747  -9.454  -0.863  0.00  0.00    -0.267 OA
ATOM      4  C   UNL     1       3.416  -9.237  -0.717  0.00  0.00    +0.065 A 
ATOM      5  C   UNL     1       3.152 -10.603  -0.814  0.00  0.00    +0.016 A 
ATOM      6  C   UNL     1       1.863 -11.052  -0.779  0.00  0.00    +0.016 A 
ATOM      7  C   UNL     1       0.798 -10.151  -0.648  0.00  0.00    +0.065 A 
ATOM      8  C   UNL     1       1.037  -8.786  -0.551  0.00  0.00    +0.043 A 
ATOM      9  C   UNL     1       2.353  -8.315  -0.585  0.00  0.00    +0.080 A 
ATOM     10  N   UNL     1       2.634  -6.994  -0.489  0.00  0.00    -0.223 NA
ATOM     11  C   UNL     1       3.866  -6.551  -0.525  0.00  0.00    +0.173 A 
ENDROOT
BRANCH   7  12
ATOM     12  C   UNL     1      -0.592 -10.658  -0.614  0.00  0.00    +0.387 C 
ATOM     13  O   UNL     1      -1.518  -9.881  -0.501  0.00  0.00    -0.241 OA
ATOM     14  O   UNL     1      -0.829 -11.980  -0.708  0.00  0.00    -0.241 OA
ENDBRANCH   7  12
BRANCH   1  15
ATOM     15  C   UNL     1       6.297  -6.797  -0.677  0.00  0.00    +0.158 C 
BRANCH  15  17
ATOM     16  C   UNL     1       8.251  -6.112   0.721  0.00  0.00    +0.039 C 
ATOM     17  C   UNL     1       6.844  -6.712   0.749  0.00  0.00    +0.131 C 
BRANCH  17  18
ATOM     18  O   UNL     1       5.989  -5.884   1.539  0.00  0.00    -0.390 OA
ATOM     19  H   UNL     1       5.906  -4.978   1.211  0.00  0.00    +0.210 HD
ENDBRANCH  17  18
ENDBRANCH  15  17
ENDBRANCH   1  15
BRANCH  11  20
ATOM     20  S   UNL     1       4.137  -4.814  -0.399  0.00  0.00    -0.078 S 
BRANCH  20  21
ATOM     21  C   UNL     1       2.427  -4.238  -0.260  0.00  0.00    +0.173 C 
BRANCH  21  22
ATOM     22  C   UNL     1       2.411  -2.736  -0.138  0.00  0.00    +0.228 C 
ATOM     23  O   UNL     1       3.454  -2.116  -0.144  0.00  0.00    -0.275 OA
ATOM     24  N   UNL     1       1.239  -2.082  -0.021  0.00  0.00    -0.282 N 
ATOM     25  H   UNL     1       0.411  -2.580   0.065  0.00  0.00    +0.155 HD
BRANCH  24  26
ATOM     26  C   UNL     1       1.215  -0.680  -0.024  0.00  0.00    +0.072 A 
ATOM     27  C   UNL     1       2.237   0.031  -0.638  0.00  0.00    +0.029 A 
ATOM     28  C   UNL     1       2.213   1.412  -0.641  0.00  0.00    +0.043 A 
ATOM     29  C   UNL     1       1.170   2.090  -0.033  0.00  0.00    +0.161 A 
ATOM     30  C   UNL     1       0.147   1.384   0.581  0.00  0.00    +0.195 A 
ATOM     31  C   UNL     1       0.168  -0.001   0.586  0.00  0.00    +0.182 A 
ATOM     32  F   UNL     1      -0.829  -0.690   1.184  0.00  0.00    -0.200 F 
ATOM     33  F   UNL     1      -0.873   2.047   1.169  0.00  0.00    -0.199 F 
ATOM     34  F   UNL     1       1.150   3.441  -0.037  0.00  0.00    -0.202 F 
ENDBRANCH  24  26
ENDBRANCH  21  22
ENDBRANCH  20  21
ENDBRANCH  11  20
TORSDOF 8
