REMARK  Name = ZINC46368299
REMARK  7 active torsions:
REMARK  status: ('A' for Active; 'I' for Inactive)
REMARK    1  A    between atoms: C_1  and  C_2
REMARK    2  A    between atoms: N_7  and  C_9
REMARK    3  A    between atoms: C_9  and  C_11
REMARK    4  A    between atoms: C_9  and  C_12
REMARK    5  A    between atoms: C_12  and  N_13
REMARK    6  A    between atoms: N_16  and  N_17
REMARK    7  A    between atoms: C_18  and  C_20
REMARK                            x       y       z     vdW  Elec       q    Type
REMARK                         _______ _______ _______ _____ _____    ______ ____
ROOT
ATOM      1  N   UNL     1       3.088  -0.275   2.746  0.00  0.00    -0.300 N 
ATOM      2  C   UNL     1       4.226   0.444   2.821  0.00  0.00    +0.316 C 
ATOM      3  O   UNL     1       5.303  -0.114   2.747  0.00  0.00    -0.251 OA
ATOM      4  N   UNL     1       4.169   1.781   2.978  0.00  0.00    -0.218 N 
ATOM      5  H   UNL     1       2.229   0.176   2.737  0.00  0.00    +0.150 HD
ATOM      6  H   UNL     1       4.985   2.306   2.968  0.00  0.00    +0.174 HD
ENDROOT
BRANCH   4   7
ATOM      7  N   UNL     1       2.932   2.414   3.155  0.00  0.00    -0.233 N 
ATOM      8  C   UNL     1       2.863   3.759   3.198  0.00  0.00    +0.234 C 
ATOM      9  O   UNL     1       3.856   4.424   2.993  0.00  0.00    -0.274 OA
ATOM     10  H   UNL     1       2.124   1.884   3.246  0.00  0.00    +0.173 HD
BRANCH   8  11
ATOM     11  C   UNL     1       1.551   4.437   3.500  0.00  0.00    +0.099 C 
ATOM     12  C   UNL     1       0.511   4.056   2.433  0.00  0.00    +0.037 C 
ATOM     13  C   UNL     1      -0.724   4.982   2.545  0.00  0.00    +0.166 C 
ATOM     14  S   UNL     1      -0.009   6.526   3.242  0.00  0.00    -0.030 S 
ATOM     15  O   UNL     1      -0.584   6.767   4.519  0.00  0.00    -0.174 OA
ATOM     16  O   UNL     1      -0.053   7.545   2.252  0.00  0.00    -0.174 OA
ATOM     17  C   UNL     1       1.737   5.981   3.464  0.00  0.00    +0.178 C 
ENDBRANCH   8  11
ENDBRANCH   4   7
BRANCH   1  18
ATOM     18  C   UNL     1       3.148  -1.737   2.679  0.00  0.00    +0.090 C 
BRANCH  18  19
ATOM     19  C   UNL     1       1.730  -2.309   2.733  0.00  0.00    -0.054 C 
ATOM     20  C   UNL     1       0.963  -1.889   1.477  0.00  0.00    -0.012 C 
BRANCH  19  26
ATOM     21  C   UNL     1       1.981  -1.836   7.599  0.00  0.00    +0.005 C 
ATOM     22  C   UNL     1       1.156  -1.505   6.354  0.00  0.00    -0.031 C 
ATOM     23  C   UNL     1      -0.250  -2.094   6.500  0.00  0.00    -0.001 C 
ATOM     24  C   UNL     1      -1.041  -1.825   5.217  0.00  0.00    -0.018 C 
ATOM     25  C   UNL     1      -0.286  -2.417   4.025  0.00  0.00    -0.078 C 
ATOM     26  N   UNL     1       1.040  -1.795   3.923  0.00  0.00    +0.383 N 
ATOM     27  C   UNL     1       1.831  -2.108   5.119  0.00  0.00    -0.075 C 
ATOM     28  H   UNL     1       0.935  -0.794   3.843  0.00  0.00    -0.081 HD
ENDBRANCH  19  26
ENDBRANCH  18  19
ENDBRANCH   1  18
TORSDOF 5
