REMARK  Name = ZINC04155568
REMARK  8 active torsions:
REMARK  status: ('A' for Active; 'I' for Inactive)
REMARK    1  A    between atoms: C_1  and  C_2
REMARK    2  A    between atoms: C_7  and  C_8
REMARK    3  A    between atoms: C_8  and  C_9
REMARK    4  A    between atoms: C_20  and  C_21
REMARK    5  A    between atoms: C_20  and  N_50
REMARK    6  A    between atoms: C_21  and  C_22
REMARK    7  A    between atoms: C_21  and  C_23
REMARK    8  A    between atoms: C_21  and  O_25
REMARK                            x       y       z     vdW  Elec       q    Type
REMARK                         _______ _______ _______ _____ _____    ______ ____
ROOT
ATOM      1  C   UNL     1      -1.598   1.460  -0.590  0.00  0.00    +0.114 A 
ATOM      2  N   UNL     1      -0.864   1.250  -1.700  0.00  0.00    -0.310 N 
ATOM      3  H   UNL     1      -0.009   0.734  -1.647  0.00  0.00    +0.170 HD
ATOM      4  C   UNL     1      -1.286   1.741  -2.884  0.00  0.00    +0.253 A 
ATOM      5  O   UNL     1      -0.636   1.556  -3.900  0.00  0.00    -0.268 OA
ATOM      6  C   UNL     1      -2.491   2.477  -2.924  0.00  0.00    +0.022 A 
ATOM      7  C   UNL     1      -3.185   2.654  -1.773  0.00  0.00    +0.048 A 
ATOM      8  N   UNL     1      -2.712   2.138  -0.630  0.00  0.00    -0.238 NA
ATOM      9  C   UNL     1      -4.484   3.415  -1.738  0.00  0.00    +0.037 C 
ATOM     10  C   UNL     1      -4.630   4.257  -3.007  0.00  0.00    -0.072 C 
ATOM     11  C   UNL     1      -2.957   3.037  -4.240  0.00  0.00    -0.036 C 
ATOM     12  N   UNL     1      -4.390   3.374  -4.165  0.00  0.00    +0.385 N 
ATOM     13  H   UNL     1      -4.932   2.510  -4.046  0.00  0.00    -0.081 HD
ENDROOT
BRANCH   1  14
ATOM     14  C   UNL     1      -1.119   0.905   0.727  0.00  0.00    +0.109 C 
BRANCH  14  21
ATOM     15  C   UNL     1      -3.445  -0.743   1.194  0.00  0.00    +0.044 C 
ATOM     16  C   UNL     1      -3.210   0.484   2.036  0.00  0.00    -0.047 A 
ATOM     17  C   UNL     1      -4.107   0.821   3.033  0.00  0.00    +0.003 A 
ATOM     18  C   UNL     1      -3.892   1.947   3.805  0.00  0.00    +0.000 A 
ATOM     19  C   UNL     1      -2.779   2.736   3.581  0.00  0.00    +0.000 A 
ATOM     20  C   UNL     1      -1.879   2.396   2.589  0.00  0.00    +0.004 A 
ATOM     21  C   UNL     1      -2.097   1.273   1.812  0.00  0.00    -0.037 A 
ENDBRANCH  14  21
ENDBRANCH   1  14
BRANCH  12  22
ATOM     22  C   UNL     1      -4.818   4.044  -5.414  0.00  0.00    -0.039 C 
BRANCH  22  23
ATOM     23  C   UNL     1      -4.952   2.995  -6.519  0.00  0.00    +0.067 C 
ATOM     24  C   UNL     1      -5.880   1.873  -6.048  0.00  0.00    +0.044 C 
BRANCH  23  25
ATOM     25  C   UNL     1      -5.527   3.638  -7.755  0.00  0.00    -0.003 C 
ATOM     26  C   UNL     1      -4.846   3.631  -8.874  0.00  0.00    +0.006 C 
ENDBRANCH  23  25
BRANCH  23  27
ATOM     27  O   UNL     1      -3.664   2.452  -6.819  0.00  0.00    -0.387 OA
ATOM     28  H   UNL     1      -3.023   3.108  -7.125  0.00  0.00    +0.210 HD
ENDBRANCH  23  27
ENDBRANCH  22  23
ENDBRANCH  12  22
TORSDOF 6
