REMARK  Name = ZINC13012955
REMARK  12 active torsions:
REMARK  status: ('A' for Active; 'I' for Inactive)
REMARK    1  A    between atoms: C_1  and  C_2
REMARK    2  A    between atoms: C_2  and  N_61
REMARK    3  A    between atoms: C_3  and  C_4
REMARK    4  A    between atoms: C_3  and  N_61
REMARK    5  A    between atoms: C_5  and  C_6
REMARK    6  A    between atoms: C_5  and  N_61
REMARK    7  A    between atoms: C_11  and  C_12
REMARK    8  A    between atoms: C_12  and  N_13
REMARK    9  A    between atoms: C_14  and  C_16
REMARK   10  A    between atoms: C_16  and  N_17
REMARK   11  A    between atoms: C_20  and  C_24
REMARK   12  A    between atoms: C_20  and  C_25
REMARK                            x       y       z     vdW  Elec       q    Type
REMARK                         _______ _______ _______ _____ _____    ______ ____
ROOT
ATOM      1  N   UNL     1       2.163  -2.782  -2.090  0.00  0.00    -0.310 N 
ATOM      2  C   UNL     1       1.558  -1.587  -1.937  0.00  0.00    +0.231 C 
ATOM      3  O   UNL     1       1.133  -0.995  -2.906  0.00  0.00    -0.274 OA
ATOM      4  H   UNL     1       2.503  -3.256  -1.315  0.00  0.00    +0.149 HD
ENDROOT
BRANCH   1   5
ATOM      5  C   UNL     1       2.308  -3.365  -3.426  0.00  0.00    +0.139 C 
BRANCH   5  11
ATOM      6  C   UNL     1       2.310  -5.820  -2.943  0.00  0.00    -0.059 A 
ATOM      7  C   UNL     1       2.957  -7.038  -2.848  0.00  0.00    +0.002 A 
ATOM      8  C   UNL     1       4.307  -7.128  -3.131  0.00  0.00    +0.000 A 
ATOM      9  C   UNL     1       5.010  -6.000  -3.510  0.00  0.00    +0.000 A 
ATOM     10  C   UNL     1       4.362  -4.783  -3.610  0.00  0.00    +0.005 A 
ATOM     11  C   UNL     1       3.013  -4.692  -3.322  0.00  0.00    -0.029 A 
BRANCH   6  12
ATOM     12  C   UNL     1       0.838  -5.723  -2.635  0.00  0.00    -0.043 C 
BRANCH  12  13
ATOM     13  N   UNL     1       0.085  -5.692  -3.907  0.00  0.00    +0.382 N 
ATOM     14  H   UNL     1       0.480  -4.962  -4.511  0.00  0.00    -0.081 HD
BRANCH  13  16
ATOM     15  C   UNL     1      -0.405  -8.109  -3.734  0.00  0.00    -0.017 C 
ATOM     16  C   UNL     1       0.200  -6.997  -4.593  0.00  0.00    -0.082 C 
ENDBRANCH  13  16
BRANCH  13  17
ATOM     17  C   UNL     1      -1.336  -5.382  -3.645  0.00  0.00    -0.082 C 
ATOM     18  C   UNL     1      -2.007  -5.001  -4.966  0.00  0.00    -0.017 C 
ENDBRANCH  13  17
ENDBRANCH  12  13
ENDBRANCH   6  12
ENDBRANCH   5  11
ENDBRANCH   1   5
BRANCH   2  19
ATOM     19  C   UNL     1       1.410  -0.988  -0.562  0.00  0.00    +0.213 C 
BRANCH  19  20
ATOM     20  N   UNL     1       0.724   0.303  -0.664  0.00  0.00    -0.215 N 
ATOM     21  C   UNL     1      -0.613   0.457  -0.599  0.00  0.00    +0.251 C 
ATOM     22  O   UNL     1      -1.444  -0.413  -0.452  0.00  0.00    -0.272 OA
ATOM     23  C   UNL     1      -0.862   1.945  -0.748  0.00  0.00    +0.135 C 
ATOM     24  N   UNL     1       0.491   2.509  -0.894  0.00  0.00    -0.281 N 
ATOM     25  C   UNL     1       1.348   1.474  -0.832  0.00  0.00    +0.310 C 
ATOM     26  O   UNL     1       2.555   1.591  -0.919  0.00  0.00    -0.252 OA
ATOM     27  C   UNL     1      -1.547   2.504   0.500  0.00  0.00    +0.047 C 
ATOM     28  H   UNL     1       0.719   3.445  -1.012  0.00  0.00    +0.152 HD
BRANCH  23  29
ATOM     29  C   UNL     1      -1.688   2.223  -1.977  0.00  0.00    -0.015 A 
ATOM     30  C   UNL     1      -2.595   1.282  -2.428  0.00  0.00    +0.009 A 
ATOM     31  C   UNL     1      -3.356   1.538  -3.553  0.00  0.00    +0.039 A 
ATOM     32  C   UNL     1      -3.203   2.734  -4.234  0.00  0.00    +0.123 A 
ATOM     33  C   UNL     1      -2.291   3.674  -3.784  0.00  0.00    +0.039 A 
ATOM     34  C   UNL     1      -1.534   3.417  -2.657  0.00  0.00    +0.009 A 
ATOM     35  F   UNL     1      -3.944   2.984  -5.336  0.00  0.00    -0.205 F 
ENDBRANCH  23  29
ENDBRANCH  19  20
ENDBRANCH   2  19
TORSDOF 9
