REMARK  Name = ZINC13655068
REMARK  7 active torsions:
REMARK  status: ('A' for Active; 'I' for Inactive)
REMARK    1  A    between atoms: C_1  and  C_2
REMARK    2  A    between atoms: C_2  and  C_3
REMARK    3  A    between atoms: C_2  and  N_45
REMARK    4  A    between atoms: C_9  and  N_14
REMARK    5  A    between atoms: C_10  and  C_11
REMARK    6  A    between atoms: C_15  and  C_17
REMARK    7  A    between atoms: N_21  and  C_22
REMARK                            x       y       z     vdW  Elec       q    Type
REMARK                         _______ _______ _______ _____ _____    ______ ____
ROOT
ATOM      1  C   UNL     1      -1.481  11.583  -0.111  0.00  0.00    -0.073 C 
ATOM      2  C   UNL     1      -0.319  10.618   0.141  0.00  0.00    +0.018 C 
ATOM      3  C   UNL     1      -0.878   9.201   0.179  0.00  0.00    -0.027 A 
ATOM      4  C   UNL     1      -2.204   8.999   0.360  0.00  0.00    -0.021 A 
ATOM      5  S   UNL     1      -2.402   7.242   0.326  0.00  0.00    -0.079 S 
ATOM      6  C   UNL     1      -0.749   6.779   0.086  0.00  0.00    +0.085 A 
ATOM      7  C   UNL     1      -0.083   7.997   0.031  0.00  0.00    +0.068 A 
ATOM      8  C   UNL     1      -3.247  10.057   0.540  0.00  0.00    -0.035 C 
ATOM      9  N   UNL     1      -2.553  11.326   0.872  0.00  0.00    +0.384 N 
ATOM     10  H   UNL     1      -2.137  11.244   1.807  0.00  0.00    -0.081 HD
ENDROOT
BRANCH   7  11
ATOM     11  C   UNL     1       1.367   8.063  -0.171  0.00  0.00    +0.244 C 
ATOM     12  O   UNL     1       1.823   8.122  -1.298  0.00  0.00    -0.270 OA
ATOM     13  N   UNL     1       2.196   8.058   0.892  0.00  0.00    -0.325 N 
ATOM     14  H   UNL     1       1.833   8.011   1.790  0.00  0.00    +0.145 HD
ATOM     15  H   UNL     1       3.156   8.102   0.759  0.00  0.00    +0.145 HD
ENDBRANCH   7  11
BRANCH   6  16
ATOM     16  N   UNL     1      -0.221   5.503  -0.028  0.00  0.00    -0.274 N 
ATOM     17  C   UNL     1      -1.030   4.429   0.053  0.00  0.00    +0.267 C 
ATOM     18  O   UNL     1      -2.235   4.580   0.129  0.00  0.00    -0.268 OA
ATOM     19  H   UNL     1       0.732   5.383  -0.165  0.00  0.00    +0.156 HD
BRANCH  17  20
ATOM     20  C   UNL     1      -0.457   3.074   0.049  0.00  0.00    +0.123 A 
ATOM     21  C   UNL     1       0.886   2.740   0.071  0.00  0.00    +0.054 A 
ATOM     22  C   UNL     1       0.920   1.344   0.053  0.00  0.00    +0.135 A 
ATOM     23  N   UNL     1      -0.315   0.912   0.030  0.00  0.00    -0.179 NA
ATOM     24  N   UNL     1      -1.144   1.893   0.027  0.00  0.00    -0.262 N 
ATOM     25  C   UNL     1      -2.603   1.766   0.002  0.00  0.00    +0.173 C 
ENDBRANCH  17  20
ENDBRANCH   6  16
BRANCH   9  27
ATOM     26  C   UNL     1      -4.175  12.586  -0.503  0.00  0.00    -0.014 C 
ATOM     27  C   UNL     1      -3.519  12.445   0.872  0.00  0.00    -0.074 C 
ATOM     28  C   UNL     1      -4.596  12.174   1.925  0.00  0.00    -0.014 C 
ENDBRANCH   9  27
TORSDOF 4
