REMARK  Name = ZINC20338798
REMARK  7 active torsions:
REMARK  status: ('A' for Active; 'I' for Inactive)
REMARK    1  A    between atoms: C_1  and  C_2
REMARK    2  A    between atoms: C_5  and  C_8
REMARK    3  A    between atoms: N_12  and  C_21
REMARK    4  A    between atoms: C_15  and  N_20
REMARK    5  A    between atoms: C_21  and  C_22
REMARK    6  A    between atoms: C_22  and  C_23
REMARK    7  A    between atoms: C_23  and  O_24
REMARK                            x       y       z     vdW  Elec       q    Type
REMARK                         _______ _______ _______ _____ _____    ______ ____
ROOT
ATOM      1  C   UNL     1      -0.542   3.987   6.393  0.00  0.00    +0.059 C 
ATOM      2  C   UNL     1      -1.158   3.350   5.372  0.00  0.00    +0.191 C 
ATOM      3  C   UNL     1      -0.526   3.241   4.040  0.00  0.00    +0.286 C 
ATOM      4  O   UNL     1       0.298   4.053   3.663  0.00  0.00    -0.266 OA
ATOM      5  N   UNL     1      -0.902   2.204   3.252  0.00  0.00    -0.262 N 
ATOM      6  C   UNL     1      -1.839   1.287   3.745  0.00  0.00    +0.081 A 
ATOM      7  C   UNL     1      -2.033   0.078   3.094  0.00  0.00    +0.050 A 
ATOM      8  C   UNL     1      -2.962  -0.830   3.584  0.00  0.00    +0.027 A 
ATOM      9  C   UNL     1      -3.696  -0.528   4.725  0.00  0.00    +0.026 A 
ATOM     10  C   UNL     1      -3.503   0.677   5.374  0.00  0.00    +0.050 A 
ATOM     11  C   UNL     1      -2.579   1.586   4.888  0.00  0.00    +0.150 A 
ATOM     12  O   UNL     1      -2.390   2.776   5.527  0.00  0.00    -0.449 OA
ENDROOT
BRANCH   1  17
ATOM     13  C   UNL     1       4.925   5.678   5.848  0.00  0.00    +0.044 C 
ATOM     14  C   UNL     1       3.492   5.234   5.991  0.00  0.00    -0.050 A 
ATOM     15  C   UNL     1       2.592   6.026   6.684  0.00  0.00    +0.004 A 
ATOM     16  C   UNL     1       1.279   5.627   6.819  0.00  0.00    +0.008 A 
ATOM     17  C   UNL     1       0.857   4.420   6.253  0.00  0.00    -0.021 A 
ATOM     18  C   UNL     1       1.774   3.623   5.559  0.00  0.00    +0.008 A 
ATOM     19  C   UNL     1       3.082   4.038   5.428  0.00  0.00    +0.004 A 
ENDBRANCH   1  17
BRANCH   8  20
ATOM     20  N   UNL     1      -3.159  -2.050   2.929  0.00  0.00    -0.358 N 
ATOM     21  H   UNL     1      -3.895  -2.770   3.317  0.00  0.00    +0.142 HD
ATOM     22  H   UNL     1      -2.579  -2.289   2.026  0.00  0.00    +0.142 HD
ENDBRANCH   8  20
BRANCH   5  23
ATOM     23  C   UNL     1      -0.334   2.042   1.912  0.00  0.00    +0.116 C 
BRANCH  23  24
ATOM     24  C   UNL     1      -1.205   2.784   0.896  0.00  0.00    +0.047 C 
BRANCH  24  25
ATOM     25  C   UNL     1      -0.611   2.614  -0.504  0.00  0.00    +0.157 C 
BRANCH  25  26
ATOM     26  O   UNL     1      -1.425   3.307  -1.454  0.00  0.00    -0.395 OA
ATOM     27  H   UNL     1      -1.155   3.298  -2.520  0.00  0.00    +0.209 HD
ENDBRANCH  25  26
ENDBRANCH  24  25
ENDBRANCH  23  24
ENDBRANCH   5  23
TORSDOF 6
