REMARK  Name = ZINC62733562
REMARK  11 active torsions:
REMARK  status: ('A' for Active; 'I' for Inactive)
REMARK    1  A    between atoms: C_1  and  C_2
REMARK    2  A    between atoms: C_2  and  C_3
REMARK    3  A    between atoms: C_3  and  C_5
REMARK    4  A    between atoms: C_3  and  O_8
REMARK    5  A    between atoms: O_8  and  C_9
REMARK    6  A    between atoms: C_10  and  C_16
REMARK    7  A    between atoms: C_16  and  N_17
REMARK    8  A    between atoms: N_17  and  C_18
REMARK    9  A    between atoms: C_18  and  C_19
REMARK   10  A    between atoms: C_18  and  C_20
REMARK   11  A    between atoms: C_18  and  C_21
REMARK                            x       y       z     vdW  Elec       q    Type
REMARK                         _______ _______ _______ _____ _____    ______ ____
ROOT
ATOM      1  C   UNL     1      -3.402   0.370   1.093  0.00  0.00    +0.137 A 
ATOM      2  C   UNL     1      -3.803   1.686   0.915  0.00  0.00    -0.022 A 
ATOM      3  C   UNL     1      -5.137   2.023   1.032  0.00  0.00    +0.005 A 
ATOM      4  C   UNL     1      -6.074   1.049   1.327  0.00  0.00    +0.002 A 
ATOM      5  C   UNL     1      -5.678  -0.263   1.504  0.00  0.00    +0.019 A 
ATOM      6  C   UNL     1      -4.344  -0.606   1.382  0.00  0.00    +0.060 A 
ATOM      7 BR   UNL     1      -3.804  -2.403   1.617  0.00  0.00    -0.047 Br
ENDROOT
BRANCH   1   8
ATOM      8  O   UNL     1      -2.089   0.037   0.977  0.00  0.00    -0.478 OA
BRANCH   8   9
ATOM      9  C   UNL     1      -1.456  -0.515   2.134  0.00  0.00    +0.258 C 
BRANCH   9  10
ATOM     10  C   UNL     1      -1.012   0.602   3.043  0.00  0.00    +0.251 C 
ATOM     11  O   UNL     1      -1.175   1.756   2.711  0.00  0.00    -0.272 OA
ATOM     12  N   UNL     1      -0.432   0.317   4.226  0.00  0.00    -0.326 N 
ATOM     13  H   UNL     1      -0.301  -0.607   4.492  0.00  0.00    +0.145 HD
ATOM     14  H   UNL     1      -0.145   1.035   4.812  0.00  0.00    +0.145 HD
ENDBRANCH   9  10
BRANCH   9  16
ATOM     15  C   UNL     1      -0.698  -2.506   0.829  0.00  0.00    +0.008 C 
ATOM     16  C   UNL     1      -0.240  -1.339   1.706  0.00  0.00    +0.051 C 
ENDBRANCH   9  16
ENDBRANCH   8   9
ENDBRANCH   1   8
BRANCH   2  17
ATOM     17  C   UNL     1      -2.783   2.748   0.594  0.00  0.00    -0.042 C 
BRANCH  17  18
ATOM     18  N   UNL     1      -2.484   2.723  -0.844  0.00  0.00    +0.385 N 
ATOM     19  H   UNL     1      -2.194   1.794  -1.111  0.00  0.00    -0.085 HD
ATOM     20  H   UNL     1      -3.310   2.979  -1.364  0.00  0.00    -0.085 HD
BRANCH  18  21
ATOM     21  C   UNL     1      -1.406   3.676  -1.137  0.00  0.00    -0.077 C 
ATOM     22  C   UNL     1      -0.117   3.214  -0.455  0.00  0.00    -0.011 C 
ATOM     23  C   UNL     1      -1.185   3.746  -2.650  0.00  0.00    -0.011 C 
ATOM     24  C   UNL     1      -1.792   5.061  -0.614  0.00  0.00    -0.011 C 
ENDBRANCH  18  21
ENDBRANCH  17  18
ENDBRANCH   2  17
TORSDOF 7
