REMARK  Name = ZINC01323514
REMARK  9 active torsions:
REMARK  status: ('A' for Active; 'I' for Inactive)
REMARK    1  A    between atoms: C_1  and  C_2
REMARK    2  A    between atoms: C_2  and  C_3
REMARK    3  A    between atoms: N_5  and  C_6
REMARK    4  A    between atoms: C_6  and  C_7
REMARK    5  A    between atoms: C_7  and  C_8
REMARK    6  A    between atoms: C_17  and  C_18
REMARK    7  A    between atoms: N_25  and  C_28
REMARK    8  A    between atoms: C_33  and  O_34
REMARK    9  A    between atoms: O_34  and  C_35
REMARK                            x       y       z     vdW  Elec       q    Type
REMARK                         _______ _______ _______ _____ _____    ______ ____
ROOT
ATOM      1  C   UNL     1       2.400  -4.309  -4.217  0.00  0.00    -0.013 A 
ATOM      2  C   UNL     1       2.010  -4.276  -5.574  0.00  0.00    +0.003 A 
ATOM      3  C   UNL     1       0.761  -4.218  -6.213  0.00  0.00    +0.010 A 
ATOM      4  C   UNL     1       0.697  -4.200  -7.575  0.00  0.00    +0.001 A 
ATOM      5  C   UNL     1       1.857  -4.239  -8.339  0.00  0.00    +0.002 A 
ATOM      6  C   UNL     1       3.094  -4.296  -7.737  0.00  0.00    +0.026 A 
ATOM      7  C   UNL     1       3.188  -4.316  -6.348  0.00  0.00    +0.047 A 
ATOM      8  N   UNL     1       4.256  -4.370  -5.482  0.00  0.00    -0.354 N 
ATOM      9  H   UNL     1       5.190  -4.406  -5.740  0.00  0.00    +0.166 HD
ATOM     10  C   UNL     1       3.779  -4.360  -4.183  0.00  0.00    +0.044 A 
ENDROOT
BRANCH  10  11
ATOM     11  C   UNL     1       4.570  -4.399  -3.019  0.00  0.00    +0.044 C 
ATOM     12  C   UNL     1       5.644  -5.278  -2.937  0.00  0.00    +0.103 C 
ATOM     13  C   UNL     1       5.872  -6.309  -3.960  0.00  0.00    +0.274 C 
ATOM     14  O   UNL     1       5.040  -6.430  -5.016  0.00  0.00    -0.268 OA
ATOM     15  N   UNL     1       6.912  -7.113  -3.823  0.00  0.00    -0.153 NA
ATOM     16  C   UNL     1       7.749  -7.017  -2.794  0.00  0.00    +0.171 C 
ATOM     17  S   UNL     1       9.064  -8.111  -2.715  0.00  0.00    -0.016 S 
ATOM     18  N   UNL     1       7.620  -6.110  -1.815  0.00  0.00    -0.212 N 
ATOM     19  C   UNL     1       6.608  -5.216  -1.822  0.00  0.00    +0.262 C 
ATOM     20  O   UNL     1       6.493  -4.388  -0.937  0.00  0.00    -0.269 OA
BRANCH  18  21
ATOM     21  C   UNL     1       8.553  -6.086  -0.769  0.00  0.00    +0.085 A 
ATOM     22  C   UNL     1       9.692  -5.301  -0.871  0.00  0.00    +0.027 A 
ATOM     23  C   UNL     1      10.611  -5.279   0.161  0.00  0.00    +0.002 A 
ATOM     24  C   UNL     1      10.399  -6.039   1.297  0.00  0.00    +0.004 A 
ATOM     25  C   UNL     1       9.267  -6.825   1.405  0.00  0.00    +0.047 A 
ATOM     26  C   UNL     1       8.337  -6.847   0.378  0.00  0.00    +0.142 A 
BRANCH  26  27
ATOM     27  O   UNL     1       7.220  -7.615   0.486  0.00  0.00    -0.493 OA
ATOM     28  C   UNL     1       7.065  -8.368   1.690  0.00  0.00    +0.277 C 
ENDBRANCH  26  27
ENDBRANCH  18  21
ENDBRANCH  10  11
BRANCH   1  29
ATOM     29  C   UNL     1       1.480  -4.285  -3.024  0.00  0.00    +0.056 C 
BRANCH  29  30
ATOM     30  C   UNL     1       1.222  -2.835  -2.608  0.00  0.00    +0.109 C 
BRANCH  30  33
ATOM     31  C   UNL     1      -0.041  -1.635  -0.905  0.00  0.00    +0.213 C 
ATOM     32  O   UNL     1       0.368  -0.595  -1.375  0.00  0.00    -0.276 OA
ATOM     33  N   UNL     1       0.327  -2.812  -1.448  0.00  0.00    -0.315 N 
ATOM     34  H   UNL     1      -0.001  -3.644  -1.072  0.00  0.00    +0.149 HD
BRANCH  31  36
ATOM     35  C   UNL     1      -1.219  -0.162   0.705  0.00  0.00    +0.013 C 
ATOM     36  C   UNL     1      -0.962  -1.611   0.288  0.00  0.00    +0.092 C 
ENDBRANCH  31  36
ENDBRANCH  30  33
ENDBRANCH  29  30
ENDBRANCH   1  29
TORSDOF 7
