REMARK  Name = ZINC42108192
REMARK  8 active torsions:
REMARK  status: ('A' for Active; 'I' for Inactive)
REMARK    1  A    between atoms: C_1  and  C_2
REMARK    2  A    between atoms: C_4  and  N_9
REMARK    3  A    between atoms: N_9  and  C_10
REMARK    4  A    between atoms: C_10  and  C_11
REMARK    5  A    between atoms: C_11  and  S_12
REMARK    6  A    between atoms: S_12  and  N_15
REMARK    7  A    between atoms: C_17  and  C_24
REMARK    8  A    between atoms: C_20  and  C_23
REMARK                            x       y       z     vdW  Elec       q    Type
REMARK                         _______ _______ _______ _____ _____    ______ ____
ROOT
ATOM      1  N   UNL     1       0.030  -2.826  -2.330  0.00  0.00    -0.327 N 
ATOM      2  H   UNL     1       0.043  -3.795  -2.296  0.00  0.00    +0.148 HD
ENDROOT
BRANCH   1   6
ATOM      3  C   UNL     1      -0.018   1.503   0.010  0.00  0.00    +0.063 C 
ATOM      4  C   UNL     1       0.002  -0.004   0.002  0.00  0.00    +0.019 A 
ATOM      5  C   UNL     1       0.006  -0.696  -1.194  0.00  0.00    +0.064 A 
ATOM      6  C   UNL     1       0.026  -2.091  -1.156  0.00  0.00    +0.124 A 
ATOM      7  N   UNL     1       0.040  -2.705   0.023  0.00  0.00    -0.201 NA
ATOM      8  C   UNL     1       0.035  -2.005   1.148  0.00  0.00    +0.192 A 
ATOM      9  N   UNL     1       0.022  -0.680   1.141  0.00  0.00    -0.332 N 
ATOM     10  N   UNL     1       0.051  -2.674   2.359  0.00  0.00    -0.329 N 
ATOM     11  H   UNL     1       0.064  -3.643   2.377  0.00  0.00    +0.145 HD
ATOM     12  H   UNL     1       0.048  -2.173   3.190  0.00  0.00    +0.145 HD
ATOM     13  H   UNL     1       0.023  -0.198   1.983  0.00  0.00    +0.168 HD
ENDBRANCH   1   6
BRANCH   1  14
ATOM     14  C   UNL     1       0.013  -2.139  -3.624  0.00  0.00    +0.127 C 
BRANCH  14  15
ATOM     15  C   UNL     1       0.022  -3.174  -4.751  0.00  0.00    +0.204 C 
BRANCH  15  16
ATOM     16  S   UNL     1       0.002  -2.324  -6.353  0.00  0.00    +0.033 S 
ATOM     17  O   UNL     1      -1.243  -1.665  -6.542  0.00  0.00    -0.158 OA
ATOM     18  O   UNL     1       1.226  -1.631  -6.555  0.00  0.00    -0.158 OA
BRANCH  16  19
ATOM     19  N   UNL     1       0.013  -3.538  -7.480  0.00  0.00    -0.176 NA
ATOM     20  C   UNL     1       1.279  -4.080  -7.997  0.00  0.00    +0.140 C 
ATOM     21  C   UNL     1       1.215  -4.080  -9.528  0.00  0.00    +0.131 C 
ATOM     22  O   UNL     1       0.021  -4.745  -9.949  0.00  0.00    -0.371 OA
ATOM     23  C   UNL     1      -1.185  -4.106  -9.524  0.00  0.00    +0.131 C 
ATOM     24  C   UNL     1      -1.244  -4.110  -7.988  0.00  0.00    +0.140 C 
ATOM     25  C   UNL     1      -2.390  -4.866 -10.083  0.00  0.00    +0.039 C 
ATOM     26  C   UNL     1       2.435  -4.814 -10.091  0.00  0.00    +0.039 C 
ENDBRANCH  16  19
ENDBRANCH  15  16
ENDBRANCH  14  15
ENDBRANCH   1  14
TORSDOF 5
