REMARK  Name = ZINC39678985
REMARK  10 active torsions:
REMARK  status: ('A' for Active; 'I' for Inactive)
REMARK    1  A    between atoms: C_1  and  C_2
REMARK    2  A    between atoms: C_6  and  C_9
REMARK    3  A    between atoms: C_13  and  C_22
REMARK    4  A    between atoms: N_24  and  C_25
REMARK    5  A    between atoms: C_25  and  C_26
REMARK    6  A    between atoms: C_26  and  C_27
REMARK    7  A    between atoms: C_27  and  C_28
REMARK    8  A    between atoms: C_28  and  N_29
REMARK    9  A    between atoms: N_29  and  C_30
REMARK   10  A    between atoms: N_29  and  C_31
REMARK                            x       y       z     vdW  Elec       q    Type
REMARK                         _______ _______ _______ _____ _____    ______ ____
ROOT
ATOM      1  C   UNL     1      -0.088  -2.611   2.279  0.00  0.00    +0.252 C 
ATOM      2  O   UNL     1       1.017  -2.828   2.738  0.00  0.00    -0.270 OA
ATOM      3  N   UNL     1      -1.185  -3.053   2.926  0.00  0.00    -0.296 N 
ATOM      4  C   UNL     1      -2.602  -2.893   2.525  0.00  0.00    +0.121 C 
ATOM      5  C   UNL     1      -3.264  -4.243   2.883  0.00  0.00    +0.100 C 
ATOM      6  C   UNL     1      -2.370  -4.838   3.984  0.00  0.00    -0.004 C 
ATOM      7  C   UNL     1      -1.245  -3.814   4.197  0.00  0.00    +0.115 C 
ATOM      8  C   UNL     1      -3.168  -5.022   5.271  0.00  0.00    -0.010 C 
ATOM      9  C   UNL     1      -2.274  -5.668   6.333  0.00  0.00    -0.082 C 
ATOM     10  N   UNL     1      -1.790  -6.965   5.845  0.00  0.00    +0.379 N 
ATOM     11  C   UNL     1      -0.946  -6.770   4.660  0.00  0.00    -0.082 C 
ATOM     12  C   UNL     1      -1.784  -6.170   3.527  0.00  0.00    -0.010 C 
ATOM     13  H   UNL     1      -1.251  -7.416   6.569  0.00  0.00    -0.086 HD
ATOM     14  H   UNL     1      -2.578  -7.547   5.603  0.00  0.00    -0.086 HD
ENDROOT
BRANCH   1  20
ATOM     15  C   UNL     1      -0.610   1.724  -0.142  0.00  0.00    +0.047 C 
ATOM     16  C   UNL     1      -0.480   0.223  -0.158  0.00  0.00    -0.014 A 
ATOM     17  C   UNL     1      -0.493  -0.459  -1.361  0.00  0.00    +0.009 A 
ATOM     18  C   UNL     1      -0.374  -1.836  -1.387  0.00  0.00    +0.039 A 
ATOM     19  C   UNL     1      -0.242  -2.545  -0.207  0.00  0.00    +0.138 A 
ATOM     20  C   UNL     1      -0.229  -1.863   1.015  0.00  0.00    +0.107 A 
ATOM     21  C   UNL     1      -0.343  -0.469   1.031  0.00  0.00    +0.141 A 
ATOM     22  F   UNL     1      -0.325   0.199   2.205  0.00  0.00    -0.204 F 
ATOM     23  F   UNL     1      -0.128  -3.890  -0.234  0.00  0.00    -0.205 F 
ENDBRANCH   1  20
BRANCH   5  24
ATOM     24  C   UNL     1      -3.292  -5.150   1.680  0.00  0.00    +0.218 C 
ATOM     25  O   UNL     1      -2.422  -5.067   0.838  0.00  0.00    -0.275 OA
ATOM     26  N   UNL     1      -4.283  -6.052   1.539  0.00  0.00    -0.315 N 
ATOM     27  H   UNL     1      -4.978  -6.118   2.212  0.00  0.00    +0.149 HD
BRANCH  26  28
ATOM     28  C   UNL     1      -4.310  -6.934   0.369  0.00  0.00    +0.104 C 
BRANCH  28  29
ATOM     29  C   UNL     1      -5.529  -7.854   0.453  0.00  0.00    +0.017 C 
BRANCH  29  30
ATOM     30  C   UNL     1      -5.557  -8.775  -0.769  0.00  0.00    -0.017 C 
BRANCH  30  31
ATOM     31  C   UNL     1      -6.776  -9.696  -0.685  0.00  0.00    -0.080 C 
BRANCH  31  32
ATOM     32  N   UNL     1      -6.803 -10.580  -1.859  0.00  0.00    +0.376 N 
ATOM     33  C   UNL     1      -5.638 -11.474  -1.825  0.00  0.00    -0.097 C 
ATOM     34  C   UNL     1      -8.035 -11.380  -1.840  0.00  0.00    -0.097 C 
ATOM     35  H   UNL     1      -6.776 -10.023  -2.700  0.00  0.00    -0.083 HD
ENDBRANCH  31  32
ENDBRANCH  30  31
ENDBRANCH  29  30
ENDBRANCH  28  29
ENDBRANCH  26  28
ENDBRANCH   5  24
TORSDOF 7
