REMARK  Name = ZINC05501047
REMARK  7 active torsions:
REMARK  status: ('A' for Active; 'I' for Inactive)
REMARK    1  A    between atoms: C_1  and  O_2
REMARK    2  A    between atoms: O_2  and  C_3
REMARK    3  A    between atoms: C_3  and  O_25
REMARK    4  A    between atoms: C_4  and  C_23
REMARK    5  A    between atoms: C_10  and  C_17
REMARK    6  A    between atoms: C_12  and  C_15
REMARK    7  A    between atoms: O_25  and  C_26
REMARK                            x       y       z     vdW  Elec       q    Type
REMARK                         _______ _______ _______ _____ _____    ______ ____
ROOT
ATOM      1  C   UNL     1       1.087   3.628   1.020  0.00  0.00    +0.277 C 
ATOM      2  C   UNL     1       1.227   2.170   0.523  0.00  0.00    +0.181 C 
ATOM      3  C   UNL     1       1.386   2.113  -0.968  0.00  0.00    -0.025 C 
ATOM      4  C   UNL     1       0.422   1.773  -1.811  0.00  0.00    -0.011 C 
ATOM      5  C   UNL     1       0.901   1.805  -3.237  0.00  0.00    +0.049 C 
ATOM      6  C   UNL     1       2.208   2.632  -3.194  0.00  0.00    +0.010 C 
ATOM      7  C   UNL     1       2.656   2.427  -1.729  0.00  0.00    +0.034 C 
ATOM      8  C   UNL     1      -1.234   1.942  -0.032  0.00  0.00    +0.113 C 
ATOM      9  C   UNL     1      -0.136   1.600   0.977  0.00  0.00    +0.160 C 
ATOM     10  C   UNL     1      -0.405   2.396   2.248  0.00  0.00    +0.094 C 
ATOM     11  N   UNL     1      -1.247   2.002   3.254  0.00  0.00    -0.347 N 
ATOM     12  H   UNL     1      -1.724   1.160   3.185  0.00  0.00    +0.143 HD
ATOM     13  H   UNL     1      -1.367   2.564   4.035  0.00  0.00    +0.143 HD
ATOM     14  N   UNL     1      -0.891   1.423  -1.394  0.00  0.00    -0.401 NA
ATOM     15  H   UNL     1      -0.967   0.399  -1.383  0.00  0.00    +0.124 HD
ATOM     16  H   UNL     1      -1.562   1.808  -2.070  0.00  0.00    +0.124 HD
ATOM     17  N   UNL     1       0.274   3.504   2.254  0.00  0.00    -0.324 N 
ATOM     18  H   UNL     1       0.250   4.199   3.010  0.00  0.00    +0.166 HD
ENDROOT
BRANCH   8  19
ATOM     19  C   UNL     1      -1.428   3.436  -0.071  0.00  0.00    -0.027 A 
ATOM     20  C   UNL     1      -1.772   4.119   1.081  0.00  0.00    +0.005 A 
ATOM     21  C   UNL     1      -1.946   5.490   1.046  0.00  0.00    +0.000 A 
ATOM     22  C   UNL     1      -1.785   6.177  -0.142  0.00  0.00    +0.000 A 
ATOM     23  C   UNL     1      -1.446   5.494  -1.295  0.00  0.00    +0.000 A 
ATOM     24  C   UNL     1      -1.268   4.124  -1.260  0.00  0.00    +0.005 A 
ENDBRANCH   8  19
BRANCH   1  26
ATOM     25  C   UNL     1       2.315   5.483   1.912  0.00  0.00    +0.199 C 
ATOM     26  O   UNL     1       2.368   4.181   1.325  0.00  0.00    -0.334 OA
ENDBRANCH   1  26
BRANCH   9  27
ATOM     27  C   UNL     1      -0.066   0.153   1.237  0.00  0.00    +0.081 C 
ATOM     28  N   UNL     1      -0.011  -0.964   1.438  0.00  0.00    -0.195 NA
ENDBRANCH   9  27
BRANCH   2  29
ATOM     29  C   UNL     1       2.340   1.484   1.198  0.00  0.00    +0.083 C 
ATOM     30  N   UNL     1       3.200   0.954   1.719  0.00  0.00    -0.195 NA
ENDBRANCH   2  29
BRANCH   1  31
ATOM     31  O   UNL     1       0.412   4.429   0.048  0.00  0.00    -0.334 OA
ATOM     32  C   UNL     1       1.227   4.803  -1.064  0.00  0.00    +0.199 C 
ENDBRANCH   1  31
TORSDOF 5
