REMARK  Name = ZINC08828908
REMARK  11 active torsions:
REMARK  status: ('A' for Active; 'I' for Inactive)
REMARK    1  A    between atoms: C_1  and  C_2
REMARK    2  A    between atoms: C_2  and  C_3
REMARK    3  A    between atoms: C_3  and  C_4
REMARK    4  A    between atoms: C_4  and  C_5
REMARK    5  A    between atoms: C_4  and  C_8
REMARK    6  A    between atoms: C_5  and  C_6
REMARK    7  A    between atoms: C_6  and  C_7
REMARK    8  A    between atoms: N_10  and  N_11
REMARK    9  A    between atoms: N_11  and  C_12
REMARK   10  A    between atoms: N_18  and  C_25
REMARK   11  A    between atoms: N_21  and  C_24
REMARK                            x       y       z     vdW  Elec       q    Type
REMARK                         _______ _______ _______ _____ _____    ______ ____
ROOT
ATOM      1  C   UNL     1      -4.804  -5.124   2.333  0.00  0.00    +0.118 A 
ATOM      2  C   UNL     1      -3.889  -6.129   2.252  0.00  0.00    +0.094 A 
ATOM      3  C   UNL     1      -4.208  -7.405   2.760  0.00  0.00    +0.198 A 
ATOM      4  C   UNL     1      -5.532  -7.588   3.360  0.00  0.00    +0.127 A 
ATOM      5  C   UNL     1      -6.412  -6.508   3.405  0.00  0.00    +0.132 A 
ATOM      6  N   UNL     1      -6.032  -5.307   2.900  0.00  0.00    -0.328 N 
ATOM      7  N   UNL     1      -7.648  -6.688   3.968  0.00  0.00    -0.282 N 
ATOM      8  C   UNL     1      -8.009  -7.881   4.470  0.00  0.00    +0.333 A 
ATOM      9  O   UNL     1      -9.116  -7.996   4.961  0.00  0.00    -0.246 OA
ATOM     10  N   UNL     1      -7.199  -8.952   4.452  0.00  0.00    -0.263 N 
ATOM     11  C   UNL     1      -5.960  -8.871   3.916  0.00  0.00    +0.269 A 
ATOM     12  O   UNL     1      -5.222  -9.839   3.897  0.00  0.00    -0.267 OA
ATOM     13  C   UNL     1      -7.661 -10.221   5.019  0.00  0.00    +0.157 C 
ATOM     14  C   UNL     1      -8.588  -5.566   4.024  0.00  0.00    +0.155 C 
ATOM     15  O   UNL     1      -3.408  -8.327   2.702  0.00  0.00    -0.287 OA
ATOM     16  H   UNL     1      -6.651  -4.560   2.939  0.00  0.00    +0.169 HD
ENDROOT
BRANCH   1  17
ATOM     17  N   UNL     1      -4.479  -3.885   1.833  0.00  0.00    -0.250 N 
ATOM     18  H   UNL     1      -5.119  -3.158   1.886  0.00  0.00    +0.171 HD
BRANCH  17  21
ATOM     19  C   UNL     1      -2.906  -2.459   0.757  0.00  0.00    +0.232 C 
ATOM     20  O   UNL     1      -3.735  -1.575   0.742  0.00  0.00    -0.274 OA
ATOM     21  N   UNL     1      -3.225  -3.674   1.247  0.00  0.00    -0.235 N 
ATOM     22  H   UNL     1      -2.585  -4.402   1.194  0.00  0.00    +0.173 HD
BRANCH  19  23
ATOM     23  C   UNL     1      -1.519  -2.201   0.228  0.00  0.00    +0.076 C 
BRANCH  23  24
ATOM     24  C   UNL     1      -1.567  -1.067  -0.799  0.00  0.00    +0.012 C 
BRANCH  24  26
ATOM     25  C   UNL     1      -0.233   0.245  -2.453  0.00  0.00    +0.004 C 
ATOM     26  C   UNL     1      -0.184  -0.888  -1.427  0.00  0.00    -0.003 C 
ENDBRANCH  24  26
ENDBRANCH  23  24
BRANCH  23  27
ATOM     27  C   UNL     1      -0.598  -1.803   1.383  0.00  0.00    +0.012 C 
BRANCH  27  28
ATOM     28  C   UNL     1      -1.157  -0.558   2.075  0.00  0.00    -0.003 C 
ATOM     29  C   UNL     1      -0.269  -0.196   3.267  0.00  0.00    +0.004 C 
ENDBRANCH  27  28
ENDBRANCH  23  27
ENDBRANCH  19  23
ENDBRANCH  17  21
ENDBRANCH   1  17
TORSDOF 7
