REMARK  Name = ZINC64167013
REMARK  5 active torsions:
REMARK  status: ('A' for Active; 'I' for Inactive)
REMARK    1  A    between atoms: C_1  and  C_2
REMARK    2  A    between atoms: C_10  and  C_12
REMARK    3  A    between atoms: N_14  and  C_15
REMARK    4  A    between atoms: C_18  and  N_21
REMARK    5  A    between atoms: C_23  and  C_26
REMARK                            x       y       z     vdW  Elec       q    Type
REMARK                         _______ _______ _______ _____ _____    ______ ____
ROOT
ATOM      1  C   UNL     1       2.521   0.620   3.667  0.00  0.00    +0.073 C 
ATOM      2  C   UNL     1       2.469  -0.223   4.943  0.00  0.00    +0.024 C 
ATOM      3  C   UNL     1       1.233   0.162   5.759  0.00  0.00    +0.026 C 
ATOM      4  C   UNL     1       1.309   1.644   6.130  0.00  0.00    +0.092 C 
ATOM      5  C   UNL     1       1.361   2.487   4.855  0.00  0.00    +0.026 C 
ATOM      6  C   UNL     1       2.596   2.102   4.039  0.00  0.00    +0.024 C 
ENDROOT
BRANCH   4   7
ATOM      7  N   UNL     1       0.126   2.013   6.912  0.00  0.00    -0.253 N 
ATOM      8  C   UNL     1       0.136   2.516   8.190  0.00  0.00    +0.119 C 
ATOM      9  C   UNL     1      -1.140   2.734   8.573  0.00  0.00    +0.120 C 
ATOM     10  N   UNL     1      -1.977   2.355   7.499  0.00  0.00    -0.259 N 
ATOM     11  N   UNL     1      -1.168   1.920   6.487  0.00  0.00    -0.160 NA
ATOM     12  H   UNL     1      -2.946   2.399   7.483  0.00  0.00    +0.168 HD
ATOM     13  H   UNL     1      -1.313   2.461   5.648  0.00  0.00    +0.168 HD
BRANCH   9  14
ATOM     14  C   UNL     1      -1.576   3.264   9.863  0.00  0.00    +0.263 C 
ATOM     15  O   UNL     1      -0.753   3.555  10.711  0.00  0.00    -0.269 OA
ATOM     16  N   UNL     1      -2.890   3.432  10.113  0.00  0.00    -0.296 N 
ATOM     17  C   UNL     1      -3.986   3.118   9.185  0.00  0.00    +0.108 C 
ATOM     18  C   UNL     1      -5.306   3.496   9.890  0.00  0.00    +0.020 C 
ATOM     19  C   UNL     1      -4.848   4.528  10.954  0.00  0.00    +0.020 C 
ATOM     20  C   UNL     1      -3.466   3.955  11.365  0.00  0.00    +0.108 C 
ENDBRANCH   9  14
ENDBRANCH   4   7
BRANCH   1  23
ATOM     21  C   UNL     1       1.266  -0.670   2.024  0.00  0.00    +0.240 C 
ATOM     22  O   UNL     1       2.221  -1.410   1.919  0.00  0.00    -0.273 OA
ATOM     23  N   UNL     1       1.315   0.377   2.872  0.00  0.00    -0.310 N 
ATOM     24  H   UNL     1       0.551   0.969   2.955  0.00  0.00    +0.149 HD
BRANCH  21  34
ATOM     25  C   UNL     1      -0.018   1.503   0.010  0.00  0.00    +0.042 C 
ATOM     26  C   UNL     1       0.002  -0.004   0.002  0.00  0.00    -0.033 C 
ATOM     27  C   UNL     1       0.009  -0.811  -1.083  0.00  0.00    +0.001 A 
ATOM     28  C   UNL     1      -0.002  -0.538  -2.525  0.00  0.00    +0.030 A 
ATOM     29  C   UNL     1       0.009  -1.579  -3.390  0.00  0.00    +0.042 A 
ATOM     30  C   UNL     1       0.028  -2.909  -2.944  0.00  0.00    +0.022 A 
ATOM     31  C   UNL     1       0.038  -3.238  -1.635  0.00  0.00    +0.027 A 
ATOM     32  C   UNL     1       0.030  -2.223  -0.638  0.00  0.00    +0.043 A 
ATOM     33  N   UNL     1       0.036  -2.286   0.671  0.00  0.00    -0.370 N 
ATOM     34  C   UNL     1       0.026  -0.920   1.206  0.00  0.00    +0.193 C 
ATOM     35 CL   UNL     1      -0.004  -1.260  -5.097  0.00  0.00    -0.084 Cl
ATOM     36  H   UNL     1       0.049  -3.100   1.199  0.00  0.00    +0.161 HD
ENDBRANCH  21  34
ENDBRANCH   1  23
TORSDOF 4
