REMARK  Name = ZINC20463808
REMARK  9 active torsions:
REMARK  status: ('A' for Active; 'I' for Inactive)
REMARK    1  A    between atoms: C_1  and  C_2
REMARK    2  A    between atoms: C_5  and  C_24
REMARK    3  A    between atoms: C_6  and  N_8
REMARK    4  A    between atoms: C_12  and  N_13
REMARK    5  A    between atoms: N_13  and  C_14
REMARK    6  A    between atoms: C_14  and  C_15
REMARK    7  A    between atoms: C_15  and  N_16
REMARK    8  A    between atoms: N_16  and  C_17
REMARK    9  A    between atoms: N_16  and  C_18
REMARK                            x       y       z     vdW  Elec       q    Type
REMARK                         _______ _______ _______ _____ _____    ______ ____
ROOT
ATOM      1  N   UNL     1       0.115  -2.190   2.790  0.00  0.00    -0.217 N 
ATOM      2  C   UNL     1       1.284  -2.678   3.253  0.00  0.00    +0.263 C 
ATOM      3  O   UNL     1       2.344  -2.310   2.783  0.00  0.00    -0.269 OA
ATOM      4  C   UNL     1       1.242  -3.669   4.343  0.00  0.00    +0.113 C 
ATOM      5  C   UNL     1       2.399  -4.212   4.868  0.00  0.00    +0.085 C 
ATOM      6  C   UNL     1      -0.088  -4.055   4.848  0.00  0.00    +0.256 C 
ATOM      7  O   UNL     1      -0.203  -4.867   5.747  0.00  0.00    -0.270 OA
ATOM      8  N   UNL     1      -1.173  -3.483   4.288  0.00  0.00    -0.263 N 
ATOM      9  C   UNL     1      -1.060  -2.583   3.301  0.00  0.00    +0.150 C 
ATOM     10  S   UNL     1      -2.493  -1.905   2.655  0.00  0.00    -0.018 S 
ATOM     11  H   UNL     1      -2.056  -3.726   4.609  0.00  0.00    +0.157 HD
ENDROOT
BRANCH   1  17
ATOM     12  C   UNL     1       0.272   2.508   1.344  0.00  0.00    +0.044 C 
ATOM     13  C   UNL     1       0.204   1.037   1.026  0.00  0.00    -0.049 A 
ATOM     14  C   UNL     1       0.156   0.617  -0.291  0.00  0.00    +0.004 A 
ATOM     15  C   UNL     1       0.094  -0.732  -0.588  0.00  0.00    +0.005 A 
ATOM     16  C   UNL     1       0.081  -1.665   0.431  0.00  0.00    -0.029 A 
ATOM     17  C   UNL     1       0.129  -1.246   1.754  0.00  0.00    +0.046 A 
ATOM     18  C   UNL     1       0.196   0.109   2.049  0.00  0.00    +0.027 A 
ATOM     19  C   UNL     1       0.013  -3.135   0.107  0.00  0.00    +0.045 C 
ENDBRANCH   1  17
BRANCH   5  20
ATOM     20  N   UNL     1       3.587  -3.966   4.280  0.00  0.00    -0.351 N 
ATOM     21  H   UNL     1       3.622  -3.475   3.444  0.00  0.00    +0.145 HD
BRANCH  20  22
ATOM     22  C   UNL     1       4.826  -4.440   4.904  0.00  0.00    +0.082 C 
BRANCH  22  23
ATOM     23  C   UNL     1       6.020  -4.031   4.040  0.00  0.00    -0.061 C 
BRANCH  23  24
ATOM     24  N   UNL     1       7.262  -4.506   4.665  0.00  0.00    +0.377 N 
ATOM     25  C   UNL     1       7.274  -5.975   4.675  0.00  0.00    -0.097 C 
ATOM     26  C   UNL     1       8.415  -4.012   3.901  0.00  0.00    -0.097 C 
ATOM     27  H   UNL     1       7.314  -4.163   5.612  0.00  0.00    -0.083 HD
ENDBRANCH  23  24
ENDBRANCH  22  23
ENDBRANCH  20  22
ENDBRANCH   5  20
TORSDOF 5
