REMARK  Name = ZINC08236329
REMARK  7 active torsions:
REMARK  status: ('A' for Active; 'I' for Inactive)
REMARK    1  A    between atoms: C_1  and  C_2
REMARK    2  A    between atoms: C_2  and  C_19
REMARK    3  A    between atoms: C_4  and  N_10
REMARK    4  A    between atoms: C_6  and  C_8
REMARK    5  A    between atoms: C_6  and  C_9
REMARK    6  A    between atoms: N_10  and  C_11
REMARK    7  A    between atoms: C_11  and  C_12
REMARK                            x       y       z     vdW  Elec       q    Type
REMARK                         _______ _______ _______ _____ _____    ______ ____
ROOT
ATOM      1  C   UNL     1      -0.019   1.528   0.010  0.00  0.00    -0.010 C 
ATOM      2  C   UNL     1       0.002  -0.004   0.002  0.00  0.00    -0.075 C 
ATOM      3  C   UNL     1       0.573  -0.505  -1.321  0.00  0.00    -0.029 C 
ATOM      4  C   UNL     1       2.088  -0.301  -1.357  0.00  0.00    -0.074 C 
ATOM      5  C   UNL     1       2.703  -1.086  -0.198  0.00  0.00    -0.029 C 
ATOM      6  C   UNL     1       2.147  -0.590   1.133  0.00  0.00    -0.075 C 
ATOM      7  N   UNL     1       0.697  -0.529   1.164  0.00  0.00    +0.386 N 
ATOM      8  C   UNL     1       2.769   0.766   1.481  0.00  0.00    -0.010 C 
ATOM      9  C   UNL     1       2.600  -1.589   2.223  0.00  0.00    -0.010 C 
ATOM     10  C   UNL     1      -1.468  -0.478   0.079  0.00  0.00    -0.010 C 
ATOM     11  H   UNL     1       0.416   0.021   1.982  0.00  0.00    -0.084 HD
ATOM     12  H   UNL     1       0.341  -1.472   1.351  0.00  0.00    -0.084 HD
ENDROOT
BRANCH   4  13
ATOM     13  N   UNL     1       2.617  -0.820  -2.629  0.00  0.00    +0.381 N 
ATOM     14  H   UNL     1       2.479  -1.819  -2.668  0.00  0.00    -0.086 HD
ATOM     15  H   UNL     1       2.131  -0.384  -3.399  0.00  0.00    -0.086 HD
BRANCH  13  16
ATOM     16  C   UNL     1       4.052  -0.520  -2.722  0.00  0.00    -0.078 C 
BRANCH  16  17
ATOM     17  C   UNL     1       4.601  -1.059  -4.044  0.00  0.00    -0.024 C 
ATOM     18  C   UNL     1       6.072  -0.649  -4.197  0.00  0.00    +0.006 C 
ATOM     19  C   UNL     1       6.541  -1.045  -5.599  0.00  0.00    +0.027 C 
ATOM     20  C   UNL     1       6.174  -2.472  -5.883  0.00  0.00    -0.031 C 
ATOM     21  C   UNL     1       5.293  -3.142  -5.212  0.00  0.00    -0.031 C 
ATOM     22  C   UNL     1       4.518  -2.587  -4.051  0.00  0.00    +0.028 C 
ENDBRANCH  16  17
ENDBRANCH  13  16
ENDBRANCH   4  13
TORSDOF 3
