REMARK  Name = ZINC37157467
REMARK  8 active torsions:
REMARK  status: ('A' for Active; 'I' for Inactive)
REMARK    1  A    between atoms: C_1  and  C_2
REMARK    2  A    between atoms: C_2  and  C_3
REMARK    3  A    between atoms: C_3  and  C_4
REMARK    4  A    between atoms: C_3  and  C_5
REMARK    5  A    between atoms: C_3  and  C_6
REMARK    6  A    between atoms: C_10  and  C_21
REMARK    7  A    between atoms: C_12  and  N_15
REMARK    8  A    between atoms: C_21  and  N_22
REMARK                            x       y       z     vdW  Elec       q    Type
REMARK                         _______ _______ _______ _____ _____    ______ ____
ROOT
ATOM      1  C   UNL     1      -1.413  -2.063   0.004  0.00  0.00    -0.007 C 
ATOM      2  C   UNL     1      -0.696  -2.557  -1.254  0.00  0.00    +0.004 C 
ATOM      3  C   UNL     1      -0.676  -4.087  -1.263  0.00  0.00    +0.000 C 
ATOM      4  C   UNL     1      -2.111  -4.616  -1.252  0.00  0.00    -0.042 C 
ATOM      5  C   UNL     1      -2.827  -4.123   0.007  0.00  0.00    -0.067 C 
ATOM      6  C   UNL     1      -2.848  -2.593   0.015  0.00  0.00    -0.011 C 
ENDROOT
BRANCH   5   7
ATOM      7  N   UNL     1      -4.205  -4.631   0.017  0.00  0.00    +0.382 N 
ATOM      8  C   UNL     1      -4.894  -4.150   1.221  0.00  0.00    -0.078 C 
ATOM      9  C   UNL     1      -6.353  -4.609   1.197  0.00  0.00    -0.019 C 
ATOM     10  C   UNL     1      -6.400  -6.140   1.157  0.00  0.00    -0.004 C 
ATOM     11  C   UNL     1      -5.616  -6.633  -0.062  0.00  0.00    -0.019 C 
ATOM     12  C   UNL     1      -4.184  -6.099   0.009  0.00  0.00    -0.078 C 
ATOM     13  H   UNL     1      -4.692  -4.299  -0.802  0.00  0.00    -0.081 HD
ENDBRANCH   5   7
BRANCH   1  14
ATOM     14  C   UNL     1      -1.433  -0.534   0.013  0.00  0.00    -0.032 C 
ATOM     15  C   UNL     1      -2.149  -0.040   1.272  0.00  0.00    +0.011 C 
ATOM     16  C   UNL     1      -2.173  -0.027  -1.227  0.00  0.00    +0.011 C 
BRANCH  14  18
ATOM     17  C   UNL     1      -0.019   1.526   0.010  0.00  0.00    +0.004 C 
ATOM     18  C   UNL     1       0.002  -0.004   0.002  0.00  0.00    +0.003 C 
ENDBRANCH  14  18
ENDBRANCH   1  14
BRANCH   4  19
ATOM     19  C   UNL     1      -2.851  -4.109  -2.491  0.00  0.00    -0.085 C 
BRANCH  19  20
ATOM     20  N   UNL     1      -2.235  -4.680  -3.697  0.00  0.00    +0.378 N 
ATOM     21  H   UNL     1      -2.723  -4.346  -4.514  0.00  0.00    -0.090 HD
ATOM     22  H   UNL     1      -1.267  -4.400  -3.745  0.00  0.00    -0.090 HD
ATOM     23  H   UNL     1      -2.292  -5.687  -3.659  0.00  0.00    -0.090 HD
ENDBRANCH  19  20
ENDBRANCH   4  19
TORSDOF 5
