REMARK  Name = ZINC00718476
REMARK  3 active torsions:
REMARK  status: ('A' for Active; 'I' for Inactive)
REMARK    1  A    between atoms: C_9  and  C_20
REMARK    2  A    between atoms: C_15  and  N_19
REMARK    3  A    between atoms: C_16  and  C_17
REMARK                            x       y       z     vdW  Elec       q    Type
REMARK                         _______ _______ _______ _____ _____    ______ ____
ROOT
ATOM      1  C   UNL     1       0.573   1.097   0.638  0.00  0.00    +0.000 A 
ATOM      2  C   UNL     1       1.784   1.757   0.582  0.00  0.00    +0.002 A 
ATOM      3  C   UNL     1       2.974   1.088   0.344  0.00  0.00    +0.023 A 
ATOM      4  C   UNL     1       2.905  -0.294   0.163  0.00  0.00    +0.038 A 
ATOM      5  C   UNL     1       1.670  -0.952   0.223  0.00  0.00    -0.002 A 
ATOM      6  C   UNL     1       0.490  -0.280   0.459  0.00  0.00    +0.007 A 
ATOM      7  C   UNL     1       1.958  -2.401  -0.006  0.00  0.00    +0.145 C 
ATOM      8  C   UNL     1       1.256  -2.915  -1.230  0.00  0.00    +0.066 A 
ATOM      9  C   UNL     1       1.476  -2.615  -2.578  0.00  0.00    +0.101 A 
ATOM     10  N   UNL     1       0.613  -3.310  -3.295  0.00  0.00    -0.171 NA
ATOM     11  N   UNL     1      -0.179  -4.069  -2.420  0.00  0.00    -0.246 N 
ATOM     12  H   UNL     1      -0.894  -4.672  -2.677  0.00  0.00    +0.192 HD
ATOM     13  C   UNL     1       0.229  -3.814  -1.160  0.00  0.00    +0.224 A 
ATOM     14  O   UNL     1      -0.230  -4.308   0.017  0.00  0.00    -0.423 OA
ATOM     15  C   UNL     1       0.515  -4.104   1.121  0.00  0.00    +0.201 C 
ATOM     16  C   UNL     1       1.549  -3.232   1.179  0.00  0.00    +0.110 C 
ATOM     17  C   UNL     1       3.458  -2.462  -0.197  0.00  0.00    +0.238 C 
ATOM     18  O   UNL     1       4.118  -3.457  -0.409  0.00  0.00    -0.274 OA
ATOM     19  N   UNL     1       3.921  -1.199  -0.086  0.00  0.00    -0.284 N 
ATOM     20  H   UNL     1       4.856  -0.955  -0.170  0.00  0.00    +0.155 HD
ENDROOT
BRANCH   9  21
ATOM     21  C   UNL     1       2.500  -1.681  -3.108  0.00  0.00    +0.003 A 
ATOM     22  C   UNL     1       3.353  -2.087  -4.132  0.00  0.00    +0.013 A 
ATOM     23  C   UNL     1       4.303  -1.216  -4.622  0.00  0.00    +0.039 A 
ATOM     24  C   UNL     1       4.410   0.063  -4.098  0.00  0.00    +0.123 A 
ATOM     25  C   UNL     1       3.563   0.471  -3.080  0.00  0.00    +0.039 A 
ATOM     26  C   UNL     1       2.607  -0.393  -2.588  0.00  0.00    +0.013 A 
ATOM     27  F   UNL     1       5.342   0.913  -4.581  0.00  0.00    -0.205 F 
ENDBRANCH   9  21
BRANCH  15  28
ATOM     28  N   UNL     1       0.209  -4.821   2.251  0.00  0.00    -0.328 N 
ATOM     29  H   UNL     1      -0.527  -5.453   2.240  0.00  0.00    +0.145 HD
ATOM     30  H   UNL     1       0.728  -4.696   3.061  0.00  0.00    +0.145 HD
ENDBRANCH  15  28
BRANCH  16  31
ATOM     31  C   UNL     1       2.276  -3.098   2.405  0.00  0.00    +0.102 C 
ATOM     32  N   UNL     1       2.853  -2.991   3.378  0.00  0.00    -0.191 NA
ENDBRANCH  16  31
TORSDOF 3
