REMARK  Name = ZINC54407425
REMARK  8 active torsions:
REMARK  status: ('A' for Active; 'I' for Inactive)
REMARK    1  A    between atoms: C_1  and  C_2
REMARK    2  A    between atoms: C_5  and  C_20
REMARK    3  A    between atoms: C_7  and  N_8
REMARK    4  A    between atoms: N_11  and  C_12
REMARK    5  A    between atoms: C_12  and  C_13
REMARK    6  A    between atoms: C_12  and  C_14
REMARK    7  A    between atoms: C_17  and  C_19
REMARK    8  A    between atoms: N_22  and  C_23
REMARK                            x       y       z     vdW  Elec       q    Type
REMARK                         _______ _______ _______ _____ _____    ______ ____
ROOT
ATOM      1  N   UNL     1       0.025  -0.007   2.417  0.00  0.00    -0.269 N 
ATOM      2  C   UNL     1      -0.057  -0.682   3.581  0.00  0.00    +0.304 C 
ATOM      3  O   UNL     1      -0.040  -1.898   3.581  0.00  0.00    -0.252 OA
ATOM      4  N   UNL     1      -0.156  -0.010   4.745  0.00  0.00    -0.292 N 
ATOM      5  H   UNL     1       0.078   0.961   2.421  0.00  0.00    +0.156 HD
ATOM      6  H   UNL     1      -0.169   0.960   4.745  0.00  0.00    +0.151 HD
ENDROOT
BRANCH   1  13
ATOM      7  C   UNL     1      -1.266   1.183   0.183  0.00  0.00    +0.045 C 
ATOM      8  C   UNL     1      -0.586  -0.158   0.085  0.00  0.00    -0.029 A 
ATOM      9  C   UNL     1      -0.576  -0.839  -1.118  0.00  0.00    +0.006 A 
ATOM     10  C   UNL     1       0.044  -2.068  -1.215  0.00  0.00    +0.013 A 
ATOM     11  C   UNL     1       0.665  -2.627  -0.096  0.00  0.00    +0.038 A 
ATOM     12  C   UNL     1       0.655  -1.940   1.117  0.00  0.00    +0.036 A 
ATOM     13  C   UNL     1       0.033  -0.703   1.203  0.00  0.00    +0.038 A 
BRANCH  11  14
ATOM     14  C   UNL     1       1.329  -3.944  -0.197  0.00  0.00    +0.244 C 
ATOM     15  O   UNL     1       1.869  -4.429   0.778  0.00  0.00    -0.270 OA
ATOM     16  N   UNL     1       1.337  -4.606  -1.371  0.00  0.00    -0.314 N 
ATOM     17  C   UNL     1       1.996  -5.911  -1.471  0.00  0.00    +0.128 C 
ATOM     18  H   UNL     1       0.907  -4.220  -2.149  0.00  0.00    +0.149 HD
ENDBRANCH  11  14
ENDBRANCH   1  13
BRANCH   4  19
ATOM     19  C   UNL     1      -0.245  -0.744   6.010  0.00  0.00    +0.108 C 
ATOM     20  C   UNL     1      -1.702  -1.128   6.276  0.00  0.00    +0.033 C 
BRANCH  19  21
ATOM     21  C   UNL     1       0.258   0.126   7.132  0.00  0.00    +0.010 A 
ATOM     22  C   UNL     1       1.027  -0.212   8.196  0.00  0.00    +0.013 A 
ATOM     23  C   UNL     1       1.372   0.764   9.111  0.00  0.00    +0.011 A 
ATOM     24  C   UNL     1       0.931   2.032   8.918  0.00  0.00    -0.013 A 
ATOM     25  S   UNL     1       0.004   1.873   7.401  0.00  0.00    -0.097 S 
ATOM     26  C   UNL     1       1.167   3.258   9.762  0.00  0.00    +0.051 C 
ENDBRANCH  19  21
ENDBRANCH   4  19
TORSDOF 4
