REMARK  Name = ZINC43209058
REMARK  13 active torsions:
REMARK  status: ('A' for Active; 'I' for Inactive)
REMARK    1  A    between atoms: C_1  and  O_2
REMARK    2  A    between atoms: O_2  and  C_3
REMARK    3  A    between atoms: C_3  and  C_5
REMARK    4  A    between atoms: C_8  and  C_11
REMARK    5  A    between atoms: C_11  and  C_13
REMARK    6  A    between atoms: C_11  and  N_30
REMARK    7  A    between atoms: C_13  and  C_15
REMARK    8  A    between atoms: C_13  and  C_27
REMARK    9  A    between atoms: C_15  and  N_16
REMARK   10  A    between atoms: N_16  and  C_17
REMARK   11  A    between atoms: C_17  and  C_18
REMARK   12  A    between atoms: N_30  and  C_31
REMARK   13  A    between atoms: C_31  and  C_32
REMARK                            x       y       z     vdW  Elec       q    Type
REMARK                         _______ _______ _______ _____ _____    ______ ____
ROOT
ATOM      1  C   UNL     1       0.851  -6.357   1.260  0.00  0.00    -0.028 C 
ENDROOT
BRANCH   1   5
ATOM      2  C   UNL     1       0.680  -2.088   1.091  0.00  0.00    +0.059 A 
ATOM      3  C   UNL     1       0.101  -2.854   0.077  0.00  0.00    +0.015 A 
ATOM      4  C   UNL     1       0.160  -4.231   0.138  0.00  0.00    +0.003 A 
ATOM      5  C   UNL     1       0.791  -4.853   1.200  0.00  0.00    -0.061 A 
ATOM      6  C   UNL     1       1.366  -4.100   2.209  0.00  0.00    +0.003 A 
ATOM      7  C   UNL     1       1.320  -2.722   2.157  0.00  0.00    +0.015 A 
BRANCH   2   8
ATOM      8  C   UNL     1       0.620  -0.613   1.032  0.00  0.00    +0.339 C 
ATOM      9  O   UNL     1       1.129   0.051   1.913  0.00  0.00    -0.245 OA
BRANCH   8  11
ATOM     10  C   UNL     1      -0.017   1.425   0.010  0.00  0.00    +0.280 C 
ATOM     11  O   UNL     1       0.002  -0.004   0.002  0.00  0.00    -0.464 OA
ENDBRANCH   8  11
ENDBRANCH   2   8
ENDBRANCH   1   5
BRANCH   1  12
ATOM     12  N   UNL     1       0.635  -6.802   2.644  0.00  0.00    +0.387 N 
ATOM     13  H   UNL     1       0.757  -7.802   2.699  0.00  0.00    -0.085 HD
ATOM     14  H   UNL     1       1.302  -6.348   3.251  0.00  0.00    -0.085 HD
BRANCH  12  15
ATOM     15  C   UNL     1      -0.728  -6.451   3.064  0.00  0.00    -0.046 C 
BRANCH  15  16
ATOM     16  C   UNL     1      -0.949  -6.906   4.483  0.00  0.00    -0.061 A 
ATOM     17  C   UNL     1      -1.441  -8.174   4.731  0.00  0.00    +0.005 A 
ATOM     18  C   UNL     1      -1.646  -8.597   6.032  0.00  0.00    +0.050 A 
ATOM     19  C   UNL     1      -1.358  -7.750   7.090  0.00  0.00    +0.166 A 
ATOM     20  C   UNL     1      -0.862  -6.473   6.839  0.00  0.00    +0.166 A 
ATOM     21  C   UNL     1      -0.655  -6.058   5.534  0.00  0.00    +0.051 A 
ATOM     22  O   UNL     1      -0.662  -5.841   8.033  0.00  0.00    -0.453 OA
ATOM     23  C   UNL     1      -1.422  -6.592   8.998  0.00  0.00    +0.466 C 
ATOM     24  O   UNL     1      -1.468  -7.919   8.440  0.00  0.00    -0.453 OA
ENDBRANCH  15  16
ENDBRANCH  12  15
ENDBRANCH   1  12
BRANCH   1  25
ATOM     25  C   UNL     1       2.224  -6.832   0.780  0.00  0.00    +0.075 C 
BRANCH  25  26
ATOM     26  C   UNL     1       2.446  -6.376  -0.639  0.00  0.00    +0.356 C 
ATOM     27  O   UNL     1       3.386  -5.647  -0.905  0.00  0.00    -0.246 OA
ATOM     28  O   UNL     1       1.685  -6.737  -1.521  0.00  0.00    -0.246 OA
ENDBRANCH  25  26
BRANCH  25  29
ATOM     29  C   UNL     1       2.286  -8.360   0.841  0.00  0.00    -0.069 C 
BRANCH  29  30
ATOM     30  N   UNL     1       3.641  -8.809   0.495  0.00  0.00    +0.382 N 
ATOM     31  H   UNL     1       3.870  -8.500  -0.437  0.00  0.00    -0.085 HD
ATOM     32  H   UNL     1       4.302  -8.420   1.151  0.00  0.00    -0.085 HD
BRANCH  30  33
ATOM     33  C   UNL     1       3.700 -10.276   0.554  0.00  0.00    -0.047 C 
BRANCH  33  34
ATOM     34  C   UNL     1       5.090 -10.738   0.199  0.00  0.00    -0.061 A 
ATOM     35  C   UNL     1       5.414 -11.002  -1.119  0.00  0.00    +0.005 A 
ATOM     36  C   UNL     1       6.688 -11.425  -1.449  0.00  0.00    +0.050 A 
ATOM     37  C   UNL     1       7.643 -11.585  -0.459  0.00  0.00    +0.166 A 
ATOM     38  C   UNL     1       7.317 -11.319   0.869  0.00  0.00    +0.166 A 
ATOM     39  C   UNL     1       6.040 -10.890   1.191  0.00  0.00    +0.051 A 
ATOM     40  O   UNL     1       8.417 -11.551   1.643  0.00  0.00    -0.453 OA
ATOM     41  C   UNL     1       9.297 -12.351   0.831  0.00  0.00    +0.466 C 
ATOM     42  O   UNL     1       8.948 -11.983  -0.516  0.00  0.00    -0.453 OA
ENDBRANCH  33  34
ENDBRANCH  30  33
ENDBRANCH  29  30
ENDBRANCH  25  29
ENDBRANCH   1  25
TORSDOF 12
