REMARK  Name = ZINC51037569
REMARK  4 active torsions:
REMARK  status: ('A' for Active; 'I' for Inactive)
REMARK    1  A    between atoms: C_1  and  C_2
REMARK    2  A    between atoms: C_5  and  S_7
REMARK    3  A    between atoms: S_7  and  C_8
REMARK    4  A    between atoms: C_11  and  N_18
REMARK                            x       y       z     vdW  Elec       q    Type
REMARK                         _______ _______ _______ _____ _____    ______ ____
ROOT
ATOM      1  C   UNL     1       0.109  -4.929   0.507  0.00  0.00    +0.043 A 
ATOM      2  C   UNL     1       0.203  -4.741  -0.855  0.00  0.00    +0.019 A 
ATOM      3  C   UNL     1       0.246  -5.825  -1.726  0.00  0.00    +0.024 A 
ATOM      4  C   UNL     1       0.197  -7.116  -1.245  0.00  0.00    +0.034 A 
ATOM      5  C   UNL     1       0.102  -7.341   0.144  0.00  0.00    +0.022 A 
ATOM      6  C   UNL     1       0.063  -6.238   1.032  0.00  0.00    +0.087 A 
ATOM      7  N   UNL     1      -0.023  -6.448   2.349  0.00  0.00    -0.254 NA
ATOM      8  C   UNL     1      -0.068  -7.661   2.845  0.00  0.00    +0.111 A 
ATOM      9  C   UNL     1      -0.027  -8.787   2.027  0.00  0.00    +0.020 A 
ATOM     10  C   UNL     1       0.049  -8.643   0.671  0.00  0.00    +0.013 A 
ENDROOT
BRANCH   4  11
ATOM     11  N   UNL     1       0.241  -8.196  -2.129  0.00  0.00    -0.357 N 
ATOM     12  H   UNL     1       0.306  -8.039  -3.084  0.00  0.00    +0.142 HD
ATOM     13  H   UNL     1       0.206  -9.103  -1.788  0.00  0.00    +0.142 HD
ENDBRANCH   4  11
BRANCH   1  14
ATOM     14  S   UNL     1       0.056  -3.540   1.589  0.00  0.00    -0.027 S 
BRANCH  14  19
ATOM     15  C   UNL     1      -4.493  -2.179   3.910  0.00  0.00    +0.111 C 
ATOM     16  C   UNL     1      -3.478  -2.868   3.036  0.00  0.00    +0.215 A 
ATOM     17  N   UNL     1      -3.715  -3.834   2.198  0.00  0.00    -0.112 NA
ATOM     18  N   UNL     1      -2.619  -4.182   1.620  0.00  0.00    -0.101 NA
ATOM     19  C   UNL     1      -1.636  -3.442   2.074  0.00  0.00    +0.282 A 
ATOM     20  O   UNL     1      -2.160  -2.591   2.976  0.00  0.00    -0.416 OA
ENDBRANCH  14  19
ENDBRANCH   1  14
TORSDOF 3
