REMARK  Name = ZINC62704701
REMARK  10 active torsions:
REMARK  status: ('A' for Active; 'I' for Inactive)
REMARK    1  A    between atoms: C_1  and  C_2
REMARK    2  A    between atoms: C_2  and  C_3
REMARK    3  A    between atoms: C_3  and  N_4
REMARK    4  A    between atoms: C_5  and  C_7
REMARK    5  A    between atoms: C_7  and  O_8
REMARK    6  A    between atoms: O_8  and  C_9
REMARK    7  A    between atoms: C_12  and  C_16
REMARK    8  A    between atoms: C_16  and  C_17
REMARK    9  A    between atoms: C_17  and  C_19
REMARK   10  A    between atoms: C_17  and  N_20
REMARK                            x       y       z     vdW  Elec       q    Type
REMARK                         _______ _______ _______ _____ _____    ______ ____
ROOT
ATOM      1  C   UNL     1       2.185  -5.974   3.530  0.00  0.00    +0.135 A 
ATOM      2  C   UNL     1       1.642  -6.822   2.576  0.00  0.00    +0.047 A 
ATOM      3  C   UNL     1       1.754  -8.191   2.727  0.00  0.00    +0.007 A 
ATOM      4  C   UNL     1       2.406  -8.716   3.827  0.00  0.00    -0.048 A 
ATOM      5  C   UNL     1       2.947  -7.874   4.780  0.00  0.00    +0.022 A 
ATOM      6  C   UNL     1       2.843  -6.503   4.632  0.00  0.00    +0.060 A 
ATOM      7 BR   UNL     1       3.591  -5.351   5.931  0.00  0.00    -0.047 Br
ENDROOT
BRANCH   1   8
ATOM      8  O   UNL     1       2.076  -4.627   3.384  0.00  0.00    -0.482 OA
BRANCH   8   9
ATOM      9  C   UNL     1       1.385  -4.154   2.227  0.00  0.00    +0.324 C 
BRANCH   9  11
ATOM     10  N   UNL     1       0.762  -1.976   1.234  0.00  0.00    -0.313 N 
ATOM     11  C   UNL     1       1.364  -2.647   2.235  0.00  0.00    +0.251 C 
ATOM     12  O   UNL     1       1.890  -2.038   3.143  0.00  0.00    -0.272 OA
ATOM     13  H   UNL     1       0.342  -2.462   0.507  0.00  0.00    +0.149 HD
BRANCH  10  14
ATOM     14  C   UNL     1       0.742  -0.511   1.242  0.00  0.00    +0.104 C 
BRANCH  14  16
ATOM     15  C   UNL     1      -0.019   1.526   0.010  0.00  0.00    +0.005 C 
ATOM     16  C   UNL     1       0.002  -0.004   0.002  0.00  0.00    +0.015 C 
ENDBRANCH  14  16
ENDBRANCH  10  14
ENDBRANCH   9  11
ENDBRANCH   8   9
ENDBRANCH   1   8
BRANCH   4  17
ATOM     17  C   UNL     1       2.526 -10.210   3.989  0.00  0.00    +0.019 C 
BRANCH  17  18
ATOM     18  C   UNL     1       3.812 -10.694   3.316  0.00  0.00    -0.074 C 
ATOM     19  C   UNL     1       3.872 -12.222   3.371  0.00  0.00    -0.014 C 
BRANCH  18  20
ATOM     20  N   UNL     1       4.973 -10.133   4.019  0.00  0.00    +0.380 N 
ATOM     21  H   UNL     1       4.963 -10.435   4.982  0.00  0.00    -0.090 HD
ATOM     22  H   UNL     1       5.821 -10.452   3.575  0.00  0.00    -0.090 HD
ATOM     23  H   UNL     1       4.934  -9.125   3.983  0.00  0.00    -0.090 HD
ENDBRANCH  18  20
ENDBRANCH  17  18
ENDBRANCH   4  17
TORSDOF 8
