REMARK  Name = ZINC20345331
REMARK  7 active torsions:
REMARK  status: ('A' for Active; 'I' for Inactive)
REMARK    1  A    between atoms: C_1  and  C_2
REMARK    2  A    between atoms: C_4  and  C_27
REMARK    3  A    between atoms: C_6  and  N_8
REMARK    4  A    between atoms: C_9  and  C_11
REMARK    5  A    between atoms: C_11  and  N_12
REMARK    6  A    between atoms: C_15  and  C_18
REMARK    7  A    between atoms: C_15  and  N_21
REMARK                            x       y       z     vdW  Elec       q    Type
REMARK                         _______ _______ _______ _____ _____    ______ ____
ROOT
ATOM      1  N   UNL     1       4.528   0.140   4.750  0.00  0.00    +0.386 N 
ATOM      2  C   UNL     1       4.988  -0.222   3.403  0.00  0.00    -0.076 C 
ATOM      3  C   UNL     1       4.075   0.427   2.360  0.00  0.00    +0.013 C 
ATOM      4  C   UNL     1       2.638  -0.056   2.575  0.00  0.00    +0.095 C 
ATOM      5  C   UNL     1       2.200   0.290   4.001  0.00  0.00    +0.013 C 
ATOM      6  C   UNL     1       3.167  -0.355   4.997  0.00  0.00    -0.076 C 
ATOM      7  H   UNL     1       4.502   1.237   4.812  0.00  0.00    -0.081 HD
ENDROOT
BRANCH   4   8
ATOM      8  N   UNL     1       1.748   0.608   1.614  0.00  0.00    -0.289 NA
ATOM      9  C   UNL     1       0.375   0.099   1.729  0.00  0.00    +0.085 C 
ATOM     10  C   UNL     1      -0.489   0.703   0.620  0.00  0.00    +0.015 C 
ATOM     11  C   UNL     1      -0.479   2.229   0.747  0.00  0.00    +0.002 C 
ATOM     12  C   UNL     1       0.966   2.730   0.673  0.00  0.00    +0.015 C 
ATOM     13  C   UNL     1       1.788   2.067   1.780  0.00  0.00    +0.085 C 
ENDBRANCH   4   8
BRANCH   4  14
ATOM     14  C   UNL     1       2.573  -1.548   2.375  0.00  0.00    +0.231 C 
ATOM     15  O   UNL     1       2.581  -2.290   3.334  0.00  0.00    -0.274 OA
ATOM     16  N   UNL     1       2.506  -2.058   1.129  0.00  0.00    -0.328 N 
ATOM     17  H   UNL     1       2.458  -3.147   0.983  0.00  0.00    +0.145 HD
ATOM     18  H   UNL     1       2.499  -1.385   0.259  0.00  0.00    +0.145 HD
ENDBRANCH   4  14
BRANCH   1  19
ATOM     19  C   UNL     1       5.460  -0.351   5.774  0.00  0.00    +0.019 C 
BRANCH  19  21
ATOM     20  N   UNL     1       7.779   0.106   6.503  0.00  0.00    -0.287 N 
ATOM     21  C   UNL     1       6.773   0.379   5.649  0.00  0.00    +0.201 C 
ATOM     22  O   UNL     1       6.923   1.211   4.780  0.00  0.00    -0.278 OA
ATOM     23  H   UNL     1       7.670  -0.701   7.243  0.00  0.00    +0.155 HD
BRANCH  20  29
ATOM     24  C   UNL     1      11.556   2.227   8.828  0.00  0.00    +0.044 C 
ATOM     25  C   UNL     1      10.815   1.891   7.560  0.00  0.00    -0.048 A 
ATOM     26  C   UNL     1      11.306   2.318   6.339  0.00  0.00    +0.006 A 
ATOM     27  C   UNL     1      10.629   2.012   5.173  0.00  0.00    -0.048 A 
ATOM     28  C   UNL     1       9.460   1.278   5.224  0.00  0.00    +0.026 A 
ATOM     29  C   UNL     1       8.964   0.849   6.448  0.00  0.00    +0.034 A 
ATOM     30  C   UNL     1       9.643   1.163   7.618  0.00  0.00    +0.026 A 
ATOM     31  C   UNL     1      11.168   2.478   3.845  0.00  0.00    +0.044 C 
ENDBRANCH  20  29
ENDBRANCH  19  21
ENDBRANCH   1  19
TORSDOF 5
