REMARK  Name = ZINC17043337
REMARK  9 active torsions:
REMARK  status: ('A' for Active; 'I' for Inactive)
REMARK    1  A    between atoms: C_1  and  C_2
REMARK    2  A    between atoms: N_10  and  CA_11
REMARK    3  A    between atoms: CA_11  and  CB_13
REMARK    4  A    between atoms: CA_11  and  C_20
REMARK    5  A    between atoms: CB_13  and  CG_14
REMARK    6  A    between atoms: C_24  and  C_26
REMARK    7  A    between atoms: C_29  and  O_34
REMARK    8  A    between atoms: C_30  and  O_32
REMARK    9  A    between atoms: O_32  and  C_33
REMARK                            x       y       z     vdW  Elec       q    Type
REMARK                         _______ _______ _______ _____ _____    ______ ____
ROOT
ATOM      1  C   UNK A   0      -0.096   1.500   0.006  0.00  0.00    +0.045 C 
ATOM      2  C   UNK A   0      -0.053  -0.006  -0.001  0.00  0.00    -0.029 A 
ATOM      3  C   UNK A   0      -0.020  -0.683  -1.203  0.00  0.00    +0.051 A 
ATOM      4  C   UNK A   0       0.019  -2.071  -1.216  0.00  0.00    +0.138 A 
ATOM      5  C   UNK A   0       0.025  -2.770  -0.001  0.00  0.00    +0.042 A 
ATOM      6  C   UNK A   0      -0.009  -2.079   1.206  0.00  0.00    +0.033 A 
ATOM      7  C   UNK A   0      -0.042  -0.699   1.200  0.00  0.00    +0.045 A 
ATOM      8 CL   UNK A   0      -0.077   0.172   2.702  0.00  0.00    -0.083 Cl
ATOM      9  C   UNK A   0       0.067  -4.250  -0.040  0.00  0.00    +0.050 A 
ATOM     10  N   HIS A   1       0.074  -4.964   1.064  0.00  0.00    -0.371 N 
ATOM     11  C   UNK A   0       0.100  -4.868  -1.323  0.00  0.00    +0.073 A 
ATOM     12  C   UNK A   0       0.091  -4.093  -2.435  0.00  0.00    +0.138 A 
ATOM     13  O   UNK A   0       0.052  -2.751  -2.383  0.00  0.00    -0.455 OA
ATOM     14  H   HIS A   1       0.139  -4.524   1.926  0.00  0.00    +0.160 HD
ENDROOT
BRANCH  12  15
ATOM     15  C   UNK A   0       0.126  -4.750  -3.756  0.00  0.00    +0.021 A 
ATOM     16  C   UNK A   0       0.161  -6.144  -3.844  0.00  0.00    +0.015 A 
ATOM     17  C   UNK A   0       0.193  -6.756  -5.079  0.00  0.00    +0.050 A 
ATOM     18  C   UNK A   0       0.191  -5.991  -6.237  0.00  0.00    +0.158 A 
ATOM     19  C   UNK A   0       0.156  -4.600  -6.156  0.00  0.00    +0.162 A 
ATOM     20  C   UNK A   0       0.118  -3.980  -4.922  0.00  0.00    +0.061 A 
BRANCH  19  21
ATOM     21  O   UNK A   0       0.155  -3.853  -7.293  0.00  0.00    -0.491 OA
ATOM     22  C   UNK A   0       0.118  -2.433  -7.136  0.00  0.00    +0.277 C 
ENDBRANCH  19  21
BRANCH  18  23
ATOM     23  O   UNK A   0       0.224  -6.599  -7.451  0.00  0.00    -0.503 OA
ATOM     24  H   UNK A   0      -0.650  -6.797  -7.816  0.00  0.00    +0.292 HD
ENDBRANCH  18  23
ENDBRANCH  12  15
BRANCH  10  25
ATOM     25  CA  HIS A   1      -0.017  -6.424   0.992  0.00  0.00    +0.199 C 
BRANCH  25  26
ATOM     26  C   HIS A   1       1.151  -7.037   1.720  0.00  0.00    +0.378 C 
ATOM     27  O   HIS A   1       1.655  -6.454   2.666  0.00  0.00    -0.244 OA
ATOM     28  OXT HIS A   1       1.594  -8.116   1.364  0.00  0.00    -0.244 OA
ENDBRANCH  25  26
BRANCH  25  29
ATOM     29  CB  HIS A   1      -1.323  -6.886   1.643  0.00  0.00    +0.090 C 
BRANCH  29  30
ATOM     30  CG  HIS A   1      -2.492  -6.374   0.842  0.00  0.00    +0.036 A 
ATOM     31  CD2 HIS A   1      -3.061  -5.159   0.961  0.00  0.00    +0.105 A 
ATOM     32  NE2 HIS A   1      -4.082  -5.110   0.051  0.00  0.00    -0.352 N 
ATOM     33  HE2 HIS A   1      -4.680  -4.362  -0.103  0.00  0.00    +0.166 HD
ATOM     34  CE1 HIS A   1      -4.102  -6.297  -0.592  0.00  0.00    +0.171 A 
ATOM     35  ND1 HIS A   1      -3.145  -7.046  -0.117  0.00  0.00    -0.350 N 
ATOM     36  HD1 HIS A   1      -2.939  -7.948  -0.410  0.00  0.00    +0.166 HD
ENDBRANCH  29  30
ENDBRANCH  25  29
ENDBRANCH  10  25
TORSDOF 7
