REMARK  Name = ZINC36259571
REMARK  8 active torsions:
REMARK  status: ('A' for Active; 'I' for Inactive)
REMARK    1  A    between atoms: C_1  and  O_2
REMARK    2  A    between atoms: O_2  and  C_3
REMARK    3  A    between atoms: C_5  and  C_13
REMARK    4  A    between atoms: C_7  and  O_11
REMARK    5  A    between atoms: C_8  and  O_9
REMARK    6  A    between atoms: O_9  and  C_10
REMARK    7  A    between atoms: O_11  and  C_12
REMARK    8  A    between atoms: C_14  and  C_15
REMARK                            x       y       z     vdW  Elec       q    Type
REMARK                         _______ _______ _______ _____ _____    ______ ____
ROOT
ATOM      1  C   UNL     1       0.606  -0.608  -1.056  0.00  0.00    +0.166 A 
ATOM      2  C   UNL     1       1.171   0.160  -2.059  0.00  0.00    +0.057 A 
ATOM      3  C   UNL     1       1.792  -0.461  -3.147  0.00  0.00    -0.018 A 
ATOM      4  C   UNL     1       1.839  -1.857  -3.217  0.00  0.00    +0.057 A 
ATOM      5  C   UNL     1       1.273  -2.618  -2.211  0.00  0.00    +0.166 A 
ATOM      6  C   UNL     1       0.660  -1.996  -1.127  0.00  0.00    +0.204 A 
ENDROOT
BRANCH   1   8
ATOM      7  C   UNL     1      -0.017   1.425   0.010  0.00  0.00    +0.277 C 
ATOM      8  O   UNL     1       0.002  -0.004   0.002  0.00  0.00    -0.491 OA
ENDBRANCH   1   8
BRANCH   6   9
ATOM      9  O   UNL     1       0.109  -2.748  -0.136  0.00  0.00    -0.488 OA
ATOM     10  C   UNL     1      -1.263  -3.118  -0.290  0.00  0.00    +0.277 C 
ENDBRANCH   6   9
BRANCH   5  11
ATOM     11  O   UNL     1       1.318  -3.975  -2.279  0.00  0.00    -0.491 OA
ATOM     12  C   UNL     1       1.967  -4.546  -3.417  0.00  0.00    +0.277 C 
ENDBRANCH   5  11
BRANCH   3  13
ATOM     13  C   UNL     1       2.394   0.353  -4.216  0.00  0.00    +0.009 C 
ATOM     14  C   UNL     1       2.990  -0.245  -5.261  0.00  0.00    +0.008 C 
BRANCH  14  15
ATOM     15  C   UNL     1       3.592   0.569  -6.331  0.00  0.00    -0.020 A 
ATOM     16  C   UNL     1       3.559   1.971  -6.275  0.00  0.00    +0.025 A 
ATOM     17  C   UNL     1       4.133   2.696  -7.295  0.00  0.00    +0.084 A 
ATOM     18  N   UNL     1       4.710   2.093  -8.318  0.00  0.00    -0.350 N 
ATOM     19  C   UNL     1       4.766   0.773  -8.414  0.00  0.00    +0.094 A 
ATOM     20  C   UNL     1       4.218  -0.035  -7.427  0.00  0.00    +0.049 A 
ATOM     21  N   UNL     1       5.386   0.189  -9.514  0.00  0.00    -0.345 N 
ATOM     22  H   UNL     1       5.775   0.748 -10.205  0.00  0.00    +0.144 HD
ATOM     23  H   UNL     1       5.430  -0.777  -9.589  0.00  0.00    +0.144 HD
ATOM     24  H   UNL     1       5.105   2.632  -9.021  0.00  0.00    +0.166 HD
ENDBRANCH  14  15
ENDBRANCH   3  13
TORSDOF 5
