REMARK  Name = ZINC03082546
REMARK  8 active torsions:
REMARK  status: ('A' for Active; 'I' for Inactive)
REMARK    1  A    between atoms: C_9  and  N_46
REMARK    2  A    between atoms: C_15  and  N_18
REMARK    3  A    between atoms: N_18  and  C_19
REMARK    4  A    between atoms: C_19  and  C_20
REMARK    5  A    between atoms: C_20  and  O_21
REMARK    6  A    between atoms: C_24  and  C_25
REMARK    7  A    between atoms: C_24  and  N_46
REMARK    8  A    between atoms: C_25  and  O_26
REMARK                            x       y       z     vdW  Elec       q    Type
REMARK                         _______ _______ _______ _____ _____    ______ ____
ROOT
ATOM      1  C   UNL     1      -3.045   5.573   7.059  0.00  0.00    +0.001 A 
ATOM      2  C   UNL     1      -2.908   4.219   6.793  0.00  0.00    +0.001 A 
ATOM      3  C   UNL     1      -2.224   3.792   5.675  0.00  0.00    +0.012 A 
ATOM      4  C   UNL     1      -1.665   4.728   4.801  0.00  0.00    +0.030 A 
ATOM      5  C   UNL     1      -1.802   6.101   5.076  0.00  0.00    -0.007 A 
ATOM      6  C   UNL     1      -2.498   6.512   6.210  0.00  0.00    +0.009 A 
ATOM      7  C   UNL     1      -1.194   7.097   4.167  0.00  0.00    -0.012 C 
ATOM      8  C   UNL     1      -1.176   8.403   4.479  0.00  0.00    -0.015 C 
ATOM      9  C   UNL     1      -0.473   9.406   3.602  0.00  0.00    +0.037 C 
ATOM     10  N   UNL     1      -0.414   8.928   2.217  0.00  0.00    -0.354 N 
ATOM     11  C   UNL     1      -0.135   7.579   1.974  0.00  0.00    +0.035 A 
ATOM     12  C   UNL     1      -0.564   6.636   2.912  0.00  0.00    +0.016 A 
ATOM     13  C   UNL     1      -0.389   5.264   2.663  0.00  0.00    +0.053 A 
ATOM     14  C   UNL     1       0.299   4.861   1.508  0.00  0.00    +0.039 A 
ATOM     15  C   UNL     1       0.743   5.816   0.602  0.00  0.00    +0.025 A 
ATOM     16  C   UNL     1       0.522   7.163   0.828  0.00  0.00    +0.025 A 
ATOM     17  C   UNL     1      -0.932   4.277   3.604  0.00  0.00    +0.196 C 
ATOM     18  O   UNL     1      -0.777   3.088   3.396  0.00  0.00    -0.287 OA
ATOM     19  H   UNL     1      -0.567   9.539   1.479  0.00  0.00    +0.144 HD
ENDROOT
BRANCH   9  20
ATOM     20  N   UNL     1       0.899   9.604   4.104  0.00  0.00    +0.395 N 
ATOM     21  H   UNL     1       1.560   9.118   3.486  0.00  0.00    -0.083 HD
ATOM     22  H   UNL     1       0.972   9.220   5.053  0.00  0.00    -0.083 HD
BRANCH  20  23
ATOM     23  C   UNL     1       1.230  11.042   4.135  0.00  0.00    -0.051 C 
BRANCH  23  24
ATOM     24  C   UNL     1       2.657  11.217   4.659  0.00  0.00    +0.137 C 
BRANCH  24  25
ATOM     25  O   UNL     1       3.578  10.633   3.736  0.00  0.00    -0.397 OA
ATOM     26  H   UNL     1       4.504  10.707   4.004  0.00  0.00    +0.209 HD
ENDBRANCH  24  25
ENDBRANCH  23  24
ENDBRANCH  20  23
ENDBRANCH   9  20
BRANCH  14  27
ATOM     27  N   UNL     1       0.530   3.511   1.268  0.00  0.00    -0.341 N 
ATOM     28  H   UNL     1       0.302   2.852   1.942  0.00  0.00    +0.146 HD
BRANCH  27  29
ATOM     29  C   UNL     1       1.119   3.083  -0.004  0.00  0.00    +0.129 C 
BRANCH  29  30
ATOM     30  C   UNL     1       1.266   1.560  -0.011  0.00  0.00    +0.174 C 
BRANCH  30  31
ATOM     31  O   UNL     1      -0.029   0.956   0.029  0.00  0.00    -0.393 OA
ATOM     32  H   UNL     1      -0.012  -0.011   0.027  0.00  0.00    +0.209 HD
ENDBRANCH  30  31
ENDBRANCH  29  30
ENDBRANCH  27  29
ENDBRANCH  14  27
TORSDOF 8
