REMARK  Name = ZINC51112801
REMARK  5 active torsions:
REMARK  status: ('A' for Active; 'I' for Inactive)
REMARK    1  A    between atoms: C_1  and  C_2
REMARK    2  A    between atoms: C_2  and  C_4
REMARK    3  A    between atoms: C_2  and  N_11
REMARK    4  A    between atoms: C_12  and  C_14
REMARK    5  A    between atoms: N_20  and  N_21
REMARK                            x       y       z     vdW  Elec       q    Type
REMARK                         _______ _______ _______ _____ _____    ______ ____
ROOT
ATOM      1  N   UNL     1       0.688  -0.476  -1.203  0.00  0.00    -0.303 N 
ATOM      2  C   UNL     1       0.006  -0.608  -2.358  0.00  0.00    +0.265 C 
ATOM      3  O   UNL     1      -1.177  -0.335  -2.400  0.00  0.00    -0.268 OA
ATOM      4  H   UNL     1       1.632  -0.695  -1.170  0.00  0.00    +0.150 HD
ENDROOT
BRANCH   2   5
ATOM      5  C   UNL     1       0.698  -1.085  -3.575  0.00  0.00    +0.148 A 
ATOM      6  C   UNL     1      -0.007  -1.217  -4.778  0.00  0.00    +0.038 A 
ATOM      7  C   UNL     1       0.683  -1.666  -5.889  0.00  0.00    +0.049 A 
ATOM      8  C   UNL     1       2.040  -1.960  -5.744  0.00  0.00    +0.155 A 
ATOM      9  N   UNL     1       2.629  -1.806  -4.563  0.00  0.00    -0.132 NA
ATOM     10  N   UNL     1       1.991  -1.384  -3.531  0.00  0.00    -0.143 NA
ATOM     11  N   UNL     1       2.772  -2.414  -6.829  0.00  0.00    -0.266 N 
ATOM     12  H   UNL     1       2.341  -2.527  -7.691  0.00  0.00    +0.167 HD
BRANCH  11  13
ATOM     13  N   UNL     1       4.099  -2.701  -6.686  0.00  0.00    -0.255 NA
ATOM     14  H   UNL     1       4.245  -3.380  -5.953  0.00  0.00    +0.140 HD
ATOM     15  H   UNL     1       4.497  -3.019  -7.557  0.00  0.00    +0.140 HD
ENDBRANCH  11  13
ENDBRANCH   2   5
BRANCH   1  17
ATOM     16  C   UNL     1      -0.019   1.526   0.010  0.00  0.00    +0.033 C 
ATOM     17  C   UNL     1       0.002  -0.004   0.002  0.00  0.00    +0.103 C 
BRANCH  17  18
ATOM     18  C   UNL     1       0.731  -0.503   1.223  0.00  0.00    +0.008 A 
ATOM     19  C   UNL     1       2.077  -0.808   1.148  0.00  0.00    +0.008 A 
ATOM     20  C   UNL     1       2.746  -1.266   2.268  0.00  0.00    +0.000 A 
ATOM     21  C   UNL     1       2.069  -1.420   3.464  0.00  0.00    +0.003 A 
ATOM     22  C   UNL     1       0.724  -1.115   3.541  0.00  0.00    +0.039 A 
ATOM     23  C   UNL     1       0.054  -0.651   2.421  0.00  0.00    +0.128 A 
ATOM     24  F   UNL     1      -1.261  -0.349   2.497  0.00  0.00    -0.205 F 
ENDBRANCH  17  18
ENDBRANCH   1  17
TORSDOF 4
