REMARK  Name = ZINC42171470
REMARK  8 active torsions:
REMARK  status: ('A' for Active; 'I' for Inactive)
REMARK    1  A    between atoms: C_1  and  C_2
REMARK    2  A    between atoms: C_3  and  C_21
REMARK    3  A    between atoms: C_5  and  N_11
REMARK    4  A    between atoms: C_6  and  C_7
REMARK    5  A    between atoms: C_7  and  O_9
REMARK    6  A    between atoms: O_9  and  C_10
REMARK    7  A    between atoms: C_12  and  C_14
REMARK    8  A    between atoms: C_14  and  C_15
REMARK                            x       y       z     vdW  Elec       q    Type
REMARK                         _______ _______ _______ _____ _____    ______ ____
ROOT
ATOM      1  N   UNL     1       0.055  -3.118   2.081  0.00  0.00    -0.279 N 
ATOM      2  C   UNL     1       0.072  -4.427   1.760  0.00  0.00    +0.216 C 
ATOM      3  O   UNL     1       0.072  -4.765   0.595  0.00  0.00    -0.276 OA
ATOM      4  H   UNL     1       0.055  -2.848   3.013  0.00  0.00    +0.155 HD
ENDROOT
BRANCH   1   9
ATOM      5  C   UNL     1      -0.018   1.503   0.010  0.00  0.00    +0.045 C 
ATOM      6  C   UNL     1       0.002  -0.004   0.002  0.00  0.00    -0.025 A 
ATOM      7  C   UNL     1       0.007  -0.712  -1.142  0.00  0.00    -0.008 A 
ATOM      8  S   UNL     1       0.033  -2.400  -0.580  0.00  0.00    -0.078 S 
ATOM      9  C   UNL     1       0.037  -2.159   1.081  0.00  0.00    +0.086 A 
ATOM     10  C   UNL     1       0.024  -0.778   1.223  0.00  0.00    +0.091 A 
ATOM     11  C   UNL     1      -0.007  -0.199  -2.559  0.00  0.00    +0.052 C 
BRANCH  10  12
ATOM     12  C   UNL     1       0.028  -0.139   2.540  0.00  0.00    +0.342 C 
ATOM     13  O   UNL     1      -1.024   0.112   3.097  0.00  0.00    -0.245 OA
BRANCH  12  14
ATOM     14  O   UNL     1       1.198   0.171   3.136  0.00  0.00    -0.464 OA
ATOM     15  C   UNL     1       1.127   0.793   4.420  0.00  0.00    +0.280 C 
ENDBRANCH  12  14
ENDBRANCH  10  12
ENDBRANCH   1   9
BRANCH   2  16
ATOM     16  C   UNL     1       0.092  -5.470   2.847  0.00  0.00    +0.080 C 
BRANCH  16  17
ATOM     17  C   UNL     1       0.109  -6.864   2.217  0.00  0.00    -0.063 C 
ATOM     18  C   UNL     1       0.181  -7.952   3.317  0.00  0.00    -0.017 C 
ATOM     19  C   UNL     1      -0.431  -9.177   2.587  0.00  0.00    -0.021 C 
ATOM     20  C   UNL     1      -1.524  -8.542   1.700  0.00  0.00    -0.082 C 
ATOM     21  N   UNL     1      -1.162  -7.124   1.508  0.00  0.00    +0.381 N 
ATOM     22  H   UNL     1      -1.888  -6.535   1.886  0.00  0.00    -0.086 HD
ATOM     23  H   UNL     1      -1.048  -6.931   0.524  0.00  0.00    -0.086 HD
ENDBRANCH  16  17
ENDBRANCH   2  16
TORSDOF 5
