REMARK  Name = ZINC21670988
REMARK  7 active torsions:
REMARK  status: ('A' for Active; 'I' for Inactive)
REMARK    1  A    between atoms: C_1  and  C_2
REMARK    2  A    between atoms: C_2  and  C_4
REMARK    3  A    between atoms: C_2  and  N_15
REMARK    4  A    between atoms: N_9  and  C_10
REMARK    5  A    between atoms: N_15  and  C_16
REMARK    6  A    between atoms: N_15  and  C_17
REMARK    7  A    between atoms: C_17  and  C_18
REMARK                            x       y       z     vdW  Elec       q    Type
REMARK                         _______ _______ _______ _____ _____    ______ ____
ROOT
ATOM      1  C   UNL     1       6.781   2.076   1.238  0.00  0.00    +0.207 C 
ATOM      2  O   UNL     1       6.464   2.617   2.276  0.00  0.00    -0.277 OA
ATOM      3  N   UNL     1       5.848   1.455   0.490  0.00  0.00    -0.242 N 
ATOM      4  C   UNL     1       4.563   1.435   0.895  0.00  0.00    +0.306 C 
ATOM      5  O   UNL     1       4.245   1.978   1.935  0.00  0.00    -0.252 OA
ATOM      6  N   UNL     1       3.630   0.814   0.146  0.00  0.00    -0.296 N 
ATOM      7  H   UNL     1       6.136   0.964  -0.452  0.00  0.00    +0.159 HD
ATOM      8  H   UNL     1       3.917   0.323  -0.795  0.00  0.00    +0.151 HD
ENDROOT
BRANCH   6   9
ATOM      9  C   UNL     1       2.232   0.792   0.586  0.00  0.00    +0.074 C 
ATOM     10  C   UNL     1       1.453   1.995  -0.001  0.00  0.00    +0.022 C 
ATOM     11  C   UNL     1      -0.019   1.534   0.011  0.00  0.00    +0.002 C 
ATOM     12  C   UNL     1       0.002  -0.004   0.002  0.00  0.00    +0.002 C 
ATOM     13  C   UNL     1       1.486  -0.425  -0.014  0.00  0.00    +0.022 C 
ENDBRANCH   6   9
BRANCH   1  15
ATOM     14  C   UNL     1       8.313   2.792  -0.575  0.00  0.00    -0.004 C 
ATOM     15  C   UNL     1       8.218   2.098   0.785  0.00  0.00    +0.017 C 
BRANCH  15  16
ATOM     16  N   UNL     1       9.029   2.831   1.766  0.00  0.00    +0.388 N 
ATOM     17  C   UNL     1       8.575   4.222   1.891  0.00  0.00    -0.095 C 
ATOM     18  H   UNL     1       8.899   2.344   2.744  0.00  0.00    -0.081 HD
BRANCH  16  19
ATOM     19  C   UNL     1      10.456   2.772   1.419  0.00  0.00    -0.035 C 
BRANCH  19  20
ATOM     20  C   UNL     1      11.274   3.315   2.562  0.00  0.00    -0.025 A 
ATOM     21  C   UNL     1      11.798   2.657   3.624  0.00  0.00    +0.011 A 
ATOM     22  C   UNL     1      12.524   3.368   4.562  0.00  0.00    +0.028 A 
ATOM     23  C   UNL     1      12.689   4.703   4.391  0.00  0.00    +0.078 A 
ATOM     24  S   UNL     1      11.810   4.991   2.864  0.00  0.00    -0.084 S 
ATOM     25 CL   UNL     1      13.541   5.837   5.393  0.00  0.00    -0.076 Cl
ENDBRANCH  19  20
ENDBRANCH  16  19
ENDBRANCH  15  16
ENDBRANCH   1  15
TORSDOF 5
