REMARK  Name = ZINC41597940
REMARK  4 active torsions:
REMARK  status: ('A' for Active; 'I' for Inactive)
REMARK    1  A    between atoms: C_1  and  C_2
REMARK    2  A    between atoms: C_5  and  O_20
REMARK    3  A    between atoms: C_6  and  N_8
REMARK    4  A    between atoms: O_20  and  C_21
REMARK                            x       y       z     vdW  Elec       q    Type
REMARK                         _______ _______ _______ _____ _____    ______ ____
ROOT
ATOM      1  N   UNL     1       0.051  -2.794   2.399  0.00  0.00    -0.282 N 
ATOM      2  C   UNL     1      -0.447  -2.217   3.537  0.00  0.00    +0.200 A 
ATOM      3  N   UNL     1      -0.332  -2.866   4.728  0.00  0.00    -0.295 N 
ATOM      4  H   UNL     1       0.101  -3.733   4.775  0.00  0.00    +0.172 HD
ATOM      5  C   UNL     1      -0.824  -2.291   5.838  0.00  0.00    +0.257 A 
ATOM      6  O   UNL     1      -0.729  -2.859   6.914  0.00  0.00    -0.267 OA
ATOM      7  C   UNL     1      -1.456  -1.021   5.758  0.00  0.00    +0.049 A 
ATOM      8  C   UNL     1      -1.543  -0.420   4.546  0.00  0.00    +0.064 A 
ATOM      9  N   UNL     1      -1.026  -1.043   3.469  0.00  0.00    -0.219 NA
ATOM     10  C   UNL     1      -2.228   0.946   4.495  0.00  0.00    +0.125 C 
ATOM     11  S   UNL     1      -3.092   0.993   6.119  0.00  0.00    -0.150 S 
ATOM     12  C   UNL     1      -2.051  -0.275   6.952  0.00  0.00    +0.111 C 
ATOM     13  H   UNL     1       0.401  -3.699   2.427  0.00  0.00    +0.155 HD
ENDROOT
BRANCH   1  19
ATOM     14  C   UNL     1       0.060   1.519   0.039  0.00  0.00    +0.044 C 
ATOM     15  C   UNL     1       0.060   0.012   0.020  0.00  0.00    -0.048 A 
ATOM     16  C   UNL     1       0.065  -0.663  -1.186  0.00  0.00    +0.007 A 
ATOM     17  C   UNL     1       0.065  -2.046  -1.209  0.00  0.00    +0.048 A 
ATOM     18  C   UNL     1       0.061  -2.758  -0.021  0.00  0.00    +0.141 A 
ATOM     19  C   UNL     1       0.056  -2.079   1.195  0.00  0.00    +0.076 A 
ATOM     20  C   UNL     1       0.062  -0.692   1.210  0.00  0.00    +0.030 A 
BRANCH  18  21
ATOM     21  O   UNL     1       0.060  -4.118  -0.043  0.00  0.00    -0.493 OA
ATOM     22  C   UNL     1       0.065  -4.747  -1.326  0.00  0.00    +0.277 C 
ENDBRANCH  18  21
ENDBRANCH   1  19
TORSDOF 2
