REMARK  Name = ZINC04726720
REMARK  9 active torsions:
REMARK  status: ('A' for Active; 'I' for Inactive)
REMARK    1  A    between atoms: C_1  and  C_2
REMARK    2  A    between atoms: C_2  and  C_3
REMARK    3  A    between atoms: N_7  and  N_8
REMARK    4  A    between atoms: C_11  and  C_16
REMARK    5  A    between atoms: C_11  and  C_17
REMARK    6  A    between atoms: C_12  and  C_14
REMARK    7  A    between atoms: C_12  and  C_15
REMARK    8  A    between atoms: C_19  and  C_20
REMARK    9  A    between atoms: C_19  and  C_21
REMARK                            x       y       z     vdW  Elec       q    Type
REMARK                         _______ _______ _______ _____ _____    ______ ____
ROOT
ATOM      1  C   UNL     1      -1.337   3.586   0.042  0.00  0.00    -0.066 C 
ATOM      2  C   UNL     1      -2.817   3.192  -0.031  0.00  0.00    +0.037 C 
ATOM      3  C   UNL     1      -2.917   1.689   0.127  0.00  0.00    +0.038 C 
ATOM      4  N   UNL     1      -3.617   0.976  -0.693  0.00  0.00    -0.159 NA
ATOM      5  C   UNL     1      -2.167   1.049   1.278  0.00  0.00    +0.040 C 
ATOM      6  C   UNL     1      -0.729   1.579   1.267  0.00  0.00    -0.068 C 
ATOM      7  C   UNL     1      -0.013   1.086   0.008  0.00  0.00    -0.010 C 
ATOM      8  C   UNL     1       0.011   1.073   2.506  0.00  0.00    -0.010 C 
ATOM      9  N   UNL     1      -0.744   3.056   1.286  0.00  0.00    +0.385 N 
ATOM     10  H   UNL     1      -1.300   3.377   2.088  0.00  0.00    -0.085 HD
ATOM     11  H   UNL     1       0.218   3.402   1.375  0.00  0.00    -0.085 HD
ENDROOT
BRANCH   4  12
ATOM     12  N   UNL     1      -4.301   1.592  -1.749  0.00  0.00    -0.159 NA
ATOM     13  C   UNL     1      -5.001   0.880  -2.568  0.00  0.00    +0.039 C 
ATOM     14  C   UNL     1      -5.111  -0.622  -2.420  0.00  0.00    +0.040 C 
ATOM     15  C   UNL     1      -4.687  -1.271  -3.741  0.00  0.00    -0.068 C 
ATOM     16  C   UNL     1      -5.326   0.811  -5.017  0.00  0.00    -0.068 C 
ATOM     17  C   UNL     1      -5.753   1.505  -3.721  0.00  0.00    +0.040 C 
ATOM     18  C   UNL     1      -6.367   1.170  -6.101  0.00  0.00    -0.010 C 
ATOM     19  C   UNL     1      -3.978   1.382  -5.474  0.00  0.00    -0.010 C 
ATOM     20  C   UNL     1      -5.159  -2.741  -3.708  0.00  0.00    -0.010 C 
ATOM     21  C   UNL     1      -3.156  -1.286  -3.826  0.00  0.00    -0.010 C 
ATOM     22  N   UNL     1      -5.310  -0.678  -4.957  0.00  0.00    +0.386 N 
ATOM     23  H   UNL     1      -6.282  -1.006  -5.005  0.00  0.00    -0.084 HD
ATOM     24  H   UNL     1      -4.793  -1.021  -5.775  0.00  0.00    -0.084 HD
ENDBRANCH   4  12
BRANCH   1  26
ATOM     25  C   UNL     1       0.264   5.503  -0.011  0.00  0.00    +0.002 C 
ATOM     26  C   UNL     1      -1.214   5.111   0.041  0.00  0.00    -0.019 C 
ENDBRANCH   1  26
TORSDOF 2
