REMARK  Name = ZINC36322085
REMARK  6 active torsions:
REMARK  status: ('A' for Active; 'I' for Inactive)
REMARK    1  A    between atoms: C_1  and  O_2
REMARK    2  A    between atoms: O_2  and  C_3
REMARK    3  A    between atoms: C_8  and  C_9
REMARK    4  A    between atoms: C_10  and  C_22
REMARK    5  A    between atoms: C_13  and  C_18
REMARK    6  A    between atoms: C_22  and  N_23
REMARK                            x       y       z     vdW  Elec       q    Type
REMARK                         _______ _______ _______ _____ _____    ______ ____
ROOT
ATOM      1  C   UNL     1      -0.005  -2.831  -0.011  0.00  0.00    +0.095 A 
ATOM      2  C   UNL     1       0.077  -4.188   0.070  0.00  0.00    +0.034 A 
ATOM      3  N   UNL     1       1.404  -4.513   0.018  0.00  0.00    -0.304 N 
ATOM      4  C   UNL     1       2.060  -5.710   0.058  0.00  0.00    +0.105 A 
ATOM      5  C   UNL     1       3.407  -5.758  -0.013  0.00  0.00    +0.071 A 
ATOM      6  C   UNL     1       4.154  -4.574  -0.128  0.00  0.00    +0.017 A 
ATOM      7  C   UNL     1       3.513  -3.374  -0.169  0.00  0.00    +0.047 A 
ATOM      8  C   UNL     1       2.105  -3.340  -0.094  0.00  0.00    +0.138 A 
ATOM      9  N   UNL     1       1.239  -2.338  -0.116  0.00  0.00    -0.227 NA
ENDROOT
BRANCH   1  15
ATOM     10  C   UNL     1      -1.371  -0.925   0.851  0.00  0.00    +0.129 A 
ATOM     11  C   UNL     1      -2.542  -0.184   0.858  0.00  0.00    +0.046 A 
ATOM     12  C   UNL     1      -3.593  -0.542   0.036  0.00  0.00    +0.004 A 
ATOM     13  C   UNL     1      -3.485  -1.642  -0.796  0.00  0.00    +0.001 A 
ATOM     14  C   UNL     1      -2.325  -2.390  -0.813  0.00  0.00    +0.014 A 
ATOM     15  C   UNL     1      -1.257  -2.034   0.007  0.00  0.00    +0.044 A 
BRANCH  10  17
ATOM     16  C   UNL     1      -0.525   0.570   2.494  0.00  0.00    +0.277 C 
ATOM     17  O   UNL     1      -0.337  -0.574   1.659  0.00  0.00    -0.494 OA
ENDBRANCH  10  17
ENDBRANCH   1  15
BRANCH   5  18
ATOM     18  C   UNL     1       4.114  -7.088   0.032  0.00  0.00    +0.419 C 
ATOM     19  F   UNL     1       4.362  -7.529  -1.272  0.00  0.00    -0.166 F 
ATOM     20  F   UNL     1       5.326  -6.949   0.716  0.00  0.00    -0.166 F 
ATOM     21  F   UNL     1       3.309  -8.021   0.695  0.00  0.00    -0.166 F 
ENDBRANCH   5  18
BRANCH   2  22
ATOM     22  C   UNL     1      -1.076  -5.150   0.194  0.00  0.00    -0.029 C 
BRANCH  22  23
ATOM     23  N   UNL     1      -1.455  -5.281   1.607  0.00  0.00    +0.382 N 
ATOM     24  H   UNL     1      -1.729  -4.379   1.967  0.00  0.00    -0.090 HD
ATOM     25  H   UNL     1      -2.227  -5.925   1.690  0.00  0.00    -0.090 HD
ATOM     26  H   UNL     1      -0.669  -5.629   2.135  0.00  0.00    -0.090 HD
ENDBRANCH  22  23
ENDBRANCH   2  22
TORSDOF 5
