REMARK  Name = ZINC41250638
REMARK  7 active torsions:
REMARK  status: ('A' for Active; 'I' for Inactive)
REMARK    1  A    between atoms: C_1  and  C_2
REMARK    2  A    between atoms: C_2  and  O_3
REMARK    3  A    between atoms: O_3  and  C_4
REMARK    4  A    between atoms: C_12  and  C_14
REMARK    5  A    between atoms: C_14  and  C_16
REMARK    6  A    between atoms: C_14  and  N_17
REMARK    7  A    between atoms: C_18  and  C_20
REMARK                            x       y       z     vdW  Elec       q    Type
REMARK                         _______ _______ _______ _____ _____    ______ ____
ROOT
ATOM      1  C   UNL     1      -0.388  -1.974  -2.783  0.00  0.00    +0.403 C 
ATOM      2  O   UNL     1      -1.136  -2.770  -2.251  0.00  0.00    -0.226 OA
ATOM      3  N   UNL     1       0.607  -2.413  -3.579  0.00  0.00    -0.264 N 
ATOM      4  C   UNL     1       1.524  -1.463  -4.224  0.00  0.00    +0.130 C 
ATOM      5  C   UNL     1       2.963  -1.838  -3.849  0.00  0.00    +0.127 C 
ATOM      6  N   UNL     1       3.151  -3.276  -4.087  0.00  0.00    -0.297 N 
ATOM      7  C   UNL     1       2.234  -4.226  -3.442  0.00  0.00    +0.127 C 
ATOM      8  C   UNL     1       0.798  -3.852  -3.813  0.00  0.00    +0.130 C 
ATOM      9  C   UNL     1       4.146  -3.715  -4.884  0.00  0.00    +0.236 C 
ATOM     10  O   UNL     1       4.840  -2.920  -5.481  0.00  0.00    -0.274 OA
ENDROOT
BRANCH   9  11
ATOM     11  C   UNL     1       4.395  -5.193  -5.032  0.00  0.00    +0.156 C 
ATOM     12  C   UNL     1       5.138  -5.711  -3.798  0.00  0.00    +0.038 C 
BRANCH  11  13
ATOM     13  N   UNL     1       5.207  -5.434  -6.227  0.00  0.00    -0.300 N 
ATOM     14  C   UNL     1       5.149  -6.627  -6.852  0.00  0.00    +0.251 C 
ATOM     15  O   UNL     1       4.422  -7.504  -6.424  0.00  0.00    -0.270 OA
ATOM     16  H   UNL     1       5.787  -4.735  -6.569  0.00  0.00    +0.150 HD
BRANCH  14  17
ATOM     17  C   UNL     1       5.961  -6.868  -8.048  0.00  0.00    +0.074 A 
ATOM     18  C   UNL     1       6.043  -8.007  -8.834  0.00  0.00    +0.021 A 
ATOM     19  C   UNL     1       6.903  -7.934  -9.904  0.00  0.00    +0.008 A 
ATOM     20  C   UNL     1       7.595  -6.787 -10.116  0.00  0.00    +0.046 A 
ATOM     21  S   UNL     1       7.096  -5.770  -8.876  0.00  0.00    -0.092 S 
ENDBRANCH  14  17
ENDBRANCH  11  13
ENDBRANCH   9  11
BRANCH   1  22
ATOM     22  O   UNL     1      -0.552  -0.654  -2.577  0.00  0.00    -0.451 OA
BRANCH  22  24
ATOM     23  C   UNL     1      -1.655   1.266  -1.608  0.00  0.00    +0.048 C 
ATOM     24  C   UNL     1      -1.627  -0.260  -1.721  0.00  0.00    +0.230 C 
ENDBRANCH  22  24
ENDBRANCH   1  22
TORSDOF 5
