REMARK  Name = ZINC36764156
REMARK  7 active torsions:
REMARK  status: ('A' for Active; 'I' for Inactive)
REMARK    1  A    between atoms: C_1  and  C_2
REMARK    2  A    between atoms: C_6  and  C_19
REMARK    3  A    between atoms: C_8  and  C_10
REMARK    4  A    between atoms: C_8  and  N_18
REMARK    5  A    between atoms: C_12  and  C_15
REMARK    6  A    between atoms: C_19  and  C_20
REMARK    7  A    between atoms: C_19  and  C_21
REMARK                            x       y       z     vdW  Elec       q    Type
REMARK                         _______ _______ _______ _____ _____    ______ ____
ROOT
ATOM      1  C   UNL     1       1.676   0.943   0.827  0.00  0.00    +0.007 C 
ATOM      2  C   UNL     1       1.039  -0.407   0.490  0.00  0.00    -0.015 C 
ATOM      3  C   UNL     1      -0.477  -0.241   0.376  0.00  0.00    +0.003 C 
ATOM      4  C   UNL     1      -1.114  -1.591   0.039  0.00  0.00    +0.003 C 
ATOM      5  C   UNL     1      -0.793  -2.596   1.146  0.00  0.00    -0.013 C 
ATOM      6  C   UNL     1       0.724  -2.762   1.260  0.00  0.00    -0.003 C 
ATOM      7  C   UNL     1       1.360  -1.413   1.597  0.00  0.00    -0.002 C 
ENDROOT
BRANCH   6   8
ATOM      8  C   UNL     1       1.040  -3.753   2.351  0.00  0.00    +0.161 A 
ATOM      9  N   UNL     1       1.789  -4.852   2.210  0.00  0.00    -0.197 NA
ATOM     10  C   UNL     1       1.865  -5.490   3.345  0.00  0.00    +0.230 A 
ATOM     11  O   UNL     1       1.159  -4.811   4.257  0.00  0.00    -0.338 OA
ATOM     12  N   UNL     1       0.633  -3.676   3.586  0.00  0.00    -0.063 NA
BRANCH  10  13
ATOM     13  C   UNL     1       2.619  -6.772   3.588  0.00  0.00    +0.078 C 
ATOM     14  C   UNL     1       2.418  -7.465   4.937  0.00  0.00    +0.014 C 
ATOM     15  C   UNL     1       3.735  -6.748   4.634  0.00  0.00    +0.014 C 
ENDBRANCH  10  13
ENDBRANCH   6   8
BRANCH   6  16
ATOM     16  N   UNL     1       1.260  -3.252  -0.016  0.00  0.00    +0.387 N 
ATOM     17  H   UNL     1       1.048  -2.589  -0.747  0.00  0.00    -0.089 HD
ATOM     18  H   UNL     1       2.260  -3.361   0.059  0.00  0.00    -0.089 HD
ATOM     19  H   UNL     1       0.840  -4.142  -0.238  0.00  0.00    -0.089 HD
ENDBRANCH   6  16
BRANCH   5  20
ATOM     20  C   UNL     1      -1.352  -2.086   2.476  0.00  0.00    -0.015 C 
ATOM     21  C   UNL     1      -1.380  -0.557   2.465  0.00  0.00    +0.007 C 
ATOM     22  C   UNL     1      -2.772  -2.621   2.671  0.00  0.00    +0.007 C 
ENDBRANCH   5  20
TORSDOF 4
