REMARK  Name = ZINC20600725
REMARK  8 active torsions:
REMARK  status: ('A' for Active; 'I' for Inactive)
REMARK    1  A    between atoms: C_1  and  N_2
REMARK    2  A    between atoms: N_2  and  C_3
REMARK    3  A    between atoms: N_2  and  C_28
REMARK    4  A    between atoms: C_3  and  C_4
REMARK    5  A    between atoms: C_7  and  C_12
REMARK    6  A    between atoms: N_14  and  C_15
REMARK    7  A    between atoms: C_15  and  C_16
REMARK    8  A    between atoms: C_16  and  N_22
REMARK                            x       y       z     vdW  Elec       q    Type
REMARK                         _______ _______ _______ _____ _____    ______ ____
ROOT
ATOM      1  C   UNL     1      -1.602   3.904  -1.198  0.00  0.00    +0.003 A 
ATOM      2  C   UNL     1      -1.623   2.568  -0.955  0.00  0.00    +0.020 A 
ATOM      3  C   UNL     1      -0.428   1.859  -0.836  0.00  0.00    +0.020 A 
ATOM      4  C   UNL     1       0.778   2.543  -0.971  0.00  0.00    +0.101 A 
ATOM      5  C   UNL     1       0.749   3.938  -1.225  0.00  0.00    +0.261 A 
ATOM      6  O   UNL     1       1.791   4.559  -1.346  0.00  0.00    -0.267 OA
ATOM      7  N   UNL     1      -0.433   4.576  -1.325  0.00  0.00    -0.327 N 
ATOM      8  H   UNL     1      -0.439   5.659  -1.514  0.00  0.00    +0.169 HD
ENDROOT
BRANCH   4   9
ATOM      9  C   UNL     1       2.059   1.830  -0.853  0.00  0.00    +0.249 C 
ATOM     10  O   UNL     1       3.103   2.415  -1.071  0.00  0.00    -0.270 OA
ATOM     11  N   UNL     1       2.077   0.528  -0.504  0.00  0.00    -0.309 N 
ATOM     12  H   UNL     1       1.132  -0.023  -0.387  0.00  0.00    +0.149 HD
BRANCH  11  13
ATOM     13  C   UNL     1       3.354  -0.153  -0.280  0.00  0.00    +0.126 C 
BRANCH  13  14
ATOM     14  C   UNL     1       3.103  -1.643  -0.041  0.00  0.00    +0.038 C 
ATOM     15  C   UNL     1       2.054  -1.813   1.060  0.00  0.00    +0.024 C 
ATOM     16  C   UNL     1       2.560  -1.168   2.351  0.00  0.00    +0.002 C 
ATOM     17  C   UNL     1       3.864  -1.843   2.781  0.00  0.00    +0.000 C 
ATOM     18  C   UNL     1       4.913  -1.673   1.681  0.00  0.00    +0.002 C 
ATOM     19  C   UNL     1       4.407  -2.318   0.389  0.00  0.00    +0.024 C 
BRANCH  14  20
ATOM     20  N   UNL     1       2.616  -2.262  -1.281  0.00  0.00    -0.291 NA
ATOM     21  C   UNL     1       3.645  -2.218  -2.331  0.00  0.00    +0.113 C 
ATOM     22  C   UNL     1       3.119  -2.925  -3.583  0.00  0.00    +0.175 C 
ATOM     23  O   UNL     1       1.897  -2.307  -3.995  0.00  0.00    -0.377 OA
ATOM     24  C   UNL     1       0.873  -2.333  -2.997  0.00  0.00    +0.175 C 
ATOM     25  C   UNL     1       1.376  -1.620  -1.739  0.00  0.00    +0.113 C 
ENDBRANCH  14  20
ENDBRANCH  13  14
ENDBRANCH  11  13
ENDBRANCH   4   9
BRANCH   1  26
ATOM     26  C   UNL     1      -2.903   4.654  -1.322  0.00  0.00    -0.025 C 
BRANCH  26  28
ATOM     27  C   UNL     1      -4.202   6.470  -0.385  0.00  0.00    -0.095 C 
ATOM     28  N   UNL     1      -3.032   5.600  -0.206  0.00  0.00    +0.383 N 
ATOM     29  H   UNL     1      -2.135   6.237  -0.198  0.00  0.00    -0.081 HD
BRANCH  28  30
ATOM     30  C   UNL     1      -3.094   4.892   1.080  0.00  0.00    -0.068 C 
ATOM     31  C   UNL     1      -4.371   4.051   1.137  0.00  0.00    -0.015 C 
ATOM     32  C   UNL     1      -4.436   3.313   2.476  0.00  0.00    -0.002 C 
ATOM     33  C   UNL     1      -4.443   4.330   3.619  0.00  0.00    -0.000 C 
ATOM     34  C   UNL     1      -3.167   5.172   3.561  0.00  0.00    -0.002 C 
ATOM     35  C   UNL     1      -3.102   5.909   2.222  0.00  0.00    -0.015 C 
ENDBRANCH  28  30
ENDBRANCH  26  28
ENDBRANCH   1  26
TORSDOF 7
