REMARK  Name = ZINC45050418
REMARK  6 active torsions:
REMARK  status: ('A' for Active; 'I' for Inactive)
REMARK    1  A    between atoms: C_1  and  N_2
REMARK    2  A    between atoms: N_2  and  C_3
REMARK    3  A    between atoms: C_3  and  C_4
REMARK    4  A    between atoms: N_5  and  O_6
REMARK    5  A    between atoms: C_8  and  C_10
REMARK    6  A    between atoms: C_19  and  O_20
REMARK                            x       y       z     vdW  Elec       q    Type
REMARK                         _______ _______ _______ _____ _____    ______ ____
ROOT
ATOM      1  C   UNL     1      -1.508   0.957  -0.257  0.00  0.00    +0.133 C 
ATOM      2  N   UNL     1      -0.696  -0.255  -0.132  0.00  0.00    -0.293 N 
ATOM      3  C   UNL     1      -0.052  -0.749  -1.209  0.00  0.00    +0.250 C 
ATOM      4  O   UNL     1       0.543  -1.807  -1.129  0.00  0.00    -0.270 OA
ENDROOT
BRANCH   3   5
ATOM      5  C   UNL     1      -0.070  -0.008  -2.482  0.00  0.00    +0.079 A 
ATOM      6  C   UNL     1       0.130   1.385  -2.483  0.00  0.00    +0.017 A 
ATOM      7  C   UNL     1       0.118   2.090  -3.642  0.00  0.00    +0.009 A 
ATOM      8  C   UNL     1      -0.097   1.432  -4.869  0.00  0.00    -0.014 A 
ATOM      9  C   UNL     1      -0.112   2.146  -6.079  0.00  0.00    +0.008 A 
ATOM     10  C   UNL     1      -0.321   1.484  -7.250  0.00  0.00    +0.001 A 
ATOM     11  C   UNL     1      -0.522   0.106  -7.269  0.00  0.00    +0.001 A 
ATOM     12  C   UNL     1      -0.514  -0.618  -6.116  0.00  0.00    +0.012 A 
ATOM     13  C   UNL     1      -0.300   0.031  -4.889  0.00  0.00    +0.024 A 
ATOM     14  C   UNL     1      -0.280  -0.691  -3.678  0.00  0.00    +0.137 A 
BRANCH  14  15
ATOM     15  O   UNL     1      -0.469  -2.032  -3.676  0.00  0.00    -0.505 OA
ATOM     16  H   UNL     1      -1.394  -2.299  -3.593  0.00  0.00    +0.292 HD
ENDBRANCH  14  15
ENDBRANCH   3   5
BRANCH   2  17
ATOM     17  C   UNL     1      -0.583  -0.931   1.163  0.00  0.00    +0.182 C 
BRANCH  17  18
ATOM     18  C   UNL     1      -1.680  -1.956   1.291  0.00  0.00    +0.149 C 
ATOM     19  N   UNL     1      -2.530  -2.117   0.332  0.00  0.00    -0.075 NA
ATOM     20  N   UNL     1      -1.777  -2.722   2.432  0.00  0.00    -0.343 N 
ATOM     21  H   UNL     1      -1.139  -2.601   3.153  0.00  0.00    +0.144 HD
ATOM     22  H   UNL     1      -2.483  -3.381   2.515  0.00  0.00    +0.144 HD
BRANCH  19  23
ATOM     23  O   UNL     1      -3.561  -3.080   0.453  0.00  0.00    -0.408 OA
ATOM     24  H   UNL     1      -4.146  -3.128  -0.315  0.00  0.00    +0.328 HD
ENDBRANCH  19  23
ENDBRANCH  17  18
ENDBRANCH   2  17
TORSDOF 5
