REMARK  Name = ZINC36790001
REMARK  12 active torsions:
REMARK  status: ('A' for Active; 'I' for Inactive)
REMARK    1  A    between atoms: C_1  and  C_2
REMARK    2  A    between atoms: C_2  and  C_3
REMARK    3  A    between atoms: C_3  and  C_4
REMARK    4  A    between atoms: C_8  and  C_21
REMARK    5  A    between atoms: C_10  and  N_13
REMARK    6  A    between atoms: N_13  and  C_14
REMARK    7  A    between atoms: N_13  and  C_15
REMARK    8  A    between atoms: C_15  and  C_17
REMARK    9  A    between atoms: C_15  and  C_18
REMARK   10  A    between atoms: C_18  and  C_19
REMARK   11  A    between atoms: C_19  and  C_20
REMARK   12  A    between atoms: C_21  and  N_22
REMARK                            x       y       z     vdW  Elec       q    Type
REMARK                         _______ _______ _______ _____ _____    ______ ____
ROOT
ATOM      1  C   UNL     1      -2.524   0.518  -1.420  0.00  0.00    -0.012 C 
ATOM      2  C   UNL     1      -1.358  -0.473  -1.402  0.00  0.00    +0.003 C 
ATOM      3  C   UNL     1      -1.162  -1.004   0.019  0.00  0.00    +0.000 C 
ATOM      4  C   UNL     1      -2.438  -1.710   0.481  0.00  0.00    -0.042 C 
ATOM      5  C   UNL     1      -3.604  -0.719   0.464  0.00  0.00    -0.067 C 
ATOM      6  C   UNL     1      -3.800  -0.188  -0.958  0.00  0.00    -0.012 C 
ENDROOT
BRANCH   5   7
ATOM      7  N   UNL     1      -4.829  -1.397   0.907  0.00  0.00    +0.382 N 
ATOM      8  C   UNL     1      -4.759  -2.820   0.549  0.00  0.00    -0.095 C 
ATOM      9  H   UNL     1      -5.628  -0.976   0.457  0.00  0.00    -0.081 HD
BRANCH   7  10
ATOM     10  C   UNL     1      -4.963  -1.264   2.364  0.00  0.00    -0.072 C 
ATOM     11  C   UNL     1      -4.563   0.151   2.786  0.00  0.00    -0.013 C 
BRANCH  10  12
ATOM     12  C   UNL     1      -6.414  -1.526   2.769  0.00  0.00    -0.016 C 
BRANCH  12  13
ATOM     13  C   UNL     1      -6.687  -3.031   2.746  0.00  0.00    -0.005 C 
ATOM     14  C   UNL     1      -8.089  -3.304   3.294  0.00  0.00    +0.004 C 
ENDBRANCH  12  13
ENDBRANCH  10  12
ENDBRANCH   7  10
ENDBRANCH   5   7
BRANCH   1  15
ATOM     15  C   UNL     1      -2.217   1.684  -0.478  0.00  0.00    +0.003 C 
BRANCH  15  17
ATOM     16  C   UNL     1      -0.706   3.631  -0.067  0.00  0.00    +0.004 C 
ATOM     17  C   UNL     1      -1.013   2.465  -1.009  0.00  0.00    -0.003 C 
ENDBRANCH  15  17
ENDBRANCH   1  15
BRANCH   4  18
ATOM     18  C   UNL     1      -2.242  -2.240   1.903  0.00  0.00    -0.085 C 
BRANCH  18  19
ATOM     19  N   UNL     1      -1.002  -3.026   1.965  0.00  0.00    +0.378 N 
ATOM     20  H   UNL     1      -0.872  -3.376   2.902  0.00  0.00    -0.090 HD
ATOM     21  H   UNL     1      -1.063  -3.801   1.322  0.00  0.00    -0.090 HD
ATOM     22  H   UNL     1      -0.220  -2.441   1.713  0.00  0.00    -0.090 HD
ENDBRANCH  18  19
ENDBRANCH   4  18
TORSDOF 8
