REMARK  Name = ZINC63818505
REMARK  6 active torsions:
REMARK  status: ('A' for Active; 'I' for Inactive)
REMARK    1  A    between atoms: C_6  and  C_11
REMARK    2  A    between atoms: N_13  and  C_14
REMARK    3  A    between atoms: C_14  and  C_15
REMARK    4  A    between atoms: C_15  and  N_16
REMARK    5  A    between atoms: C_17  and  C_19
REMARK    6  A    between atoms: N_21  and  C_22
REMARK                            x       y       z     vdW  Elec       q    Type
REMARK                         _______ _______ _______ _____ _____    ______ ____
ROOT
ATOM      1  N   UNL     1       4.056  -6.933  -3.785  0.00  0.00    -0.306 N 
ATOM      2  C   UNL     1       3.641  -8.188  -4.050  0.00  0.00    +0.299 C 
ATOM      3  O   UNL     1       2.878  -8.748  -3.289  0.00  0.00    -0.265 OA
ATOM      4  H   UNL     1       4.665  -6.486  -4.393  0.00  0.00    +0.149 HD
ENDROOT
BRANCH   2   5
ATOM      5  C   UNL     1       4.119  -8.889  -5.278  0.00  0.00    +0.303 C 
ATOM      6  O   UNL     1       4.881  -8.330  -6.038  0.00  0.00    -0.265 OA
ATOM      7  N   UNL     1       3.704 -10.144  -5.542  0.00  0.00    -0.278 N 
ATOM      8  H   UNL     1       3.154 -10.618  -4.899  0.00  0.00    +0.155 HD
BRANCH   7   9
ATOM      9  C   UNL     1       4.063 -10.756  -6.731  0.00  0.00    +0.034 C 
ATOM     10  C   UNL     1       4.739 -11.969  -6.715  0.00  0.00    +0.029 C 
ATOM     11  C   UNL     1       5.099 -12.463  -7.975  0.00  0.00    -0.016 C 
ATOM     12  C   UNL     1       5.254 -13.712  -8.457  0.00  0.00    +0.025 C 
ATOM     13  C   UNL     1       5.346 -13.662  -9.862  0.00  0.00    +0.106 C 
ATOM     14  N   UNL     1       5.356 -12.436 -10.311  0.00  0.00    -0.279 NA
ATOM     15  C   UNL     1       5.360 -11.547  -9.159  0.00  0.00    +0.158 C 
ATOM     16  C   UNL     1       4.297 -10.491  -9.166  0.00  0.00    +0.006 C 
ATOM     17  C   UNL     1       3.725 -10.130  -8.014  0.00  0.00    +0.021 C 
ENDBRANCH   7   9
ENDBRANCH   2   5
BRANCH   1  18
ATOM     18  C   UNL     1       3.587  -6.245  -2.580  0.00  0.00    +0.123 C 
BRANCH  18  19
ATOM     19  C   UNL     1       4.203  -4.846  -2.519  0.00  0.00    +0.123 C 
BRANCH  19  22
ATOM     20  C   UNL     1       4.149  -2.903  -1.050  0.00  0.00    +0.239 C 
ATOM     21  O   UNL     1       4.911  -2.343  -1.810  0.00  0.00    -0.273 OA
ATOM     22  N   UNL     1       3.734  -4.157  -1.314  0.00  0.00    -0.312 N 
ATOM     23  H   UNL     1       3.124  -4.605  -0.706  0.00  0.00    +0.149 HD
BRANCH  20  29
ATOM     24  C   UNL     1       0.871   1.511   0.190  0.00  0.00    +0.001 A 
ATOM     25  C   UNL     1       2.122   2.139   0.269  0.00  0.00    +0.002 A 
ATOM     26  C   UNL     1       3.282   1.450   0.299  0.00  0.00    +0.026 A 
ATOM     27  C   UNL     1       3.276   0.028   0.249  0.00  0.00    +0.043 A 
ATOM     28  N   UNL     1       4.249  -0.850   0.263  0.00  0.00    -0.370 N 
ATOM     29  C   UNL     1       3.666  -2.195   0.190  0.00  0.00    +0.190 C 
ATOM     30  C   UNL     1       2.168  -1.995   0.128  0.00  0.00    +0.016 C 
ATOM     31  C   UNL     1       1.967  -0.658   0.166  0.00  0.00    -0.004 A 
ATOM     32  C   UNL     1       0.752   0.165   0.138  0.00  0.00    +0.010 A 
ATOM     33  H   UNL     1       5.195  -0.645   0.313  0.00  0.00    +0.161 HD
ENDBRANCH  20  29
ENDBRANCH  19  22
ENDBRANCH  18  19
ENDBRANCH   1  18
TORSDOF 6
