REMARK  Name = ZINC52306167
REMARK  6 active torsions:
REMARK  status: ('A' for Active; 'I' for Inactive)
REMARK    1  A    between atoms: C_1  and  C_2
REMARK    2  A    between atoms: C_4  and  C_18
REMARK    3  A    between atoms: C_6  and  N_8
REMARK    4  A    between atoms: C_9  and  S_14
REMARK    5  A    between atoms: C_11  and  C_13
REMARK    6  A    between atoms: S_14  and  N_17
REMARK                            x       y       z     vdW  Elec       q    Type
REMARK                         _______ _______ _______ _____ _____    ______ ____
ROOT
ATOM      1  N   UNL     1       0.085  -2.777   2.408  0.00  0.00    -0.213 N 
ATOM      2  C   UNL     1      -0.576  -2.437   3.538  0.00  0.00    +0.197 A 
ATOM      3  C   UNL     1      -0.349  -3.406   4.455  0.00  0.00    +0.073 A 
ATOM      4  C   UNL     1       0.477  -4.370   3.868  0.00  0.00    +0.062 A 
ATOM      5  N   UNL     1       0.732  -3.998   2.639  0.00  0.00    -0.170 NA
ATOM      6  C   UNL     1       0.980  -5.625   4.532  0.00  0.00    +0.067 C 
ENDROOT
BRANCH   1  12
ATOM      7  C   UNL     1       0.462   1.556   0.112  0.00  0.00    +0.044 C 
ATOM      8  C   UNL     1       0.293   0.059   0.073  0.00  0.00    -0.048 A 
ATOM      9  C   UNL     1       0.164  -0.591  -1.140  0.00  0.00    +0.006 A 
ATOM     10  C   UNL     1       0.008  -1.964  -1.179  0.00  0.00    -0.048 A 
ATOM     11  C   UNL     1      -0.019  -2.691  -0.005  0.00  0.00    +0.031 A 
ATOM     12  C   UNL     1       0.111  -2.042   1.215  0.00  0.00    +0.068 A 
ATOM     13  C   UNL     1       0.273  -0.663   1.250  0.00  0.00    +0.031 A 
ATOM     14  C   UNL     1      -0.133  -2.668  -2.504  0.00  0.00    +0.044 C 
ENDBRANCH   1  12
BRANCH   2  15
ATOM     15  S   UNL     1      -1.555  -0.991   3.774  0.00  0.00    +0.073 S 
ATOM     16  O   UNL     1      -0.677   0.022   4.244  0.00  0.00    -0.152 OA
ATOM     17  O   UNL     1      -2.338  -0.835   2.598  0.00  0.00    -0.152 OA
BRANCH  15  18
ATOM     18  N   UNL     1      -2.612  -1.312   5.008  0.00  0.00    -0.202 NA
ATOM     19  H   UNL     1      -2.599  -2.177   5.445  0.00  0.00    +0.144 HD
ATOM     20  H   UNL     1      -3.244  -0.634   5.293  0.00  0.00    +0.144 HD
ENDBRANCH  15  18
ENDBRANCH   2  15
TORSDOF 3
