REMARK  Name = ZINC51000100
REMARK  8 active torsions:
REMARK  status: ('A' for Active; 'I' for Inactive)
REMARK    1  A    between atoms: C_1  and  C_2
REMARK    2  A    between atoms: C_2  and  C_3
REMARK    3  A    between atoms: C_3  and  N_4
REMARK    4  A    between atoms: C_7  and  C_14
REMARK    5  A    between atoms: C_10  and  C_11
REMARK    6  A    between atoms: C_17  and  O_21
REMARK    7  A    between atoms: C_18  and  C_20
REMARK    8  A    between atoms: O_21  and  C_22
REMARK                            x       y       z     vdW  Elec       q    Type
REMARK                         _______ _______ _______ _____ _____    ______ ____
ROOT
ATOM      1  N   UNL     1       0.738  -1.962  -1.265  0.00  0.00    -0.278 N 
ATOM      2  C   UNL     1       1.730  -2.742  -0.708  0.00  0.00    +0.101 C 
ATOM      3  N   UNL     1       2.795  -2.346  -0.094  0.00  0.00    -0.388 N 
ATOM      4  C   UNL     1       1.289  -4.168  -0.979  0.00  0.00    +0.172 C 
ATOM      5  N   UNL     1       0.018  -4.012  -1.704  0.00  0.00    -0.363 N 
ATOM      6  C   UNL     1      -0.226  -2.755  -1.820  0.00  0.00    +0.080 C 
ATOM      7  H   UNL     1       2.967  -1.398   0.017  0.00  0.00    +0.157 HD
ATOM      8  H   UNL     1       3.423  -2.997   0.257  0.00  0.00    +0.157 HD
ATOM      9  H   UNL     1      -0.541  -4.734  -2.033  0.00  0.00    +0.162 HD
ENDROOT
BRANCH   4  10
ATOM     10  C   UNL     1       1.077  -4.910   0.315  0.00  0.00    -0.018 A 
ATOM     11  C   UNL     1      -0.098  -4.739   1.025  0.00  0.00    +0.009 A 
ATOM     12  C   UNL     1      -0.295  -5.418   2.211  0.00  0.00    +0.046 A 
ATOM     13  C   UNL     1       0.687  -6.273   2.691  0.00  0.00    +0.123 A 
ATOM     14  C   UNL     1       1.864  -6.444   1.976  0.00  0.00    -0.008 A 
ATOM     15  C   UNL     1       2.054  -5.767   0.787  0.00  0.00    +0.013 A 
ATOM     16  C   UNL     1       2.932  -7.373   2.494  0.00  0.00    +0.047 C 
BRANCH  13  17
ATOM     17  O   UNL     1       0.495  -6.942   3.858  0.00  0.00    -0.495 OA
ATOM     18  C   UNL     1      -0.740  -6.717   4.540  0.00  0.00    +0.277 C 
ENDBRANCH  13  17
ENDBRANCH   4  10
BRANCH   6  19
ATOM     19  C   UNL     1      -1.453  -2.210  -2.505  0.00  0.00    +0.051 C 
ATOM     20  C   UNL     1      -2.792  -2.881  -2.195  0.00  0.00    +0.011 C 
ATOM     21  C   UNL     1      -2.127  -3.095  -3.556  0.00  0.00    +0.011 C 
ENDBRANCH   6  19
BRANCH   1  22
ATOM     22  C   UNL     1       0.718  -0.497  -1.257  0.00  0.00    +0.113 C 
BRANCH  22  24
ATOM     23  C   UNL     1      -0.019   1.526   0.010  0.00  0.00    +0.005 C 
ATOM     24  C   UNL     1       0.002  -0.004   0.002  0.00  0.00    +0.016 C 
ENDBRANCH  22  24
ENDBRANCH   1  22
TORSDOF 5
