REMARK  Name = ZINC27519489
REMARK  10 active torsions:
REMARK  status: ('A' for Active; 'I' for Inactive)
REMARK    1  A    between atoms: C_4  and  C_7
REMARK    2  A    between atoms: C_7  and  C_8
REMARK    3  A    between atoms: C_7  and  C_14
REMARK    4  A    between atoms: C_7  and  O_38
REMARK    5  A    between atoms: N_16  and  N_17
REMARK    6  A    between atoms: C_18  and  C_19
REMARK    7  A    between atoms: C_22  and  O_25
REMARK    8  A    between atoms: O_25  and  C_26
REMARK    9  A    between atoms: C_29  and  N_35
REMARK   10  A    between atoms: C_31  and  N_32
REMARK                            x       y       z     vdW  Elec       q    Type
REMARK                         _______ _______ _______ _____ _____    ______ ____
ROOT
ATOM      1  N   UNL     1       0.959  -2.464  -4.220  0.00  0.00    -0.188 NA
ATOM      2  C   UNL     1       2.110  -2.184  -4.752  0.00  0.00    +0.138 C 
ENDROOT
BRANCH   2   3
ATOM      3  C   UNL     1       2.421  -2.642  -6.118  0.00  0.00    -0.005 A 
ATOM      4  C   UNL     1       1.481  -3.383  -6.840  0.00  0.00    +0.013 A 
ATOM      5  C   UNL     1       1.774  -3.804  -8.119  0.00  0.00    +0.047 A 
ATOM      6  C   UNL     1       3.006  -3.503  -8.687  0.00  0.00    +0.129 A 
ATOM      7  C   UNL     1       3.946  -2.772  -7.970  0.00  0.00    +0.047 A 
ATOM      8  C   UNL     1       3.659  -2.342  -6.693  0.00  0.00    +0.013 A 
BRANCH   6   9
ATOM      9  O   UNL     1       3.293  -3.925  -9.945  0.00  0.00    -0.454 OA
BRANCH   9  10
ATOM     10  C   UNL     1       2.344  -4.632 -10.613  0.00  0.00    +0.159 A 
ATOM     11  C   UNL     1       2.312  -6.016 -10.517  0.00  0.00    +0.051 A 
ATOM     12  C   UNL     1       1.346  -6.732 -11.197  0.00  0.00    +0.036 A 
ATOM     13  C   UNL     1       0.411  -6.071 -11.972  0.00  0.00    +0.129 A 
ATOM     14  C   UNL     1       0.440  -4.692 -12.069  0.00  0.00    +0.069 A 
ATOM     15  C   UNL     1       1.401  -3.971 -11.387  0.00  0.00    +0.170 A 
BRANCH  15  16
ATOM     16  N   UNL     1       1.429  -2.494 -11.487  0.00  0.00    +0.060 N 
ATOM     17  O   UNL     1       0.601  -1.914 -12.167  0.00  0.00    -0.126 OA
ATOM     18  O   UNL     1       2.279  -1.859 -10.890  0.00  0.00    -0.126 OA
ENDBRANCH  15  16
BRANCH  13  19
ATOM     19  N   UNL     1      -0.624  -6.841 -12.698  0.00  0.00    +0.057 N 
ATOM     20  O   UNL     1      -0.651  -8.055 -12.613  0.00  0.00    -0.126 OA
ATOM     21  O   UNL     1      -1.448  -6.260 -13.381  0.00  0.00    -0.126 OA
ENDBRANCH  13  19
ENDBRANCH   9  10
ENDBRANCH   6   9
ENDBRANCH   2   3
BRANCH   1  24
ATOM     22  C   UNL     1      -0.531  -2.320  -2.369  0.00  0.00    +0.273 C 
ATOM     23  O   UNL     1      -1.350  -2.958  -2.997  0.00  0.00    -0.270 OA
ATOM     24  N   UNL     1       0.663  -2.029  -2.922  0.00  0.00    -0.204 N 
ATOM     25  H   UNL     1       1.406  -1.450  -2.353  0.00  0.00    +0.177 HD
BRANCH  22  26
ATOM     26  C   UNL     1      -0.850  -1.851  -0.973  0.00  0.00    +0.194 C 
BRANCH  26  30
ATOM     27  C   UNL     1      -5.084  -1.528  -0.509  0.00  0.00    +0.000 A 
ATOM     28  C   UNL     1      -4.451  -2.732  -0.260  0.00  0.00    +0.000 A 
ATOM     29  C   UNL     1      -3.081  -2.836  -0.410  0.00  0.00    +0.007 A 
ATOM     30  C   UNL     1      -2.343  -1.737  -0.809  0.00  0.00    -0.003 A 
ATOM     31  C   UNL     1      -2.975  -0.532  -1.054  0.00  0.00    +0.007 A 
ATOM     32  C   UNL     1      -4.346  -0.429  -0.909  0.00  0.00    +0.000 A 
ENDBRANCH  26  30
BRANCH  26  33
ATOM     33  C   UNL     1      -0.309  -2.843   0.025  0.00  0.00    -0.003 A 
ATOM     34  C   UNL     1       0.032  -4.119  -0.384  0.00  0.00    +0.007 A 
ATOM     35  C   UNL     1       0.532  -5.027   0.530  0.00  0.00    +0.000 A 
ATOM     36  C   UNL     1       0.681  -4.663   1.855  0.00  0.00    +0.000 A 
ATOM     37  C   UNL     1       0.335  -3.389   2.265  0.00  0.00    +0.000 A 
ATOM     38  C   UNL     1      -0.161  -2.479   1.350  0.00  0.00    +0.007 A 
ENDBRANCH  26  33
BRANCH  26  39
ATOM     39  O   UNL     1      -0.247  -0.575  -0.750  0.00  0.00    -0.371 OA
ATOM     40  H   UNL     1       0.844  -0.461  -0.826  0.00  0.00    +0.212 HD
ENDBRANCH  26  39
ENDBRANCH  22  26
ENDBRANCH   1  24
TORSDOF 10
