REMARK  Name = ZINC58833832
REMARK  6 active torsions:
REMARK  status: ('A' for Active; 'I' for Inactive)
REMARK    1  A    between atoms: C_1  and  C_2
REMARK    2  A    between atoms: C_10  and  C_27
REMARK    3  A    between atoms: C_11  and  C_12
REMARK    4  A    between atoms: N_13  and  N_14
REMARK    5  A    between atoms: C_15  and  C_17
REMARK    6  A    between atoms: N_19  and  C_20
REMARK                            x       y       z     vdW  Elec       q    Type
REMARK                         _______ _______ _______ _____ _____    ______ ____
ROOT
ATOM      1  C   UNL     1      -0.104   1.502   0.015  0.00  0.00    +0.046 C 
ATOM      2  C   UNL     1      -0.073  -0.005   0.006  0.00  0.00    -0.027 A 
ATOM      3  C   UNL     1      -0.066  -0.687  -1.191  0.00  0.00    +0.005 A 
ATOM      4  C   UNL     1      -0.038  -2.074  -1.215  0.00  0.00    +0.001 A 
ATOM      5  C   UNL     1      -0.016  -2.789  -0.038  0.00  0.00    +0.010 A 
ATOM      6  C   UNL     1      -0.021  -2.112   1.181  0.00  0.00    +0.009 A 
ATOM      7  C   UNL     1      -0.044  -0.707   1.207  0.00  0.00    +0.050 A 
ATOM      8  N   UNL     1      -0.038  -0.306   2.527  0.00  0.00    -0.353 N 
ATOM      9  H   UNL     1      -0.055   0.617   2.825  0.00  0.00    +0.166 HD
ATOM     10  C   UNL     1      -0.007  -1.397   3.356  0.00  0.00    +0.056 A 
ATOM     11  C   UNL     1      -0.004  -2.551   2.587  0.00  0.00    +0.028 A 
ENDROOT
BRANCH  10  12
ATOM     12  C   UNL     1       0.009  -1.352   4.830  0.00  0.00    -0.001 A 
ATOM     13  C   UNL     1       0.893  -2.161   5.548  0.00  0.00    +0.010 A 
ATOM     14  C   UNL     1       0.902  -2.113   6.926  0.00  0.00    +0.001 A 
ATOM     15  C   UNL     1       0.038  -1.266   7.598  0.00  0.00    +0.000 A 
ATOM     16  C   UNL     1      -0.840  -0.461   6.894  0.00  0.00    +0.001 A 
ATOM     17  C   UNL     1      -0.856  -0.494   5.515  0.00  0.00    +0.010 A 
ENDBRANCH  10  12
BRANCH  11  18
ATOM     18  C   UNL     1       0.027  -3.933   3.076  0.00  0.00    +0.141 C 
ATOM     19  N   UNL     1       0.042  -4.923   2.230  0.00  0.00    -0.187 NA
BRANCH  19  20
ATOM     20  N   UNL     1       0.071  -6.244   2.697  0.00  0.00    -0.199 N 
ATOM     21  C   UNL     1       0.087  -7.268   1.821  0.00  0.00    +0.318 C 
ATOM     22  O   UNL     1       0.075  -7.047   0.627  0.00  0.00    -0.263 OA
ATOM     23  H   UNL     1       0.081  -6.421   3.651  0.00  0.00    +0.178 HD
BRANCH  21  24
ATOM     24  C   UNL     1       0.118  -8.672   2.318  0.00  0.00    +0.305 C 
ATOM     25  O   UNL     1       0.130  -8.894   3.512  0.00  0.00    -0.265 OA
ATOM     26  N   UNL     1       0.134  -9.697   1.442  0.00  0.00    -0.276 N 
ATOM     27  H   UNL     1       0.058  -9.523   0.491  0.00  0.00    +0.155 HD
BRANCH  26  28
ATOM     28  C   UNL     1       0.258 -11.010   1.905  0.00  0.00    +0.052 A 
ATOM     29  C   UNL     1      -0.324 -11.381   3.111  0.00  0.00    +0.025 A 
ATOM     30  C   UNL     1      -0.200 -12.679   3.565  0.00  0.00    +0.002 A 
ATOM     31  C   UNL     1       0.503 -13.610   2.822  0.00  0.00    +0.002 A 
ATOM     32  C   UNL     1       1.084 -13.245   1.621  0.00  0.00    +0.022 A 
ATOM     33  C   UNL     1       0.959 -11.949   1.157  0.00  0.00    +0.062 A 
ATOM     34 CL   UNL     1       1.681 -11.493  -0.354  0.00  0.00    -0.082 Cl
ENDBRANCH  26  28
ENDBRANCH  21  24
ENDBRANCH  19  20
ENDBRANCH  11  18
TORSDOF 5
