REMARK  Name = ZINC51765531
REMARK  5 active torsions:
REMARK  status: ('A' for Active; 'I' for Inactive)
REMARK    1  A    between atoms: C_1  and  C_2
REMARK    2  A    between atoms: N_6  and  C_15
REMARK    3  A    between atoms: C_15  and  C_16
REMARK    4  A    between atoms: N_21  and  C_22
REMARK    5  A    between atoms: C_22  and  C_23
REMARK                            x       y       z     vdW  Elec       q    Type
REMARK                         _______ _______ _______ _____ _____    ______ ____
ROOT
ATOM      1  C   UNL     1      -0.019   1.526   0.010  0.00  0.00    +0.007 C 
ATOM      2  C   UNL     1       0.002  -0.004   0.002  0.00  0.00    -0.014 C 
ATOM      3  C   UNL     1       0.722  -0.500  -1.255  0.00  0.00    -0.015 C 
ATOM      4  C   UNL     1       0.809  -2.027  -1.218  0.00  0.00    -0.077 C 
ATOM      5  N   UNL     1       1.555  -2.449  -0.027  0.00  0.00    +0.387 N 
ATOM      6  C   UNL     1       0.833  -2.040   1.184  0.00  0.00    -0.065 C 
ATOM      7  C   UNL     1       0.746  -0.513   1.240  0.00  0.00    -0.022 C 
ATOM      8  C   UNL     1      -0.013  -0.090   2.499  0.00  0.00    +0.002 C 
ATOM      9  C   UNL     1       0.726  -0.604   3.737  0.00  0.00    +0.000 C 
ATOM     10  C   UNL     1       0.812  -2.130   3.682  0.00  0.00    -0.002 C 
ATOM     11  C   UNL     1       1.574  -2.553   2.420  0.00  0.00    -0.015 C 
ATOM     12  H   UNL     1       2.469  -2.021  -0.034  0.00  0.00    -0.081 HD
ENDROOT
BRANCH   5  13
ATOM     13  C   UNL     1       1.703  -3.911  -0.036  0.00  0.00    +0.019 C 
BRANCH  13  14
ATOM     14  C   UNL     1       2.557  -4.322  -1.208  0.00  0.00    +0.204 C 
ATOM     15  O   UNL     1       2.998  -3.481  -1.961  0.00  0.00    -0.277 OA
ATOM     16  N   UNL     1       2.829  -5.625  -1.419  0.00  0.00    -0.242 N 
ATOM     17  C   UNL     1       3.592  -5.993  -2.467  0.00  0.00    +0.306 C 
ATOM     18  O   UNL     1       4.035  -5.149  -3.222  0.00  0.00    -0.252 OA
ATOM     19  N   UNL     1       3.865  -7.295  -2.678  0.00  0.00    -0.296 N 
ATOM     20  H   UNL     1       2.476  -6.298  -0.817  0.00  0.00    +0.159 HD
ATOM     21  H   UNL     1       3.511  -7.969  -2.076  0.00  0.00    +0.151 HD
BRANCH  19  22
ATOM     22  C   UNL     1       4.694  -7.695  -3.818  0.00  0.00    +0.132 C 
BRANCH  22  23
ATOM     23  C   UNL     1       4.846  -9.194  -3.827  0.00  0.00    -0.016 C 
ATOM     24  C   UNL     1       4.519  -9.879  -4.895  0.00  0.00    +0.005 C 
ENDBRANCH  22  23
ENDBRANCH  19  22
ENDBRANCH  13  14
ENDBRANCH   5  13
TORSDOF 4
