REMARK  Name = ZINC05171528
REMARK  3 active torsions:
REMARK  status: ('A' for Active; 'I' for Inactive)
REMARK    1  A    between atoms: C_3  and  C_8
REMARK    2  A    between atoms: N_10  and  N_11
REMARK    3  A    between atoms: C_12  and  C_13
REMARK                            x       y       z     vdW  Elec       q    Type
REMARK                         _______ _______ _______ _____ _____    ______ ____
ROOT
ATOM      1  N   UNL     1      -1.117  -4.914   0.100  0.00  0.00    -0.291 N 
ATOM      2  C   UNL     1       0.021  -4.293  -0.050  0.00  0.00    +0.121 C 
ATOM      3  N   UNL     1       1.216  -4.995   0.063  0.00  0.00    -0.343 N 
ATOM      4  H   UNL     1       2.175  -4.472  -0.063  0.00  0.00    +0.144 HD
ATOM      5  H   UNL     1       1.202  -6.074   0.279  0.00  0.00    +0.144 HD
ATOM      6  H   UNL     1      -1.136  -6.008   0.213  0.00  0.00    +0.186 HD
ENDROOT
BRANCH   2   7
ATOM      7  C   UNL     1       0.040  -2.847  -0.339  0.00  0.00    +0.099 A 
ATOM      8  C   UNL     1      -0.637  -2.339  -1.433  0.00  0.00    +0.030 A 
ATOM      9  C   UNL     1      -0.581  -0.897  -1.669  0.00  0.00    +0.020 A 
ATOM     10  C   UNL     1      -1.249  -0.330  -2.763  0.00  0.00    +0.031 A 
ATOM     11  C   UNL     1      -1.185   1.029  -2.971  0.00  0.00    +0.042 A 
ATOM     12  C   UNL     1      -0.465   1.838  -2.102  0.00  0.00    +0.023 A 
ATOM     13  C   UNL     1       0.197   1.294  -1.022  0.00  0.00    +0.048 A 
ATOM     14  C   UNL     1       0.149  -0.076  -0.791  0.00  0.00    +0.139 A 
ATOM     15  O   UNL     1       0.798  -0.606   0.267  0.00  0.00    -0.422 OA
ATOM     16  C   UNL     1       0.778  -1.921   0.527  0.00  0.00    +0.348 A 
ATOM     17  O   UNL     1       1.380  -2.353   1.493  0.00  0.00    -0.244 OA
ATOM     18 CL   UNL     1      -2.010   1.736  -4.325  0.00  0.00    -0.084 Cl
ENDBRANCH   2   7
BRANCH   1  21
ATOM     19  C   UNL     1      -3.486  -4.823   0.314  0.00  0.00    +0.262 C 
ATOM     20  O   UNL     1      -3.515  -6.037   0.386  0.00  0.00    -0.269 OA
ATOM     21  N   UNL     1      -2.314  -4.187   0.118  0.00  0.00    -0.224 N 
ATOM     22  H   UNL     1      -2.298  -3.097  -0.029  0.00  0.00    +0.175 HD
BRANCH  19  25
ATOM     23  C   UNL     1      -5.897  -1.943   0.360  0.00  0.00    +0.004 A 
ATOM     24  C   UNL     1      -4.726  -2.664   0.245  0.00  0.00    +0.013 A 
ATOM     25  C   UNL     1      -4.737  -4.046   0.441  0.00  0.00    +0.041 A 
ATOM     26  C   UNL     1      -5.933  -4.690   0.763  0.00  0.00    +0.051 A 
ATOM     27  C   UNL     1      -7.098  -3.957   0.881  0.00  0.00    +0.124 A 
ATOM     28  C   UNL     1      -7.080  -2.586   0.679  0.00  0.00    +0.038 A 
ATOM     29  F   UNL     1      -8.257  -4.577   1.193  0.00  0.00    -0.205 F 
ENDBRANCH  19  25
ENDBRANCH   1  21
TORSDOF 3
