REMARK  Name = ZINC04537846
REMARK  8 active torsions:
REMARK  status: ('A' for Active; 'I' for Inactive)
REMARK    1  A    between atoms: C_8  and  C_16
REMARK    2  A    between atoms: C_17  and  C_18
REMARK    3  A    between atoms: C_17  and  C_20
REMARK    4  A    between atoms: C_21  and  C_29
REMARK    5  A    between atoms: C_22  and  N_28
REMARK    6  A    between atoms: N_23  and  C_25
REMARK    7  A    between atoms: C_25  and  C_26
REMARK    8  A    between atoms: C_26  and  O_27
REMARK                            x       y       z     vdW  Elec       q    Type
REMARK                         _______ _______ _______ _____ _____    ______ ____
ROOT
ATOM      1  C   UNL     1      -2.444   1.013  -0.178  0.00  0.00    +0.032 C 
ATOM      2  C   UNL     1      -2.461  -0.217  -0.765  0.00  0.00    +0.081 C 
ENDROOT
BRANCH   1  10
ATOM      3  C   UNL     1       3.432   1.464   1.505  0.00  0.00    +0.001 A 
ATOM      4  C   UNL     1       3.497   2.854   1.440  0.00  0.00    +0.002 A 
ATOM      5  C   UNL     1       2.410   3.591   1.081  0.00  0.00    +0.026 A 
ATOM      6  C   UNL     1       1.199   2.949   0.769  0.00  0.00    +0.048 A 
ATOM      7  C   UNL     1       1.135   1.535   0.836  0.00  0.00    -0.001 A 
ATOM      8  C   UNL     1       2.277   0.806   1.211  0.00  0.00    +0.010 A 
ATOM      9  C   UNL     1      -0.067   0.875   0.529  0.00  0.00    +0.021 A 
ATOM     10  C   UNL     1      -1.166   1.647   0.159  0.00  0.00    +0.015 A 
ATOM     11  C   UNL     1      -1.022   3.102   0.117  0.00  0.00    +0.107 A 
ATOM     12  N   UNL     1      -2.101   3.887  -0.243  0.00  0.00    -0.316 N 
ATOM     13  C   UNL     1      -1.833   4.610  -1.493  0.00  0.00    +0.106 C 
ATOM     14  C   UNL     1      -3.095   5.352  -1.936  0.00  0.00    +0.019 C 
ATOM     15  C   UNL     1      -3.517   6.332  -0.839  0.00  0.00    +0.003 C 
ATOM     16  C   UNL     1      -3.744   5.561   0.465  0.00  0.00    +0.019 C 
ATOM     17  C   UNL     1      -2.462   4.813   0.839  0.00  0.00    +0.106 C 
ATOM     18  N   UNL     1       0.132   3.749   0.412  0.00  0.00    -0.342 N 
ATOM     19  H   UNL     1       0.208   4.772   0.372  0.00  0.00    +0.167 HD
ENDBRANCH   1  10
BRANCH   2  20
ATOM     20  C   UNL     1      -3.745  -0.923  -0.965  0.00  0.00    +0.122 A 
ATOM     21  C   UNL     1      -3.928  -2.244  -1.578  0.00  0.00    +0.119 A 
ATOM     22  C   UNL     1      -5.295  -2.499  -1.553  0.00  0.00    +0.133 A 
ATOM     23  N   UNL     1      -5.898  -1.438  -0.981  0.00  0.00    -0.247 N 
ATOM     24  N   UNL     1      -4.937  -0.488  -0.623  0.00  0.00    -0.167 NA
BRANCH  22  25
ATOM     25  N   UNL     1      -5.922  -3.635  -2.030  0.00  0.00    -0.342 N 
ATOM     26  H   UNL     1      -5.398  -4.348  -2.427  0.00  0.00    +0.144 HD
ATOM     27  H   UNL     1      -6.887  -3.719  -1.967  0.00  0.00    +0.144 HD
ENDBRANCH  22  25
BRANCH  21  28
ATOM     28  C   UNL     1      -2.903  -3.100  -2.098  0.00  0.00    +0.105 C 
ATOM     29  N   UNL     1      -2.091  -3.778  -2.510  0.00  0.00    -0.191 NA
ENDBRANCH  21  28
BRANCH  23  30
ATOM     30  C   UNL     1      -7.340  -1.303  -0.761  0.00  0.00    +0.173 C 
BRANCH  30  31
ATOM     31  C   UNL     1      -7.702  -1.876   0.611  0.00  0.00    +0.179 C 
BRANCH  31  32
ATOM     32  O   UNL     1      -9.109  -1.745   0.826  0.00  0.00    -0.393 OA
ATOM     33  H   UNL     1      -9.411  -2.088   1.678  0.00  0.00    +0.209 HD
ENDBRANCH  31  32
ENDBRANCH  30  31
ENDBRANCH  23  30
ENDBRANCH   2  20
BRANCH   2  34
ATOM     34  C   UNL     1      -1.236  -0.826  -1.187  0.00  0.00    +0.101 C 
ATOM     35  N   UNL     1      -0.264  -1.308  -1.522  0.00  0.00    -0.191 NA
ENDBRANCH   2  34
TORSDOF 8
