REMARK  Name = ZINC08996668
REMARK  9 active torsions:
REMARK  status: ('A' for Active; 'I' for Inactive)
REMARK    1  A    between atoms: C_1  and  C_2
REMARK    2  A    between atoms: C_4  and  C_33
REMARK    3  A    between atoms: C_6  and  C_8
REMARK    4  A    between atoms: N_10  and  C_11
REMARK    5  A    between atoms: C_11  and  C_13
REMARK    6  A    between atoms: C_11  and  C_17
REMARK    7  A    between atoms: C_13  and  C_14
REMARK    8  A    between atoms: C_14  and  S_15
REMARK    9  A    between atoms: S_15  and  C_16
REMARK                            x       y       z     vdW  Elec       q    Type
REMARK                         _______ _______ _______ _____ _____    ______ ____
ROOT
ATOM      1  C   UNL     1       3.459   5.690  -0.000  0.00  0.00    +0.236 C 
ATOM      2  O   UNL     1       3.940   6.263  -0.955  0.00  0.00    -0.274 OA
ATOM      3  N   UNL     1       3.033   6.396   1.065  0.00  0.00    -0.300 N 
ATOM      4  C   UNL     1       3.051   7.865   1.046  0.00  0.00    +0.107 C 
ATOM      5  C   UNL     1       3.815   8.370   2.268  0.00  0.00    +0.013 C 
ATOM      6  C   UNL     1       3.207   7.763   3.534  0.00  0.00    -0.022 C 
ATOM      7  C   UNL     1       3.321   6.239   3.483  0.00  0.00    +0.013 C 
ATOM      8  C   UNL     1       2.547   5.711   2.271  0.00  0.00    +0.107 C 
ATOM      9  C   UNL     1       3.928   8.289   4.746  0.00  0.00    +0.027 A 
ATOM     10  C   UNL     1       3.425   9.243   5.562  0.00  0.00    +0.059 A 
ATOM     11  N   UNL     1       4.314   9.470   6.529  0.00  0.00    -0.241 NA
ATOM     12  C   UNL     1       5.351   8.694   6.347  0.00  0.00    +0.196 A 
ATOM     13  N   UNL     1       5.145   7.942   5.241  0.00  0.00    -0.349 N 
ATOM     14  H   UNL     1       5.770   7.260   4.860  0.00  0.00    +0.166 HD
ATOM     15  C   UNL     1       2.079   9.889   5.340  0.00  0.00    +0.038 C 
ATOM     16  C   UNL     1       1.641   9.585   3.901  0.00  0.00    -0.075 C 
ATOM     17  N   UNL     1       1.779   8.139   3.630  0.00  0.00    +0.387 N 
ATOM     18  H   UNL     1       1.341   7.609   4.392  0.00  0.00    -0.085 HD
ATOM     19  H   UNL     1       1.310   7.915   2.744  0.00  0.00    -0.085 HD
ENDROOT
BRANCH   1  20
ATOM     20  C   UNL     1       3.338   4.187  -0.006  0.00  0.00    +0.160 C 
BRANCH  20  23
ATOM     21  C   UNL     1       4.695   2.366  -0.889  0.00  0.00    +0.245 C 
ATOM     22  O   UNL     1       4.355   1.690   0.062  0.00  0.00    -0.270 OA
ATOM     23  N   UNL     1       4.241   3.629  -1.016  0.00  0.00    -0.300 N 
ATOM     24  H   UNL     1       4.513   4.168  -1.775  0.00  0.00    +0.150 HD
BRANCH  21  30
ATOM     25  C   UNL     1       7.273   2.876  -5.131  0.00  0.00    +0.044 C 
ATOM     26  C   UNL     1       6.848   2.043  -3.949  0.00  0.00    -0.049 A 
ATOM     27  C   UNL     1       7.312   0.746  -3.817  0.00  0.00    +0.006 A 
ATOM     28  C   UNL     1       6.927  -0.026  -2.735  0.00  0.00    -0.049 A 
ATOM     29  C   UNL     1       6.077   0.495  -1.780  0.00  0.00    +0.016 A 
ATOM     30  C   UNL     1       5.606   1.802  -1.908  0.00  0.00    +0.037 A 
ATOM     31  C   UNL     1       5.994   2.573  -3.005  0.00  0.00    +0.016 A 
ATOM     32  C   UNL     1       7.437  -1.437  -2.598  0.00  0.00    +0.044 C 
ENDBRANCH  21  30
ENDBRANCH  20  23
BRANCH  20  33
ATOM     33  C   UNL     1       1.897   3.793  -0.336  0.00  0.00    +0.042 C 
BRANCH  33  34
ATOM     34  C   UNL     1       1.740   2.277  -0.201  0.00  0.00    +0.071 C 
BRANCH  34  35
ATOM     35  S   UNL     1       0.032   1.809  -0.593  0.00  0.00    -0.164 S 
ATOM     36  C   UNL     1       0.012   0.007  -0.388  0.00  0.00    +0.084 C 
ENDBRANCH  34  35
ENDBRANCH  33  34
ENDBRANCH  20  33
ENDBRANCH   1  20
TORSDOF 6
