REMARK  Name = ZINC41142906
REMARK  9 active torsions:
REMARK  status: ('A' for Active; 'I' for Inactive)
REMARK    1  A    between atoms: C_1  and  C_2
REMARK    2  A    between atoms: C_5  and  N_9
REMARK    3  A    between atoms: C_7  and  C_8
REMARK    4  A    between atoms: C_10  and  C_18
REMARK    5  A    between atoms: C_13  and  C_15
REMARK    6  A    between atoms: C_15  and  C_16
REMARK    7  A    between atoms: C_16  and  N_17
REMARK    8  A    between atoms: C_23  and  O_24
REMARK    9  A    between atoms: O_24  and  C_25
REMARK                            x       y       z     vdW  Elec       q    Type
REMARK                         _______ _______ _______ _____ _____    ______ ____
ROOT
ATOM      1  N   UNL     1       0.059  -4.167  -0.021  0.00  0.00    -0.217 N 
ATOM      2  C   UNL     1       0.071  -5.018  -1.222  0.00  0.00    +0.137 C 
ATOM      3  C   UNL     1       0.090  -6.447  -0.642  0.00  0.00    +0.081 C 
ATOM      4  C   UNL     1       0.087  -6.229   0.854  0.00  0.00    +0.037 C 
ATOM      5  N   UNL     1       0.077  -4.985   1.107  0.00  0.00    -0.188 NA
ENDROOT
BRANCH   1  10
ATOM      6  C   UNL     1      -0.018   1.503   0.010  0.00  0.00    +0.044 C 
ATOM      7  C   UNL     1       0.002  -0.004   0.002  0.00  0.00    -0.047 A 
ATOM      8  C   UNL     1       0.006  -0.687  -1.201  0.00  0.00    +0.005 A 
ATOM      9  C   UNL     1       0.025  -2.068  -1.212  0.00  0.00    +0.025 A 
ATOM     10  C   UNL     1       0.041  -2.771  -0.013  0.00  0.00    +0.052 A 
ATOM     11  C   UNL     1       0.037  -2.081   1.193  0.00  0.00    +0.028 A 
ATOM     12  C   UNL     1       0.023  -0.700   1.197  0.00  0.00    -0.046 A 
ATOM     13  C   UNL     1       0.025   0.049   2.504  0.00  0.00    +0.044 C 
ENDBRANCH   1  10
BRANCH   2  14
ATOM     14  C   UNL     1      -1.170  -4.792  -2.046  0.00  0.00    +0.017 A 
ATOM     15  C   UNL     1      -2.278  -4.193  -1.478  0.00  0.00    +0.009 A 
ATOM     16  C   UNL     1      -3.417  -3.985  -2.233  0.00  0.00    +0.001 A 
ATOM     17  C   UNL     1      -3.451  -4.376  -3.559  0.00  0.00    +0.004 A 
ATOM     18  C   UNL     1      -2.346  -4.975  -4.132  0.00  0.00    +0.046 A 
ATOM     19  C   UNL     1      -1.200  -5.180  -3.378  0.00  0.00    +0.125 A 
BRANCH  19  20
ATOM     20  O   UNL     1      -0.110  -5.764  -3.941  0.00  0.00    -0.495 OA
ATOM     21  C   UNL     1      -0.211  -6.138  -5.316  0.00  0.00    +0.277 C 
ENDBRANCH  19  20
ENDBRANCH   2  14
BRANCH   4  22
ATOM     22  C   UNL     1       0.102  -7.324   1.889  0.00  0.00    +0.033 C 
BRANCH  22  23
ATOM     23  C   UNL     1       0.094  -6.704   3.288  0.00  0.00    -0.081 C 
BRANCH  23  24
ATOM     24  N   UNL     1       0.109  -7.771   4.297  0.00  0.00    +0.378 N 
ATOM     25  H   UNL     1      -0.707  -8.353   4.183  0.00  0.00    -0.090 HD
ATOM     26  H   UNL     1       0.940  -8.331   4.183  0.00  0.00    -0.090 HD
ATOM     27  H   UNL     1       0.103  -7.362   5.220  0.00  0.00    -0.090 HD
ENDBRANCH  23  24
ENDBRANCH  22  23
ENDBRANCH   4  22
TORSDOF 6
