REMARK  Name = ZINC47350895
REMARK  5 active torsions:
REMARK  status: ('A' for Active; 'I' for Inactive)
REMARK    1  A    between atoms: C_1  and  C_2
REMARK    2  A    between atoms: N_10  and  C_11
REMARK    3  A    between atoms: N_10  and  C_12
REMARK    4  A    between atoms: C_12  and  C_13
REMARK    5  A    between atoms: C_18  and  O_19
REMARK                            x       y       z     vdW  Elec       q    Type
REMARK                         _______ _______ _______ _____ _____    ______ ____
ROOT
ATOM      1  C   UNL     1      -0.018   1.503   0.010  0.00  0.00    +0.053 C 
ATOM      2  C   UNL     1       0.002  -0.004   0.002  0.00  0.00    +0.008 A 
ATOM      3  C   UNL     1      -1.030  -0.883   0.002  0.00  0.00    +0.124 A 
ATOM      4  N   UNL     1      -0.725  -2.167  -0.007  0.00  0.00    -0.233 NA
ATOM      5  C   UNL     1       0.528  -2.568  -0.015  0.00  0.00    +0.166 A 
ATOM      6  S   UNL     1       1.393  -1.124  -0.018  0.00  0.00    -0.057 S 
ATOM      7  N   UNL     1       1.019  -3.869  -0.024  0.00  0.00    -0.248 N 
ATOM      8  C   UNL     1       0.165  -4.911  -0.026  0.00  0.00    +0.308 C 
ATOM      9  O   UNL     1      -1.035  -4.714  -0.020  0.00  0.00    -0.252 OA
ATOM     10  N   UNL     1       0.641  -6.172  -0.035  0.00  0.00    -0.284 N 
ATOM     11  C   UNL     1       2.087  -6.409  -0.042  0.00  0.00    +0.134 C 
ATOM     12  H   UNL     1       1.976  -4.026  -0.029  0.00  0.00    +0.158 HD
ENDROOT
BRANCH  10  13
ATOM     13  C   UNL     1      -0.287  -7.305  -0.037  0.00  0.00    +0.147 C 
BRANCH  13  14
ATOM     14  C   UNL     1      -0.612  -7.686  -1.458  0.00  0.00    +0.011 A 
ATOM     15  C   UNL     1      -1.793  -7.262  -2.035  0.00  0.00    +0.009 A 
ATOM     16  C   UNL     1      -2.091  -7.612  -3.339  0.00  0.00    +0.001 A 
ATOM     17  C   UNL     1      -1.209  -8.386  -4.069  0.00  0.00    +0.004 A 
ATOM     18  C   UNL     1      -0.026  -8.813  -3.497  0.00  0.00    +0.046 A 
ATOM     19  C   UNL     1       0.278  -8.459  -2.190  0.00  0.00    +0.122 A 
BRANCH  19  20
ATOM     20  O   UNL     1       1.444  -8.873  -1.627  0.00  0.00    -0.506 OA
ATOM     21  H   UNL     1       1.381  -9.726  -1.175  0.00  0.00    +0.292 HD
ENDBRANCH  19  20
ENDBRANCH  13  14
ENDBRANCH  10  13
TORSDOF 3
