REMARK  Name = ZINC51821008
REMARK  7 active torsions:
REMARK  status: ('A' for Active; 'I' for Inactive)
REMARK    1  A    between atoms: C_1  and  C_2
REMARK    2  A    between atoms: C_2  and  C_4
REMARK    3  A    between atoms: C_2  and  O_20
REMARK    4  A    between atoms: C_4  and  N_5
REMARK    5  A    between atoms: N_5  and  C_6
REMARK    6  A    between atoms: N_5  and  C_7
REMARK    7  A    between atoms: C_12  and  N_13
REMARK                            x       y       z     vdW  Elec       q    Type
REMARK                         _______ _______ _______ _____ _____    ______ ____
ROOT
ATOM      1  C   UNL     1      -0.270  -2.692   1.844  0.00  0.00    +0.062 A 
ATOM      2  C   UNL     1      -1.389  -3.053   1.110  0.00  0.00    +0.049 A 
ATOM      3  C   UNL     1      -2.420  -3.767   1.715  0.00  0.00    +0.039 A 
ATOM      4  C   UNL     1      -2.307  -4.107   3.058  0.00  0.00    -0.015 A 
ATOM      5  C   UNL     1      -1.195  -3.749   3.788  0.00  0.00    +0.040 A 
ATOM      6  C   UNL     1      -0.170  -3.044   3.185  0.00  0.00    +0.147 A 
ATOM      7  C   UNL     1      -3.567  -4.864   3.412  0.00  0.00    +0.133 C 
ATOM      8  C   UNL     1      -4.356  -4.889   2.120  0.00  0.00    +0.222 C 
ATOM      9  O   UNL     1      -5.442  -5.401   1.950  0.00  0.00    -0.275 OA
ATOM     10  N   UNL     1      -3.627  -4.238   1.198  0.00  0.00    -0.285 N 
ATOM     11  H   UNL     1      -3.908  -4.111   0.278  0.00  0.00    +0.155 HD
ENDROOT
BRANCH   6  12
ATOM     12  N   UNL     1       1.028  -2.662   3.965  0.00  0.00    +0.058 N 
ATOM     13  O   UNL     1       1.113  -2.969   5.131  0.00  0.00    -0.126 OA
ATOM     14  O   UNL     1       1.922  -2.042   3.437  0.00  0.00    -0.126 OA
ENDBRANCH   6  12
BRANCH   1  15
ATOM     15  N   UNL     1       0.762  -1.976   1.234  0.00  0.00    -0.329 N 
ATOM     16  C   UNL     1       1.864  -2.690   0.585  0.00  0.00    +0.129 C 
BRANCH  15  17
ATOM     17  C   UNL     1       0.742  -0.511   1.242  0.00  0.00    +0.135 C 
BRANCH  17  19
ATOM     18  C   UNL     1      -0.019   1.526   0.010  0.00  0.00    +0.039 C 
ATOM     19  C   UNL     1       0.002  -0.004   0.002  0.00  0.00    +0.129 C 
BRANCH  19  20
ATOM     20  O   UNL     1       0.671  -0.465  -1.174  0.00  0.00    -0.391 OA
ATOM     21  H   UNL     1       1.588  -0.167  -1.247  0.00  0.00    +0.210 HD
ENDBRANCH  19  20
ENDBRANCH  17  19
ENDBRANCH  15  17
ENDBRANCH   1  15
TORSDOF 5
