REMARK  Name = ZINC00403263
REMARK  8 active torsions:
REMARK  status: ('A' for Active; 'I' for Inactive)
REMARK    1  A    between atoms: C_1  and  C_2
REMARK    2  A    between atoms: C_2  and  C_22
REMARK    3  A    between atoms: C_5  and  C_8
REMARK    4  A    between atoms: C_8  and  N_9
REMARK    5  A    between atoms: N_12  and  C_13
REMARK    6  A    between atoms: C_13  and  C_14
REMARK    7  A    between atoms: C_18  and  C_20
REMARK    8  A    between atoms: C_18  and  C_21
REMARK                            x       y       z     vdW  Elec       q    Type
REMARK                         _______ _______ _______ _____ _____    ______ ____
ROOT
ATOM      1  N   UNL     1       1.356   2.033   0.000  0.00  0.00    -0.297 N 
ATOM      2  C   UNL     1       1.584   3.361   0.005  0.00  0.00    +0.300 C 
ATOM      3  O   UNL     1       0.649   4.139   0.018  0.00  0.00    -0.253 OA
ATOM      4  N   UNL     1       2.848   3.828  -0.005  0.00  0.00    -0.297 N 
ATOM      5  H   UNL     1       2.102   1.413  -0.010  0.00  0.00    +0.150 HD
ATOM      6  H   UNL     1       3.594   3.207  -0.015  0.00  0.00    +0.150 HD
ENDROOT
BRANCH   1   7
ATOM      7  C   UNL     1      -0.019   1.526   0.010  0.00  0.00    +0.139 C 
BRANCH   7  12
ATOM      8  C   UNL     1       0.910  -2.871  -0.877  0.00  0.00    +0.074 C 
ATOM      9  C   UNL     1      -0.072  -1.816  -1.390  0.00  0.00    +0.165 C 
ATOM     10  O   UNL     1      -1.279  -1.865  -0.619  0.00  0.00    -0.347 OA
ATOM     11  C   UNL     1      -1.437  -0.578   0.013  0.00  0.00    +0.196 C 
ATOM     12  C   UNL     1       0.002  -0.004   0.002  0.00  0.00    +0.164 C 
ATOM     13  O   UNL     1       0.511  -0.509  -1.256  0.00  0.00    -0.342 OA
ATOM     14  C   UNL     1      -0.391  -2.084  -2.862  0.00  0.00    +0.074 C 
ENDBRANCH   7  12
ENDBRANCH   1   7
BRANCH   4  15
ATOM     15  C   UNL     1       3.096   5.271   0.001  0.00  0.00    +0.139 C 
BRANCH  15  16
ATOM     16  C   UNL     1       4.604   5.530  -0.012  0.00  0.00    +0.164 C 
ATOM     17  C   UNL     1       4.907   7.049  -0.007  0.00  0.00    +0.196 C 
ATOM     18  O   UNL     1       6.211   7.120   0.604  0.00  0.00    -0.347 OA
ATOM     19  C   UNL     1       6.396   5.913   1.356  0.00  0.00    +0.165 C 
ATOM     20  O   UNL     1       5.214   5.104   1.230  0.00  0.00    -0.342 OA
ATOM     21  C   UNL     1       7.603   5.148   0.812  0.00  0.00    +0.074 C 
ATOM     22  C   UNL     1       6.625   6.256   2.829  0.00  0.00    +0.074 C 
ENDBRANCH  15  16
ENDBRANCH   4  15
TORSDOF 4
