REMARK  Name = ZINC55064294
REMARK  8 active torsions:
REMARK  status: ('A' for Active; 'I' for Inactive)
REMARK    1  A    between atoms: C_1  and  C_2
REMARK    2  A    between atoms: C_2  and  C_3
REMARK    3  A    between atoms: C_3  and  C_5
REMARK    4  A    between atoms: C_3  and  N_6
REMARK    5  A    between atoms: N_9  and  C_12
REMARK    6  A    between atoms: C_12  and  C_14
REMARK    7  A    between atoms: C_12  and  C_16
REMARK    8  A    between atoms: C_14  and  N_15
REMARK                            x       y       z     vdW  Elec       q    Type
REMARK                         _______ _______ _______ _____ _____    ______ ____
ROOT
ATOM      1  C   UNL     1      -4.768   2.111  -3.486  0.00  0.00    +0.072 C 
ENDROOT
BRANCH   1   2
ATOM      2  C   UNL     1      -6.197   1.704  -3.236  0.00  0.00    +0.003 A 
ATOM      3  C   UNL     1      -6.625   1.441  -1.948  0.00  0.00    +0.009 A 
ATOM      4  C   UNL     1      -7.935   1.068  -1.717  0.00  0.00    +0.016 A 
ATOM      5  C   UNL     1      -8.820   0.956  -2.775  0.00  0.00    +0.021 A 
ATOM      6  C   UNL     1      -8.394   1.218  -4.064  0.00  0.00    +0.054 A 
ATOM      7  C   UNL     1      -7.082   1.598  -4.295  0.00  0.00    +0.129 A 
ATOM      8  F   UNL     1      -6.666   1.859  -5.553  0.00  0.00    -0.205 F 
ATOM      9 BR   UNL     1     -10.613   0.445  -2.458  0.00  0.00    -0.050 Br
ENDBRANCH   1   2
BRANCH   1  13
ATOM     10  N   UNL     1      -1.678   0.161  -1.361  0.00  0.00    +0.383 N 
ATOM     11  C   UNL     1      -3.042  -0.369  -1.237  0.00  0.00    -0.063 C 
ATOM     12  C   UNL     1      -3.891   0.127  -2.410  0.00  0.00    +0.066 C 
ATOM     13  N   UNL     1      -3.915   1.597  -2.407  0.00  0.00    -0.301 NA
ATOM     14  C   UNL     1      -2.554   2.141  -2.506  0.00  0.00    +0.066 C 
ATOM     15  C   UNL     1      -1.716   1.629  -1.332  0.00  0.00    -0.063 C 
ATOM     16  H   UNL     1      -1.276  -0.148  -2.234  0.00  0.00    -0.081 HD
BRANCH  10  17
ATOM     17  C   UNL     1      -0.859  -0.330  -0.245  0.00  0.00    -0.072 C 
ATOM     18  C   UNL     1      -1.537   0.025   1.080  0.00  0.00    -0.013 C 
BRANCH  17  20
ATOM     19  C   UNL     1       0.051  -2.199  -1.631  0.00  0.00    +0.002 C 
ATOM     20  C   UNL     1      -0.710  -1.849  -0.351  0.00  0.00    -0.019 C 
ENDBRANCH  17  20
ENDBRANCH  10  17
ENDBRANCH   1  13
BRANCH   1  21
ATOM     21  C   UNL     1      -4.673   3.638  -3.528  0.00  0.00    -0.062 C 
BRANCH  21  22
ATOM     22  N   UNL     1      -4.999   4.185  -2.204  0.00  0.00    +0.379 N 
ATOM     23  H   UNL     1      -4.309   3.880  -1.534  0.00  0.00    -0.090 HD
ATOM     24  H   UNL     1      -5.002   5.193  -2.248  0.00  0.00    -0.090 HD
ATOM     25  H   UNL     1      -5.911   3.858  -1.921  0.00  0.00    -0.090 HD
ENDBRANCH  21  22
ENDBRANCH   1  21
TORSDOF 6
