REMARK  Name = ZINC02388217
REMARK  0 active torsions:
REMARK  status: ('A' for Active; 'I' for Inactive)
REMARK                            x       y       z     vdW  Elec       q    Type
REMARK                         _______ _______ _______ _____ _____    ______ ____
ROOT
ATOM      1  C   UNL     1      -0.016   1.357   0.009  0.00  0.00    +0.001 A 
ATOM      2  C   UNL     1       1.171   2.086   0.002  0.00  0.00    +0.001 A 
ATOM      3  C   UNL     1       2.379   1.459   0.021  0.00  0.00    +0.009 A 
ATOM      4  C   UNL     1       2.440   0.056   0.081  0.00  0.00    -0.009 A 
ATOM      5  C   UNL     1       1.232  -0.682  -0.016  0.00  0.00    -0.017 A 
ATOM      6  C   UNL     1       0.002  -0.004   0.002  0.00  0.00    +0.008 A 
ATOM      7  C   UNL     1       1.292  -2.078  -0.162  0.00  0.00    +0.012 A 
ATOM      8  C   UNL     1       2.499  -2.695  -0.185  0.00  0.00    +0.046 A 
ATOM      9  C   UNL     1       3.692  -1.984   0.007  0.00  0.00    +0.126 A 
ATOM     10  C   UNL     1       3.662  -0.626   0.228  0.00  0.00    +0.025 A 
ATOM     11  C   UNL     1       4.897   0.065   0.638  0.00  0.00    +0.150 C 
ATOM     12  C   UNL     1       5.960  -0.999   1.065  0.00  0.00    +0.082 C 
ATOM     13  C   UNL     1       6.096  -1.950  -0.102  0.00  0.00    +0.237 C 
ATOM     14  O   UNL     1       4.856  -2.691  -0.089  0.00  0.00    -0.491 OA
ATOM     15  C   UNL     1       7.112  -0.039   1.370  0.00  0.00    +0.199 C 
ATOM     16  O   UNL     1       6.430   1.095   1.979  0.00  0.00    -0.275 OA
ATOM     17  N   UNL     1       5.008   0.929   1.797  0.00  0.00    -0.157 N 
ATOM     18  C   UNL     1       4.048   1.448   2.574  0.00  0.00    +0.323 C 
ATOM     19  O   UNL     1       2.880   1.206   2.340  0.00  0.00    -0.251 OA
ATOM     20  N   UNL     1       4.378   2.237   3.615  0.00  0.00    -0.312 N 
ATOM     21  H   UNL     1       5.310   2.430   3.802  0.00  0.00    +0.147 HD
ATOM     22  H   UNL     1       3.683   2.613   4.178  0.00  0.00    +0.147 HD
ENDROOT
TORSDOF 0
