REMARK  Name = ZINC39620402
REMARK  6 active torsions:
REMARK  status: ('A' for Active; 'I' for Inactive)
REMARK    1  A    between atoms: C_4  and  N_7
REMARK    2  A    between atoms: C_8  and  N_13
REMARK    3  A    between atoms: N_13  and  C_14
REMARK    4  A    between atoms: C_14  and  C_15
REMARK    5  A    between atoms: C_15  and  C_17
REMARK    6  A    between atoms: C_15  and  C_22
REMARK                            x       y       z     vdW  Elec       q    Type
REMARK                         _______ _______ _______ _____ _____    ______ ____
ROOT
ATOM      1  C   UNL     1       2.497  -4.741  -2.400  0.00  0.00    +0.072 C 
ENDROOT
BRANCH   1   2
ATOM      2  C   UNL     1       2.258  -6.218  -2.214  0.00  0.00    -0.013 A 
ATOM      3  C   UNL     1       0.968  -6.908  -2.292  0.00  0.00    +0.003 A 
ATOM      4  C   UNL     1      -0.342  -6.492  -2.538  0.00  0.00    +0.010 A 
ATOM      5  C   UNL     1      -1.355  -7.410  -2.544  0.00  0.00    +0.001 A 
ATOM      6  C   UNL     1      -1.092  -8.752  -2.308  0.00  0.00    +0.002 A 
ATOM      7  C   UNL     1       0.194  -9.184  -2.063  0.00  0.00    +0.026 A 
ATOM      8  C   UNL     1       1.240  -8.268  -2.053  0.00  0.00    +0.047 A 
ATOM      9  N   UNL     1       2.597  -8.380  -1.847  0.00  0.00    -0.360 N 
ATOM     10  C   UNL     1       3.187  -7.150  -1.952  0.00  0.00    +0.088 A 
ATOM     11  H   UNL     1       3.065  -9.209  -1.658  0.00  0.00    +0.165 HD
ENDBRANCH   1   2
BRANCH   1  12
ATOM     12  C   UNL     1       3.440  -4.527  -3.555  0.00  0.00    -0.002 A 
ATOM     13  C   UNL     1       3.238  -3.836  -4.705  0.00  0.00    +0.012 A 
ATOM     14  C   UNL     1       4.258  -3.771  -5.635  0.00  0.00    +0.008 A 
ATOM     15  C   UNL     1       5.430  -4.400  -5.371  0.00  0.00    +0.045 A 
ATOM     16  S   UNL     1       5.115  -5.108  -3.763  0.00  0.00    -0.101 S 
ENDBRANCH   1  12
BRANCH   1  17
ATOM     17  C   UNL     1       3.112  -4.160  -1.125  0.00  0.00    +0.097 C 
BRANCH  17  18
ATOM     18  N   UNL     1       3.234  -2.703  -1.261  0.00  0.00    -0.280 NA
ATOM     19  H   UNL     1       2.341  -2.283  -1.472  0.00  0.00    +0.125 HD
BRANCH  18  21
ATOM     20  N   UNL     1       3.619  -0.648  -0.036  0.00  0.00    -0.170 N 
ATOM     21  C   UNL     1       3.822  -2.109  -0.052  0.00  0.00    +0.273 C 
ATOM     22  N   UNL     1       5.292  -2.237  -0.066  0.00  0.00    -0.214 N 
ATOM     23  N   UNL     1       5.790  -0.929  -0.057  0.00  0.00    -0.062 NA
ATOM     24  N   UNL     1       4.900  -0.083  -0.047  0.00  0.00    -0.055 NA
ATOM     25  H   UNL     1       5.807  -3.059  -0.077  0.00  0.00    +0.173 HD
BRANCH  20  29
ATOM     26  C   UNL     1      -0.017   1.379   0.010  0.00  0.00    +0.000 A 
ATOM     27  C   UNL     1       1.169   2.090   0.002  0.00  0.00    +0.002 A 
ATOM     28  C   UNL     1       2.377   1.421  -0.013  0.00  0.00    +0.025 A 
ATOM     29  C   UNL     1       2.400   0.031  -0.021  0.00  0.00    +0.057 A 
ATOM     30  C   UNL     1       1.206  -0.680  -0.013  0.00  0.00    +0.025 A 
ATOM     31  C   UNL     1       0.002  -0.004   0.002  0.00  0.00    +0.002 A 
ENDBRANCH  20  29
ENDBRANCH  18  21
ENDBRANCH  17  18
ENDBRANCH   1  17
TORSDOF 6
