REMARK  Name = ZINC37061393
REMARK  7 active torsions:
REMARK  status: ('A' for Active; 'I' for Inactive)
REMARK    1  A    between atoms: C_1  and  C_2
REMARK    2  A    between atoms: C_3  and  N_11
REMARK    3  A    between atoms: C_7  and  N_8
REMARK    4  A    between atoms: N_11  and  C_12
REMARK    5  A    between atoms: C_12  and  C_13
REMARK    6  A    between atoms: C_14  and  C_20
REMARK    7  A    between atoms: C_18  and  C_19
REMARK                            x       y       z     vdW  Elec       q    Type
REMARK                         _______ _______ _______ _____ _____    ______ ____
ROOT
ATOM      1  N   UNL     1      -0.720  -0.045  -2.327  0.00  0.00    -0.339 N 
ATOM      2  H   UNL     1      -0.908   0.906  -2.297  0.00  0.00    +0.146 HD
ENDROOT
BRANCH   1   5
ATOM      3  C   UNL     1      -0.538   1.447   0.089  0.00  0.00    +0.048 C 
ATOM      4  C   UNL     1      -0.246  -0.031   0.040  0.00  0.00    +0.001 A 
ATOM      5  C   UNL     1      -0.348  -0.720  -1.163  0.00  0.00    +0.033 A 
ATOM      6  C   UNL     1      -0.078  -2.082  -1.204  0.00  0.00    +0.023 A 
ATOM      7  C   UNL     1       0.290  -2.746  -0.050  0.00  0.00    +0.004 A 
ATOM      8  C   UNL     1       0.389  -2.058   1.145  0.00  0.00    +0.033 A 
ATOM      9  C   UNL     1       0.127  -0.700   1.188  0.00  0.00    +0.131 A 
BRANCH   9  10
ATOM     10  N   UNL     1       0.241   0.034   2.468  0.00  0.00    +0.057 N 
ATOM     11  O   UNL     1       0.675   1.163   2.481  0.00  0.00    -0.126 OA
ATOM     12  O   UNL     1      -0.101  -0.494   3.500  0.00  0.00    -0.126 OA
ENDBRANCH   9  10
ENDBRANCH   1   5
BRANCH   1  13
ATOM     13  C   UNL     1      -0.826  -0.773  -3.594  0.00  0.00    +0.140 C 
BRANCH  13  14
ATOM     14  C   UNL     1      -1.241   0.178  -4.687  0.00  0.00    +0.013 A 
ATOM     15  C   UNL     1      -2.511   0.469  -5.049  0.00  0.00    +0.038 A 
ATOM     16  N   UNL     1      -2.457   1.359  -6.062  0.00  0.00    -0.281 N 
ATOM     17  H   UNL     1      -3.217   1.748  -6.522  0.00  0.00    +0.189 HD
ATOM     18  N   UNL     1      -1.107   1.624  -6.331  0.00  0.00    -0.179 NA
ATOM     19  C   UNL     1      -0.380   0.920  -5.503  0.00  0.00    +0.065 A 
ATOM     20  C   UNL     1       1.126   0.907  -5.440  0.00  0.00    +0.068 C 
ATOM     21  C   UNL     1      -3.764  -0.099  -4.432  0.00  0.00    +0.065 C 
ENDBRANCH  13  14
ENDBRANCH   1  13
TORSDOF 4
