REMARK  Name = ZINC37191344
REMARK  6 active torsions:
REMARK  status: ('A' for Active; 'I' for Inactive)
REMARK    1  A    between atoms: C_1  and  C_2
REMARK    2  A    between atoms: C_5  and  C_8
REMARK    3  A    between atoms: C_10  and  C_13
REMARK    4  A    between atoms: C_13  and  S_14
REMARK    5  A    between atoms: S_14  and  C_15
REMARK    6  A    between atoms: C_18  and  N_21
REMARK                            x       y       z     vdW  Elec       q    Type
REMARK                         _______ _______ _______ _____ _____    ______ ____
ROOT
ATOM      1  C   UNL     1       0.059  -4.256  -0.021  0.00  0.00    +0.114 A 
ATOM      2  C   UNL     1       0.070  -5.097   1.118  0.00  0.00    +0.076 A 
ATOM      3  C   UNL     1       0.087  -6.373   0.694  0.00  0.00    +0.148 A 
ATOM      4  O   UNL     1       0.087  -6.370  -0.648  0.00  0.00    -0.358 OA
ATOM      5  N   UNL     1       0.064  -5.023  -1.085  0.00  0.00    -0.078 NA
ENDROOT
BRANCH   1  10
ATOM      6  C   UNL     1      -0.018   1.503   0.010  0.00  0.00    +0.044 C 
ATOM      7  C   UNL     1       0.002  -0.004   0.002  0.00  0.00    -0.050 A 
ATOM      8  C   UNL     1       0.006  -0.687  -1.201  0.00  0.00    +0.004 A 
ATOM      9  C   UNL     1       0.024  -2.067  -1.214  0.00  0.00    +0.010 A 
ATOM     10  C   UNL     1       0.040  -2.772  -0.013  0.00  0.00    +0.004 A 
ATOM     11  C   UNL     1       0.036  -2.080   1.196  0.00  0.00    +0.010 A 
ATOM     12  C   UNL     1       0.023  -0.700   1.198  0.00  0.00    +0.004 A 
ENDBRANCH   1  10
BRANCH   3  13
ATOM     13  C   UNL     1       0.104  -7.596   1.575  0.00  0.00    +0.153 C 
BRANCH  13  14
ATOM     14  S   UNL     1      -1.600  -8.109   1.929  0.00  0.00    -0.098 S 
BRANCH  14  15
ATOM     15  C   UNL     1      -1.412  -9.530   2.954  0.00  0.00    +0.097 A 
ATOM     16  C   UNL     1      -2.542 -10.198   3.417  0.00  0.00    +0.036 A 
ATOM     17  C   UNL     1      -2.384 -11.312   4.220  0.00  0.00    +0.027 A 
ATOM     18  C   UNL     1      -1.090 -11.724   4.537  0.00  0.00    +0.043 A 
ATOM     19  C   UNL     1      -0.011 -11.009   4.039  0.00  0.00    +0.134 A 
ATOM     20  N   UNL     1      -0.199  -9.953   3.270  0.00  0.00    -0.247 NA
BRANCH  18  21
ATOM     21  N   UNL     1      -0.883 -12.847   5.348  0.00  0.00    -0.357 N 
ATOM     22  H   UNL     1      -1.641 -13.342   5.693  0.00  0.00    +0.142 HD
ATOM     23  H   UNL     1       0.020 -13.129   5.564  0.00  0.00    +0.142 HD
ENDBRANCH  18  21
ENDBRANCH  14  15
ENDBRANCH  13  14
ENDBRANCH   3  13
TORSDOF 5
