REMARK  Name = ZINC62842549
REMARK  8 active torsions:
REMARK  status: ('A' for Active; 'I' for Inactive)
REMARK    1  A    between atoms: C_1  and  C_2
REMARK    2  A    between atoms: C_6  and  C_21
REMARK    3  A    between atoms: C_8  and  O_11
REMARK    4  A    between atoms: O_11  and  C_12
REMARK    5  A    between atoms: C_12  and  C_14
REMARK    6  A    between atoms: C_14  and  C_20
REMARK    7  A    between atoms: C_21  and  C_22
REMARK    8  A    between atoms: C_21  and  C_23
REMARK                            x       y       z     vdW  Elec       q    Type
REMARK                         _______ _______ _______ _____ _____    ______ ____
ROOT
ATOM      1  O   UNL     1       1.447  -2.519   2.411  0.00  0.00    -0.461 OA
ENDROOT
BRANCH   1   7
ATOM      2  C   UNL     1      -0.008   1.530   0.036  0.00  0.00    +0.007 C 
ATOM      3  C   UNL     1       0.012   0.000   0.022  0.00  0.00    -0.011 C 
ATOM      4  C   UNL     1      -1.424  -0.529   0.021  0.00  0.00    +0.004 C 
ATOM      5  C   UNL     1      -1.403  -2.059   0.007  0.00  0.00    +0.007 C 
ATOM      6  C   UNL     1      -0.672  -2.570   1.250  0.00  0.00    +0.032 C 
ATOM      7  C   UNL     1       0.764  -2.041   1.250  0.00  0.00    +0.180 C 
ATOM      8  C   UNL     1       0.743  -0.511   1.264  0.00  0.00    +0.048 C 
BRANCH   6   9
ATOM      9  C   UNL     1      -0.652  -4.100   1.236  0.00  0.00    -0.011 C 
ATOM     10  C   UNL     1      -2.080  -4.630   1.372  0.00  0.00    +0.007 C 
ATOM     11  C   UNL     1      -0.050  -4.590  -0.083  0.00  0.00    +0.007 C 
ENDBRANCH   6   9
ENDBRANCH   1   7
BRANCH   1  12
ATOM     12  C   UNL     1       2.772  -2.704   2.305  0.00  0.00    +0.313 C 
ATOM     13  O   UNL     1       3.333  -2.468   1.261  0.00  0.00    -0.250 OA
BRANCH  12  14
ATOM     14  C   UNL     1       3.560  -3.206   3.487  0.00  0.00    +0.062 C 
ATOM     15  C   UNL     1       3.424  -2.218   4.650  0.00  0.00    -0.001 C 
ATOM     16  C   UNL     1       4.290  -2.693   5.819  0.00  0.00    -0.082 C 
ATOM     17  N   UNL     1       5.694  -2.764   5.396  0.00  0.00    +0.379 N 
ATOM     18  C   UNL     1       5.843  -3.762   4.330  0.00  0.00    -0.082 C 
ATOM     19  C   UNL     1       5.037  -3.328   3.104  0.00  0.00    -0.001 C 
ATOM     20  C   UNL     1       3.027  -4.576   3.913  0.00  0.00    +0.023 C 
ATOM     21  H   UNL     1       5.987  -1.861   5.054  0.00  0.00    -0.086 HD
ATOM     22  H   UNL     1       6.268  -3.026   6.184  0.00  0.00    -0.086 HD
ENDBRANCH  12  14
ENDBRANCH   1  12
TORSDOF 4
