REMARK  Name = ZINC01683259
REMARK  10 active torsions:
REMARK  status: ('A' for Active; 'I' for Inactive)
REMARK    1  A    between atoms: C_1  and  C_2
REMARK    2  A    between atoms: C_2  and  C_3
REMARK    3  A    between atoms: C_2  and  C_4
REMARK    4  A    between atoms: C_2  and  C_5
REMARK    5  A    between atoms: C_7  and  C_18
REMARK    6  A    between atoms: C_8  and  O_17
REMARK    7  A    between atoms: C_9  and  N_11
REMARK    8  A    between atoms: C_18  and  N_49
REMARK    9  A    between atoms: C_19  and  N_49
REMARK   10  A    between atoms: C_20  and  N_49
REMARK                            x       y       z     vdW  Elec       q    Type
REMARK                         _______ _______ _______ _____ _____    ______ ____
ROOT
ATOM      1  C   UNL     1      -1.486   3.925  -4.694  0.00  0.00    -0.040 A 
ATOM      2  C   UNL     1      -2.698   4.581  -4.587  0.00  0.00    +0.009 A 
ATOM      3  C   UNL     1      -3.301   4.730  -3.351  0.00  0.00    -0.020 A 
ATOM      4  C   UNL     1      -2.693   4.217  -2.217  0.00  0.00    +0.139 A 
ATOM      5  C   UNL     1      -1.469   3.561  -2.324  0.00  0.00    +0.072 A 
ATOM      6  C   UNL     1      -0.870   3.415  -3.567  0.00  0.00    +0.031 A 
ENDROOT
BRANCH   5   7
ATOM      7  N   UNL     1      -0.847   3.046  -1.181  0.00  0.00    -0.323 N 
ATOM      8  C   UNL     1      -0.425   4.127  -0.278  0.00  0.00    +0.133 C 
ATOM      9  C   UNL     1       0.194   3.519   0.983  0.00  0.00    +0.178 C 
ATOM     10  O   UNL     1       1.282   2.668   0.612  0.00  0.00    -0.377 OA
ATOM     11  C   UNL     1       0.907   1.605  -0.267  0.00  0.00    +0.178 C 
ATOM     12  C   UNL     1       0.295   2.193  -1.541  0.00  0.00    +0.133 C 
ENDBRANCH   5   7
BRANCH   1  14
ATOM     13  C   UNL     1      -0.663   2.278  -6.355  0.00  0.00    +0.015 C 
ATOM     14  C   UNL     1      -0.834   3.766  -6.043  0.00  0.00    -0.013 C 
ATOM     15  C   UNL     1      -1.714   4.414  -7.114  0.00  0.00    +0.015 C 
ATOM     16  C   UNL     1       0.537   4.446  -6.031  0.00  0.00    +0.015 C 
ENDBRANCH   1  14
BRANCH   4  17
ATOM     17  O   UNL     1      -3.288   4.358  -1.002  0.00  0.00    -0.505 OA
ATOM     18  H   UNL     1      -3.103   5.204  -0.570  0.00  0.00    +0.292 HD
ENDBRANCH   4  17
BRANCH   3  19
ATOM     19  C   UNL     1      -4.623   5.445  -3.239  0.00  0.00    -0.040 C 
BRANCH  19  22
ATOM     20  C   UNL     1      -6.956   5.130  -2.673  0.00  0.00    -0.096 C 
ATOM     21  C   UNL     1      -5.863   3.600  -4.198  0.00  0.00    -0.096 C 
ATOM     22  N   UNL     1      -5.686   4.447  -3.000  0.00  0.00    +0.379 N 
ATOM     23  H   UNL     1      -5.414   3.853  -2.208  0.00  0.00    -0.082 HD
ENDBRANCH  19  22
ENDBRANCH   3  19
TORSDOF 5
