REMARK  Name = ZINC16033788
REMARK  4 active torsions:
REMARK  status: ('A' for Active; 'I' for Inactive)
REMARK    1  A    between atoms: C_1  and  C_2
REMARK    2  A    between atoms: C_2  and  C_3
REMARK    3  A    between atoms: C_2  and  C_4
REMARK    4  A    between atoms: N_12  and  C_15
REMARK                            x       y       z     vdW  Elec       q    Type
REMARK                         _______ _______ _______ _____ _____    ______ ____
ROOT
ATOM      1  C   UNL     1      -1.433  -0.534   0.013  0.00  0.00    +0.070 C 
ATOM      2  C   UNL     1      -1.455  -2.058   0.087  0.00  0.00    +0.107 C 
ATOM      3  C   UNL     1      -2.967  -2.223   0.487  0.00  0.00    +0.123 C 
ATOM      4  C   UNL     1      -3.201  -3.620   0.215  0.00  0.00    +0.233 C 
ATOM      5  O   UNL     1      -3.945  -4.373   0.806  0.00  0.00    -0.274 OA
ATOM      6  N   UNL     1      -2.395  -3.910  -0.860  0.00  0.00    -0.209 N 
ATOM      7  C   UNL     1      -1.499  -2.898  -1.150  0.00  0.00    +0.232 C 
ATOM      8  O   UNL     1      -0.886  -2.720  -2.180  0.00  0.00    -0.274 OA
ATOM      9  C   UNL     1      -3.234  -1.175   1.468  0.00  0.00    +0.136 C 
ATOM     10  N   UNL     1      -2.136  -0.164   1.292  0.00  0.00    -0.295 NA
ATOM     11  C   UNL     1      -4.559  -0.474   1.295  0.00  0.00    +0.003 A 
ATOM     12  C   UNL     1      -5.149   0.171   0.232  0.00  0.00    +0.008 A 
ATOM     13  C   UNL     1      -6.405   0.735   0.377  0.00  0.00    +0.000 A 
ATOM     14  C   UNL     1      -7.063   0.648   1.590  0.00  0.00    +0.002 A 
ATOM     15  C   UNL     1      -6.474   0.001   2.657  0.00  0.00    +0.023 A 
ATOM     16  C   UNL     1      -5.210  -0.570   2.519  0.00  0.00    +0.039 A 
ATOM     17  N   UNL     1      -4.419  -1.264   3.435  0.00  0.00    -0.283 N 
ATOM     18  C   UNL     1      -3.248  -1.654   2.901  0.00  0.00    +0.243 C 
ATOM     19  O   UNL     1      -2.369  -2.272   3.464  0.00  0.00    -0.273 OA
ATOM     20  H   UNL     1      -1.500  -0.191   2.075  0.00  0.00    +0.124 HD
ATOM     21  H   UNL     1      -4.683  -1.445   4.351  0.00  0.00    +0.155 HD
ENDROOT
BRANCH   6  22
ATOM     22  C   UNL     1      -2.462  -5.109  -1.579  0.00  0.00    +0.052 A 
ATOM     23  C   UNL     1      -3.294  -5.217  -2.671  0.00  0.00    +0.024 A 
ATOM     24  C   UNL     1      -3.368  -6.404  -3.394  0.00  0.00    +0.002 A 
ATOM     25  C   UNL     1      -2.624  -7.489  -3.043  0.00  0.00    +0.008 A 
ATOM     26  C   UNL     1      -1.763  -7.419  -1.935  0.00  0.00    -0.016 A 
ATOM     27  C   UNL     1      -1.675  -6.214  -1.195  0.00  0.00    +0.004 A 
ATOM     28  C   UNL     1      -0.810  -6.144  -0.091  0.00  0.00    +0.010 A 
ATOM     29  C   UNL     1      -0.065  -7.231   0.251  0.00  0.00    +0.001 A 
ATOM     30  C   UNL     1      -0.147  -8.415  -0.479  0.00  0.00    +0.001 A 
ATOM     31  C   UNL     1      -0.982  -8.523  -1.548  0.00  0.00    +0.008 A 
ENDBRANCH   6  22
BRANCH   1  33
ATOM     32  C   UNL     1      -0.019   1.526   0.010  0.00  0.00    +0.009 C 
ATOM     33  C   UNL     1       0.002  -0.004   0.002  0.00  0.00    +0.001 C 
ATOM     34  C   UNL     1       0.742  -0.511   1.242  0.00  0.00    +0.009 C 
ENDBRANCH   1  33
TORSDOF 2
