REMARK  Name = ZINC41203933
REMARK  8 active torsions:
REMARK  status: ('A' for Active; 'I' for Inactive)
REMARK    1  A    between atoms: C_1  and  C_2
REMARK    2  A    between atoms: C_2  and  C_3
REMARK    3  A    between atoms: C_6  and  C_8
REMARK    4  A    between atoms: C_8  and  C_10
REMARK    5  A    between atoms: C_8  and  N_11
REMARK    6  A    between atoms: N_11  and  C_12
REMARK    7  A    between atoms: N_18  and  C_19
REMARK    8  A    between atoms: N_18  and  C_20
REMARK                            x       y       z     vdW  Elec       q    Type
REMARK                         _______ _______ _______ _____ _____    ______ ____
ROOT
ATOM      1  N   UNL     1       0.652  -2.686  -5.474  0.00  0.00    -0.336 N 
ATOM      2  H   UNL     1      -0.211  -2.609  -5.038  0.00  0.00    +0.147 HD
ENDROOT
BRANCH   1   3
ATOM      3  C   UNL     1       0.843  -3.635  -6.486  0.00  0.00    +0.044 A 
ATOM      4  C   UNL     1       2.082  -3.756  -7.114  0.00  0.00    +0.027 A 
ATOM      5  C   UNL     1       2.225  -4.706  -8.109  0.00  0.00    +0.043 A 
ATOM      6  C   UNL     1       1.137  -5.504  -8.447  0.00  0.00    +0.098 A 
ATOM      7  N   UNL     1      -0.024  -5.360  -7.829  0.00  0.00    -0.348 N 
ATOM      8  C   UNL     1      -0.195  -4.468  -6.872  0.00  0.00    +0.107 A 
ATOM      9  N   UNL     1       1.271  -6.464  -9.447  0.00  0.00    -0.323 N 
ATOM     10  C   UNL     1       2.553  -6.629 -10.137  0.00  0.00    +0.130 C 
ATOM     11  C   UNL     1       0.131  -7.308  -9.810  0.00  0.00    +0.130 C 
ATOM     12  H   UNL     1      -0.768  -5.928  -8.084  0.00  0.00    +0.167 HD
ENDBRANCH   1   3
BRANCH   1  13
ATOM     13  C   UNL     1       1.755  -1.809  -5.073  0.00  0.00    +0.104 C 
ATOM     14  C   UNL     1       1.804  -0.594  -6.001  0.00  0.00    +0.033 C 
BRANCH  13  18
ATOM     15  C   UNL     1       0.707  -0.490  -1.238  0.00  0.00    -0.010 A 
ATOM     16  C   UNL     1       2.023  -0.761  -1.421  0.00  0.00    +0.011 A 
ATOM     17  C   UNL     1       2.451  -1.202  -2.659  0.00  0.00    +0.013 A 
ATOM     18  C   UNL     1       1.542  -1.350  -3.654  0.00  0.00    +0.010 A 
ATOM     19  S   UNL     1       0.026  -0.866  -2.845  0.00  0.00    -0.096 S 
BRANCH  15  21
ATOM     20  C   UNL     1      -0.019   1.526   0.010  0.00  0.00    +0.009 C 
ATOM     21  C   UNL     1       0.002  -0.004   0.002  0.00  0.00    +0.039 C 
ENDBRANCH  15  21
ENDBRANCH  13  18
ENDBRANCH   1  13
TORSDOF 4
