REMARK  Name = ZINC39657006
REMARK  6 active torsions:
REMARK  status: ('A' for Active; 'I' for Inactive)
REMARK    1  A    between atoms: C_1  and  C_2
REMARK    2  A    between atoms: C_5  and  C_10
REMARK    3  A    between atoms: C_14  and  C_23
REMARK    4  A    between atoms: N_25  and  C_26
REMARK    5  A    between atoms: C_26  and  C_28
REMARK    6  A    between atoms: C_26  and  C_29
REMARK                            x       y       z     vdW  Elec       q    Type
REMARK                         _______ _______ _______ _____ _____    ______ ____
ROOT
ATOM      1  C   UNL     1       0.154  -4.513   0.060  0.00  0.00    +0.250 C 
ATOM      2  O   UNL     1       0.281  -5.208   1.050  0.00  0.00    -0.270 OA
ATOM      3  N   UNL     1       0.020  -5.087  -1.152  0.00  0.00    -0.296 N 
ATOM      4  C   UNL     1      -0.038  -4.416  -2.472  0.00  0.00    +0.121 C 
ATOM      5  C   UNL     1       0.779  -5.332  -3.412  0.00  0.00    +0.100 C 
ATOM      6  C   UNL     1       0.731  -6.718  -2.747  0.00  0.00    -0.004 C 
ATOM      7  C   UNL     1      -0.097  -6.531  -1.467  0.00  0.00    +0.115 C 
ATOM      8  C   UNL     1       2.140  -7.184  -2.394  0.00  0.00    -0.010 C 
ATOM      9  C   UNL     1       2.071  -8.588  -1.787  0.00  0.00    -0.082 C 
ATOM     10  N   UNL     1       1.456  -9.510  -2.750  0.00  0.00    +0.379 N 
ATOM     11  C   UNL     1       0.069  -9.107  -3.013  0.00  0.00    -0.082 C 
ATOM     12  C   UNL     1       0.053  -7.725  -3.672  0.00  0.00    -0.010 C 
ATOM     13  H   UNL     1       1.980  -9.492  -3.612  0.00  0.00    -0.086 HD
ATOM     14  H   UNL     1       1.467 -10.445  -2.372  0.00  0.00    -0.086 HD
ENDROOT
BRANCH   1  19
ATOM     15  C   UNL     1       0.117   1.222   0.548  0.00  0.00    +0.047 C 
ATOM     16  C   UNL     1       0.128  -0.279   0.422  0.00  0.00    -0.012 A 
ATOM     17  C   UNL     1      -0.648  -0.895  -0.545  0.00  0.00    +0.007 A 
ATOM     18  C   UNL     1      -0.644  -2.268  -0.667  0.00  0.00    +0.016 A 
ATOM     19  C   UNL     1       0.146  -3.042   0.187  0.00  0.00    +0.075 A 
ATOM     20  C   UNL     1       0.929  -2.417   1.161  0.00  0.00    +0.171 A 
ATOM     21  C   UNL     1       0.919  -1.036   1.270  0.00  0.00    +0.162 A 
ATOM     22  F   UNL     1       1.678  -0.427   2.207  0.00  0.00    -0.202 F 
ATOM     23  F   UNL     1       1.696  -3.156   1.992  0.00  0.00    -0.202 F 
ENDBRANCH   1  19
BRANCH   5  24
ATOM     24  C   UNL     1       2.201  -4.845  -3.513  0.00  0.00    +0.219 C 
ATOM     25  O   UNL     1       2.714  -4.272  -2.576  0.00  0.00    -0.275 OA
ATOM     26  N   UNL     1       2.903  -5.047  -4.646  0.00  0.00    -0.308 N 
ATOM     27  H   UNL     1       2.493  -5.506  -5.395  0.00  0.00    +0.149 HD
BRANCH  26  28
ATOM     28  C   UNL     1       4.286  -4.574  -4.744  0.00  0.00    +0.100 C 
ATOM     29  C   UNL     1       5.228  -5.622  -4.147  0.00  0.00    +0.033 C 
BRANCH  28  30
ATOM     30  C   UNL     1       4.638  -4.349  -6.192  0.00  0.00    -0.027 A 
ATOM     31  C   UNL     1       4.197  -5.236  -7.156  0.00  0.00    +0.006 A 
ATOM     32  C   UNL     1       4.519  -5.030  -8.485  0.00  0.00    +0.015 A 
ATOM     33  C   UNL     1       5.283  -3.936  -8.849  0.00  0.00    +0.018 A 
ATOM     34  C   UNL     1       5.724  -3.049  -7.884  0.00  0.00    +0.015 A 
ATOM     35  C   UNL     1       5.397  -3.253  -6.557  0.00  0.00    +0.006 A 
ATOM     36 BR   UNL     1       5.725  -3.654 -10.666  0.00  0.00    -0.050 Br
ENDBRANCH  28  30
ENDBRANCH  26  28
ENDBRANCH   5  24
TORSDOF 4
