REMARK  Name = ZINC28012766
REMARK  7 active torsions:
REMARK  status: ('A' for Active; 'I' for Inactive)
REMARK    1  A    between atoms: C_1  and  C_2
REMARK    2  A    between atoms: C_2  and  C_3
REMARK    3  A    between atoms: C_3  and  C_4
REMARK    4  A    between atoms: C_4  and  C_5
REMARK    5  A    between atoms: C_5  and  C_6
REMARK    6  A    between atoms: C_6  and  N_7
REMARK    7  A    between atoms: C_10  and  C_12
REMARK                            x       y       z     vdW  Elec       q    Type
REMARK                         _______ _______ _______ _____ _____    ______ ____
ROOT
ATOM      1  N   UNL     1       1.680   0.926  -3.694  0.00  0.00    -0.268 N 
ATOM      2  C   UNL     1       1.304   1.054  -2.412  0.00  0.00    +0.039 A 
ATOM      3  C   UNL     1      -0.025   1.324  -2.387  0.00  0.00    -0.016 A 
ATOM      4  C   UNL     1      -0.482   1.367  -3.711  0.00  0.00    +0.094 A 
ATOM      5  N   UNL     1       0.548   1.126  -4.499  0.00  0.00    -0.171 NA
ATOM      6  C   UNL     1      -0.809   1.528  -1.115  0.00  0.00    -0.043 C 
ATOM      7  N   UNL     1      -0.012   1.005   0.008  0.00  0.00    +0.382 N 
ATOM      8  C   UNL     1       1.353   1.550  -0.003  0.00  0.00    -0.076 C 
ATOM      9  C   UNL     1       2.146   0.935  -1.165  0.00  0.00    +0.036 C 
ATOM     10  H   UNL     1      -0.491   1.282   0.958  0.00  0.00    -0.085 HD
ATOM     11  H   UNL     1       0.050  -0.091  -0.066  0.00  0.00    -0.085 HD
ENDROOT
BRANCH   4  12
ATOM     12  C   UNL     1      -1.875   1.634  -4.147  0.00  0.00    +0.002 A 
ATOM     13  C   UNL     1      -2.946   1.171  -3.387  0.00  0.00    +0.013 A 
ATOM     14  C   UNL     1      -4.240   1.427  -3.794  0.00  0.00    +0.039 A 
ATOM     15  C   UNL     1      -4.474   2.133  -4.963  0.00  0.00    +0.123 A 
ATOM     16  C   UNL     1      -3.411   2.591  -5.724  0.00  0.00    +0.039 A 
ATOM     17  C   UNL     1      -2.115   2.344  -5.322  0.00  0.00    +0.013 A 
ATOM     18  F   UNL     1      -5.742   2.376  -5.360  0.00  0.00    -0.205 F 
ENDBRANCH   4  12
BRANCH   1  19
ATOM     19  C   UNL     1       3.033   0.630  -4.170  0.00  0.00    +0.144 C 
BRANCH  19  20
ATOM     20  C   UNL     1       3.215  -0.885  -4.279  0.00  0.00    +0.023 C 
BRANCH  20  21
ATOM     21  C   UNL     1       4.629  -1.195  -4.776  0.00  0.00    +0.002 C 
BRANCH  21  22
ATOM     22  C   UNL     1       4.810  -2.710  -4.885  0.00  0.00    -0.000 C 
BRANCH  22  24
ATOM     23  C   UNL     1       6.406  -4.535  -5.491  0.00  0.00    +0.004 C 
ATOM     24  C   UNL     1       6.224  -3.020  -5.381  0.00  0.00    -0.003 C 
ENDBRANCH  22  24
ENDBRANCH  21  22
ENDBRANCH  20  21
ENDBRANCH  19  20
ENDBRANCH   1  19
TORSDOF 6
