REMARK  Name = ZINC53096295
REMARK  5 active torsions:
REMARK  status: ('A' for Active; 'I' for Inactive)
REMARK    1  A    between atoms: C_2  and  C_12
REMARK    2  A    between atoms: C_12  and  N_13
REMARK    3  A    between atoms: N_13  and  C_14
REMARK    4  A    between atoms: C_14  and  C_20
REMARK    5  A    between atoms: C_20  and  O_21
REMARK                            x       y       z     vdW  Elec       q    Type
REMARK                         _______ _______ _______ _____ _____    ______ ____
ROOT
ATOM      1  C   UNL     1       0.993   3.702  -0.105  0.00  0.00    -0.046 C 
ENDROOT
BRANCH   1   3
ATOM      2  C   UNL     1      -0.486   1.687  -0.213  0.00  0.00    +0.051 A 
ATOM      3  C   UNL     1       0.792   2.211  -0.205  0.00  0.00    -0.059 A 
ATOM      4  C   UNL     1       1.887   1.372  -0.288  0.00  0.00    +0.025 A 
ATOM      5  C   UNL     1       1.707   0.004  -0.381  0.00  0.00    +0.086 A 
ATOM      6  C   UNL     1       0.425  -0.529  -0.391  0.00  0.00    +0.180 A 
ATOM      7  C   UNL     1      -0.675   0.316  -0.304  0.00  0.00    +0.164 A 
ATOM      8  O   UNL     1      -1.940  -0.187  -0.304  0.00  0.00    -0.485 OA
ATOM      9  C   UNL     1      -2.099  -1.530  -0.772  0.00  0.00    +0.270 C 
ATOM     10  C   UNL     1      -1.018  -2.399  -0.115  0.00  0.00    +0.270 C 
ATOM     11  O   UNL     1       0.263  -1.877  -0.487  0.00  0.00    -0.483 OA
ATOM     12 CL   UNL     1       3.084  -1.048  -0.486  0.00  0.00    -0.080 Cl
ENDBRANCH   1   3
BRANCH   1  13
ATOM     13  N   UNL     1       1.089   4.090   1.308  0.00  0.00    +0.387 N 
ATOM     14  H   UNL     1       0.249   3.809   1.792  0.00  0.00    -0.085 HD
ATOM     15  H   UNL     1       1.886   3.636   1.728  0.00  0.00    -0.085 HD
BRANCH  13  16
ATOM     16  C   UNL     1       1.248   5.547   1.406  0.00  0.00    -0.044 C 
ATOM     17  C   UNL     1       1.429   5.942   2.873  0.00  0.00    -0.010 C 
ATOM     18  C   UNL     1       0.201   5.508   3.675  0.00  0.00    -0.001 C 
ATOM     19  C   UNL     1      -1.045   6.196   3.111  0.00  0.00    -0.000 C 
ATOM     20  C   UNL     1      -1.227   5.800   1.645  0.00  0.00    -0.001 C 
ATOM     21  C   UNL     1       0.002   6.234   0.843  0.00  0.00    -0.010 C 
BRANCH  16  22
ATOM     22  C   UNL     1       2.476   5.981   0.605  0.00  0.00    +0.143 C 
BRANCH  22  23
ATOM     23  O   UNL     1       3.618   5.244   1.046  0.00  0.00    -0.396 OA
ATOM     24  H   UNL     1       4.435   5.468   0.580  0.00  0.00    +0.209 HD
ENDBRANCH  22  23
ENDBRANCH  16  22
ENDBRANCH  13  16
ENDBRANCH   1  13
TORSDOF 5
