REMARK  Name = ZINC40288280
REMARK  8 active torsions:
REMARK  status: ('A' for Active; 'I' for Inactive)
REMARK    1  A    between atoms: C_1  and  C_2
REMARK    2  A    between atoms: C_2  and  C_27
REMARK    3  A    between atoms: C_4  and  N_10
REMARK    4  A    between atoms: C_6  and  C_8
REMARK    5  A    between atoms: C_6  and  C_9
REMARK    6  A    between atoms: C_11  and  C_13
REMARK    7  A    between atoms: N_15  and  C_16
REMARK    8  A    between atoms: C_25  and  O_26
REMARK                            x       y       z     vdW  Elec       q    Type
REMARK                         _______ _______ _______ _____ _____    ______ ____
ROOT
ATOM      1  N   UNL     1      -3.537  -0.936   1.019  0.00  0.00    -0.305 N 
ATOM      2  C   UNL     1      -4.543  -0.484   1.794  0.00  0.00    +0.300 C 
ATOM      3  O   UNL     1      -4.329   0.370   2.628  0.00  0.00    -0.265 OA
ATOM      4  H   UNL     1      -3.707  -1.619   0.352  0.00  0.00    +0.149 HD
ENDROOT
BRANCH   1   8
ATOM      5  C   UNL     1       0.002   1.498   0.043  0.00  0.00    -0.010 C 
ATOM      6  C   UNL     1       0.014  -0.034   0.030  0.00  0.00    -0.072 C 
ATOM      7  C   UNL     1      -1.409  -0.561  -0.123  0.00  0.00    +0.009 C 
ATOM      8  C   UNL     1      -2.182  -0.395   1.185  0.00  0.00    +0.071 C 
ATOM      9  C   UNL     1      -1.454  -1.184   2.273  0.00  0.00    +0.009 C 
ATOM     10  C   UNL     1      -0.030  -0.663   2.445  0.00  0.00    -0.072 C 
ATOM     11  N   UNL     1       0.702  -0.566   1.194  0.00  0.00    +0.386 N 
ATOM     12  C   UNL     1       0.721  -1.664   3.353  0.00  0.00    -0.010 C 
ATOM     13  C   UNL     1      -0.056   0.680   3.181  0.00  0.00    -0.010 C 
ATOM     14  C   UNL     1       0.806  -0.471  -1.224  0.00  0.00    -0.010 C 
ATOM     15  H   UNL     1       1.057  -1.498   0.958  0.00  0.00    -0.084 HD
ATOM     16  H   UNL     1       1.542  -0.002   1.357  0.00  0.00    -0.084 HD
ENDBRANCH   1   8
BRANCH   2  17
ATOM     17  C   UNL     1      -5.920  -1.035   1.625  0.00  0.00    +0.303 C 
ATOM     18  O   UNL     1      -6.134  -1.890   0.790  0.00  0.00    -0.265 OA
ATOM     19  N   UNL     1      -6.926  -0.583   2.399  0.00  0.00    -0.277 N 
ATOM     20  H   UNL     1      -6.744   0.051   3.110  0.00  0.00    +0.155 HD
BRANCH  19  21
ATOM     21  C   UNL     1      -8.229  -1.027   2.179  0.00  0.00    +0.042 A 
ATOM     22  C   UNL     1      -8.462  -2.321   1.763  0.00  0.00    +0.024 A 
ATOM     23  C   UNL     1      -9.759  -2.774   1.541  0.00  0.00    +0.003 A 
ATOM     24  C   UNL     1     -10.831  -1.955   1.727  0.00  0.00    +0.012 A 
ATOM     25  C   UNL     1     -10.637  -0.630   2.150  0.00  0.00    +0.025 A 
ATOM     26  C   UNL     1      -9.322  -0.159   2.385  0.00  0.00    +0.007 A 
ATOM     27  C   UNL     1      -9.130   1.165   2.812  0.00  0.00    +0.010 A 
ATOM     28  C   UNL     1     -10.206   1.978   3.001  0.00  0.00    +0.004 A 
ATOM     29  C   UNL     1     -11.501   1.518   2.778  0.00  0.00    +0.046 A 
ATOM     30  C   UNL     1     -11.728   0.240   2.351  0.00  0.00    +0.125 A 
BRANCH  30  31
ATOM     31  O   UNL     1     -12.997  -0.193   2.135  0.00  0.00    -0.506 OA
ATOM     32  H   UNL     1     -13.418  -0.580   2.915  0.00  0.00    +0.292 HD
ENDBRANCH  30  31
ENDBRANCH  19  21
ENDBRANCH   2  17
TORSDOF 4
