REMARK  Name = ZINC12402320
REMARK  7 active torsions:
REMARK  status: ('A' for Active; 'I' for Inactive)
REMARK    1  A    between atoms: C_1  and  C_2
REMARK    2  A    between atoms: C_2  and  C_33
REMARK    3  A    between atoms: C_6  and  C_22
REMARK    4  A    between atoms: C_8  and  C_20
REMARK    5  A    between atoms: C_9  and  N_19
REMARK    6  A    between atoms: N_10  and  C_11
REMARK    7  A    between atoms: C_25  and  N_27
REMARK                            x       y       z     vdW  Elec       q    Type
REMARK                         _______ _______ _______ _____ _____    ______ ____
ROOT
ATOM      1  C   UNL     1      -5.776   7.865  -2.695  0.00  0.00    +0.011 C 
ATOM      2  C   UNL     1      -4.473   7.405  -3.352  0.00  0.00    -0.023 C 
ATOM      3  C   UNL     1      -3.306   7.619  -2.386  0.00  0.00    +0.058 C 
ATOM      4  C   UNL     1      -3.522   6.794  -1.141  0.00  0.00    +0.025 C 
ATOM      5  C   UNL     1      -4.181   5.619  -1.192  0.00  0.00    +0.026 C 
ATOM      6  C   UNL     1      -4.378   4.785   0.048  0.00  0.00    +0.104 C 
ATOM      7  C   UNL     1      -4.169   5.603   1.289  0.00  0.00    +0.077 C 
ATOM      8  C   UNL     1      -3.510   6.789   1.243  0.00  0.00    +0.107 C 
ATOM      9  N   UNL     1      -3.027   7.266   0.046  0.00  0.00    -0.257 N 
ATOM     10  C   UNL     1      -4.708   5.135  -2.403  0.00  0.00    +0.162 C 
ATOM     11  O   UNL     1      -5.291   4.069  -2.417  0.00  0.00    -0.292 OA
ATOM     12  C   UNL     1      -4.563   5.912  -3.683  0.00  0.00    +0.086 C 
ATOM     13  C   UNL     1      -4.233   8.206  -4.634  0.00  0.00    +0.011 C 
ENDROOT
BRANCH   9  14
ATOM     14  C   UNL     1      -2.021   8.242   0.041  0.00  0.00    +0.075 A 
ATOM     15  C   UNL     1      -0.685   7.863   0.038  0.00  0.00    +0.029 A 
ATOM     16  C   UNL     1       0.305   8.826   0.028  0.00  0.00    +0.040 A 
ATOM     17  C   UNL     1      -0.033  10.170   0.032  0.00  0.00    +0.126 A 
ATOM     18  C   UNL     1      -1.364  10.551   0.040  0.00  0.00    +0.078 A 
ATOM     19  C   UNL     1      -2.359   9.591   0.045  0.00  0.00    +0.148 A 
ATOM     20  F   UNL     1      -3.658   9.962   0.053  0.00  0.00    -0.203 F 
ATOM     21  F   UNL     1       0.938  11.109   0.028  0.00  0.00    -0.205 F 
ENDBRANCH   9  14
BRANCH   6  22
ATOM     22  C   UNL     1      -3.395   3.643   0.038  0.00  0.00    +0.005 A 
ATOM     23  C   UNL     1      -3.636   2.309   0.032  0.00  0.00    +0.014 A 
ATOM     24  C   UNL     1      -2.565   1.434   0.017  0.00  0.00    +0.041 A 
ATOM     25  C   UNL     1      -1.306   1.937   0.019  0.00  0.00    +0.164 A 
ATOM     26  S   UNL     1      -1.611   3.696   0.029  0.00  0.00    -0.068 S 
BRANCH  25  27
ATOM     27  N   UNL     1      -0.014   1.214   0.009  0.00  0.00    +0.063 N 
ATOM     28  O   UNL     1       0.002  -0.004   0.002  0.00  0.00    -0.126 OA
ATOM     29  O   UNL     1       1.032   1.837   0.002  0.00  0.00    -0.126 OA
ENDBRANCH  25  27
ENDBRANCH   6  22
BRANCH   8  30
ATOM     30  N   UNL     1      -3.325   7.516   2.395  0.00  0.00    -0.345 N 
ATOM     31  H   UNL     1      -3.664   7.181   3.240  0.00  0.00    +0.144 HD
ATOM     32  H   UNL     1      -2.854   8.363   2.364  0.00  0.00    +0.144 HD
ENDBRANCH   8  30
BRANCH   7  33
ATOM     33  C   UNL     1      -4.672   5.124   2.541  0.00  0.00    +0.099 C 
ATOM     34  N   UNL     1      -5.071   4.744   3.534  0.00  0.00    -0.191 NA
ENDBRANCH   7  33
TORSDOF 5
