REMARK  Name = ZINC15240234
REMARK  9 active torsions:
REMARK  status: ('A' for Active; 'I' for Inactive)
REMARK    1  A    between atoms: C_1  and  C_2
REMARK    2  A    between atoms: C_2  and  C_3
REMARK    3  A    between atoms: C_2  and  C_4
REMARK    4  A    between atoms: C_11  and  C_36
REMARK    5  A    between atoms: N_23  and  C_26
REMARK    6  A    between atoms: C_26  and  C_27
REMARK    7  A    between atoms: C_27  and  O_28
REMARK    8  A    between atoms: C_32  and  C_33
REMARK    9  A    between atoms: C_32  and  C_34
REMARK                            x       y       z     vdW  Elec       q    Type
REMARK                         _______ _______ _______ _____ _____    ______ ____
ROOT
ATOM      1  C   UNL     1       0.557   2.293  -2.353  0.00  0.00    -0.066 C 
ATOM      2  C   UNL     1       1.808   2.634  -2.055  0.00  0.00    -0.019 C 
ATOM      3  C   UNL     1       1.942   2.969  -0.542  0.00  0.00    +0.004 C 
ATOM      4  C   UNL     1       3.368   3.373  -0.254  0.00  0.00    +0.012 C 
ATOM      5  C   UNL     1       3.534   4.164   1.029  0.00  0.00    +0.006 C 
ATOM      6  C   UNL     1       2.516   5.274   1.253  0.00  0.00    +0.012 C 
ATOM      7  C   UNL     1       1.093   4.792   1.001  0.00  0.00    -0.025 C 
ATOM      8  C   UNL     1       0.964   4.125  -0.350  0.00  0.00    +0.007 C 
ATOM      9  C   UNL     1      -0.463   3.744  -0.740  0.00  0.00    +0.013 C 
ATOM     10  C   UNL     1      -0.473   2.259  -1.236  0.00  0.00    +0.028 C 
ATOM     11  C   UNL     1      -0.018   1.512   0.010  0.00  0.00    +0.095 C 
ATOM     12  C   UNL     1       1.535   1.667  -0.004  0.00  0.00    +0.098 C 
ATOM     13  C   UNL     1       1.905   0.729   1.050  0.00  0.00    +0.227 C 
ATOM     14  O   UNL     1       2.751   0.848   1.903  0.00  0.00    -0.275 OA
ATOM     15  N   UNL     1       1.073  -0.339   0.793  0.00  0.00    -0.239 N 
ATOM     16  C   UNL     1       0.002  -0.004   0.002  0.00  0.00    +0.226 C 
ATOM     17  O   UNL     1      -0.758  -0.753  -0.574  0.00  0.00    -0.275 OA
ATOM     18  C   UNL     1       0.088   5.942   1.122  0.00  0.00    +0.007 C 
ATOM     19  C   UNL     1       0.499   7.106   0.225  0.00  0.00    +0.002 C 
ATOM     20  C   UNL     1       1.831   7.652   0.732  0.00  0.00    +0.018 C 
ATOM     21  C   UNL     1       2.921   6.584   0.615  0.00  0.00    +0.072 C 
ATOM     22  C   UNL     1       3.322   6.441  -0.852  0.00  0.00    +0.023 C 
ATOM     23  C   UNL     1       0.741   3.794   2.126  0.00  0.00    +0.012 C 
ENDROOT
BRANCH   1  25
ATOM     24  C   UNL     1      -0.369   0.515  -3.816  0.00  0.00    +0.012 C 
ATOM     25  C   UNL     1       0.167   1.947  -3.769  0.00  0.00    +0.009 C 
ATOM     26  C   UNL     1      -0.918   2.913  -4.249  0.00  0.00    +0.012 C 
ENDBRANCH   1  25
BRANCH  21  27
ATOM     27  C   UNL     1       4.134   7.129   1.363  0.00  0.00    +0.362 C 
ATOM     28  O   UNL     1       4.584   6.522   2.307  0.00  0.00    -0.246 OA
ATOM     29  O   UNL     1       4.701   8.281   0.974  0.00  0.00    -0.246 OA
ENDBRANCH  21  27
BRANCH  15  30
ATOM     30  C   UNL     1       1.331  -1.696   1.279  0.00  0.00    +0.144 C 
BRANCH  30  31
ATOM     31  C   UNL     1       2.206  -2.441   0.269  0.00  0.00    +0.175 C 
BRANCH  31  32
ATOM     32  O   UNL     1       3.489  -1.814   0.197  0.00  0.00    -0.393 OA
ATOM     33  H   UNL     1       4.098  -2.235  -0.425  0.00  0.00    +0.209 HD
ENDBRANCH  31  32
ENDBRANCH  30  31
ENDBRANCH  15  30
TORSDOF 5
