REMARK  Name = ZINC07679761
REMARK  10 active torsions:
REMARK  status: ('A' for Active; 'I' for Inactive)
REMARK    1  A    between atoms: C_1  and  C_2
REMARK    2  A    between atoms: C_2  and  C_3
REMARK    3  A    between atoms: C_8  and  N_9
REMARK    4  A    between atoms: C_10  and  C_12
REMARK    5  A    between atoms: C_12  and  N_13
REMARK    6  A    between atoms: N_13  and  C_14
REMARK    7  A    between atoms: N_13  and  C_15
REMARK    8  A    between atoms: C_15  and  C_16
REMARK    9  A    between atoms: N_21  and  C_22
REMARK   10  A    between atoms: C_22  and  C_23
REMARK                            x       y       z     vdW  Elec       q    Type
REMARK                         _______ _______ _______ _____ _____    ______ ____
ROOT
ATOM      1  N   UNL     1       6.366  -0.516   0.937  0.00  0.00    +0.389 N 
ATOM      2  C   UNL     1       6.527  -1.950   0.664  0.00  0.00    -0.095 C 
ATOM      3  H   UNL     1       6.695   0.017   0.146  0.00  0.00    -0.081 HD
ENDROOT
BRANCH   1   4
ATOM      4  C   UNL     1       4.947  -0.219   1.171  0.00  0.00    +0.019 C 
BRANCH   4   6
ATOM      5  N   UNL     1       2.833  -0.268  -0.113  0.00  0.00    -0.287 N 
ATOM      6  C   UNL     1       4.165  -0.474  -0.091  0.00  0.00    +0.201 C 
ATOM      7  O   UNL     1       4.734  -0.865  -1.088  0.00  0.00    -0.278 OA
ATOM      8  H   UNL     1       2.388   0.106   0.663  0.00  0.00    +0.155 HD
BRANCH   5  14
ATOM      9  C   UNL     1       0.800  -1.084  -1.129  0.00  0.00    -0.026 A 
ATOM     10  C   UNL     1       0.070  -1.399  -2.258  0.00  0.00    +0.005 A 
ATOM     11  C   UNL     1       0.627  -1.234  -3.513  0.00  0.00    +0.000 A 
ATOM     12  C   UNL     1       1.917  -0.751  -3.641  0.00  0.00    +0.002 A 
ATOM     13  C   UNL     1       2.652  -0.433  -2.516  0.00  0.00    +0.023 A 
ATOM     14  C   UNL     1       2.093  -0.594  -1.255  0.00  0.00    +0.036 A 
BRANCH   9  16
ATOM     15  C   UNL     1      -0.422   0.058   0.702  0.00  0.00    +0.009 C 
ATOM     16  C   UNL     1       0.191  -1.265   0.238  0.00  0.00    +0.033 C 
ENDBRANCH   9  16
ENDBRANCH   5  14
ENDBRANCH   4   6
ENDBRANCH   1   4
BRANCH   1  17
ATOM     17  C   UNL     1       7.145  -0.154   2.129  0.00  0.00    +0.019 C 
BRANCH  17  18
ATOM     18  C   UNL     1       8.613  -0.343   1.845  0.00  0.00    +0.204 C 
ATOM     19  O   UNL     1       8.975  -0.740   0.758  0.00  0.00    -0.277 OA
ATOM     20  N   UNL     1       9.524  -0.070   2.800  0.00  0.00    -0.242 N 
ATOM     21  C   UNL     1      10.837  -0.239   2.547  0.00  0.00    +0.306 C 
ATOM     22  O   UNL     1      11.200  -0.638   1.457  0.00  0.00    -0.252 OA
ATOM     23  N   UNL     1      11.748   0.033   3.502  0.00  0.00    -0.291 N 
ATOM     24  H   UNL     1       9.235   0.247   3.670  0.00  0.00    +0.159 HD
ATOM     25  H   UNL     1      11.459   0.351   4.372  0.00  0.00    +0.151 HD
BRANCH  23  26
ATOM     26  C   UNL     1      13.175  -0.151   3.227  0.00  0.00    +0.219 C 
BRANCH  26  27
ATOM     27  C   UNL     1      13.987   0.226   4.468  0.00  0.00    +0.405 C 
ATOM     28  F   UNL     1      13.610  -0.592   5.538  0.00  0.00    -0.169 F 
ATOM     29  F   UNL     1      15.350   0.051   4.205  0.00  0.00    -0.169 F 
ATOM     30  F   UNL     1      13.744   1.564   4.795  0.00  0.00    -0.169 F 
ENDBRANCH  26  27
ENDBRANCH  23  26
ENDBRANCH  17  18
ENDBRANCH   1  17
TORSDOF 8
