REMARK  Name = ZINC58087526
REMARK  7 active torsions:
REMARK  status: ('A' for Active; 'I' for Inactive)
REMARK    1  A    between atoms: C_1  and  C_2
REMARK    2  A    between atoms: C_2  and  C_3
REMARK    3  A    between atoms: C_7  and  C_14
REMARK    4  A    between atoms: C_14  and  C_16
REMARK    5  A    between atoms: C_14  and  N_24
REMARK    6  A    between atoms: C_21  and  O_22
REMARK    7  A    between atoms: O_22  and  C_23
REMARK                            x       y       z     vdW  Elec       q    Type
REMARK                         _______ _______ _______ _____ _____    ______ ____
ROOT
ATOM      1  C   UNL     1       0.742  -0.511   1.242  0.00  0.00    +0.107 C 
ATOM      2  C   UNL     1       0.711  -2.021   1.296  0.00  0.00    -0.014 A 
ATOM      3  C   UNL     1      -0.316  -2.934   1.382  0.00  0.00    +0.008 A 
ATOM      4  C   UNL     1      -0.035  -4.288   1.415  0.00  0.00    -0.057 A 
ATOM      5  C   UNL     1       1.278  -4.720   1.362  0.00  0.00    +0.004 A 
ATOM      6  C   UNL     1       2.309  -3.807   1.276  0.00  0.00    +0.024 A 
ATOM      7  C   UNL     1       2.034  -2.441   1.242  0.00  0.00    +0.037 A 
ATOM      8  N   UNL     1       2.887  -1.340   1.159  0.00  0.00    -0.285 N 
ATOM      9  C   UNL     1       2.215  -0.173   1.155  0.00  0.00    +0.225 C 
ATOM     10  O   UNL     1       2.697   0.938   1.092  0.00  0.00    -0.275 OA
ATOM     11  H   UNL     1       3.853  -1.408   1.112  0.00  0.00    +0.155 HD
ENDROOT
BRANCH   1  13
ATOM     12  C   UNL     1      -0.019   1.526   0.010  0.00  0.00    +0.005 C 
ATOM     13  C   UNL     1       0.002  -0.004   0.002  0.00  0.00    +0.014 C 
ENDBRANCH   1  13
BRANCH   4  14
ATOM     14  C   UNL     1      -1.156  -5.291   1.509  0.00  0.00    -0.010 C 
BRANCH  14  15
ATOM     15  C   UNL     1      -1.292  -5.760   2.934  0.00  0.00    -0.016 A 
ATOM     16  C   UNL     1      -0.658  -6.917   3.346  0.00  0.00    +0.006 A 
ATOM     17  C   UNL     1      -0.783  -7.348   4.653  0.00  0.00    +0.000 A 
ATOM     18  C   UNL     1      -1.542  -6.622   5.553  0.00  0.00    +0.004 A 
ATOM     19  C   UNL     1      -2.178  -5.465   5.147  0.00  0.00    +0.046 A 
ATOM     20  C   UNL     1      -2.050  -5.028   3.837  0.00  0.00    +0.122 A 
BRANCH  20  21
ATOM     21  O   UNL     1      -2.669  -3.886   3.436  0.00  0.00    -0.495 OA
ATOM     22  C   UNL     1      -3.433  -3.184   4.419  0.00  0.00    +0.277 C 
ENDBRANCH  20  21
ENDBRANCH  14  15
BRANCH  14  23
ATOM     23  N   UNL     1      -0.860  -6.439   0.642  0.00  0.00    +0.385 N 
ATOM     24  H   UNL     1      -1.610  -7.111   0.705  0.00  0.00    -0.089 HD
ATOM     25  H   UNL     1      -0.768  -6.125  -0.313  0.00  0.00    -0.089 HD
ATOM     26  H   UNL     1       0.003  -6.871   0.938  0.00  0.00    -0.089 HD
ENDBRANCH  14  23
ENDBRANCH   4  14
TORSDOF 5
