REMARK  Name = ZINC05883175
REMARK  6 active torsions:
REMARK  status: ('A' for Active; 'I' for Inactive)
REMARK    1  A    between atoms: C_3  and  C_19
REMARK    2  A    between atoms: N_5  and  C1*_6
REMARK    3  A    between atoms: C2*_8  and  O2*_18
REMARK    4  A    between atoms: C3*_10  and  O3*_17
REMARK    5  A    between atoms: C4*_12  and  C5*_15
REMARK    6  A    between atoms: C5*_15  and  O5*_16
REMARK                            x       y       z     vdW  Elec       q    Type
REMARK                         _______ _______ _______ _____ _____    ______ ____
ROOT
ATOM      1  C   UNL     1      -0.055  -4.117   0.901  0.00  0.00    +0.222 A 
ATOM      2  N   UNL     1      -0.216  -2.881   0.511  0.00  0.00    -0.212 NA
ATOM      3  C   UNL     1       0.757  -2.114   1.023  0.00  0.00    +0.212 A 
ATOM      4  N   UNL     1       1.546  -2.867   1.759  0.00  0.00    -0.144 NA
ATOM      5  N   UNL     1       1.034  -4.173   1.692  0.00  0.00    -0.220 N 
ENDROOT
BRANCH   3   6
ATOM      6  C   UNL     1       0.914  -0.657   0.802  0.00  0.00    +0.139 C 
ATOM      7  C   UNL     1       2.144   1.388   1.239  0.00  0.00    +0.115 C 
ATOM      8  C   UNL     1       1.442   1.946  -0.001  0.00  0.00    +0.040 C 
ATOM      9  C   UNL     1      -0.018   1.467   0.010  0.00  0.00    +0.104 C 
ATOM     10  N   UNL     1       0.002  -0.004   0.002  0.00  0.00    -0.328 N 
ATOM     11  H   UNL     1      -0.614  -0.504  -0.556  0.00  0.00    +0.147 HD
ATOM     12  N   UNL     1       1.960  -0.098   1.420  0.00  0.00    -0.370 N 
ATOM     13  H   UNL     1       2.607  -0.654   1.991  0.00  0.00    +0.161 HD
ENDBRANCH   3   6
BRANCH   5  14
ATOM     14  C1* UNL     1       1.577  -5.363   2.352  0.00  0.00    +0.270 C 
ATOM     15  C2* UNL     1       3.033  -5.626   1.889  0.00  0.00    +0.196 C 
ATOM     16  C3* UNL     1       3.183  -7.146   2.142  0.00  0.00    +0.178 C 
ATOM     17  C4* UNL     1       1.733  -7.667   2.185  0.00  0.00    +0.177 C 
ATOM     18  O4* UNL     1       0.869  -6.548   1.928  0.00  0.00    -0.344 OA
BRANCH  16  19
ATOM     19  O3* UNL     1       3.905  -7.764   1.075  0.00  0.00    -0.386 OA
ATOM     20  H3* UNL     1       4.824  -7.473   1.001  0.00  0.00    +0.210 HD
ENDBRANCH  16  19
BRANCH  15  21
ATOM     21  O2* UNL     1       3.962  -4.884   2.681  0.00  0.00    -0.385 OA
ATOM     22  H2* UNL     1       4.886  -5.016   2.430  0.00  0.00    +0.210 HD
ENDBRANCH  15  21
BRANCH  17  23
ATOM     23  C5* UNL     1       1.532  -8.737   1.110  0.00  0.00    +0.190 C 
BRANCH  23  24
ATOM     24  O5* UNL     1       0.217  -9.284   1.222  0.00  0.00    -0.392 OA
ATOM     25  H5* UNL     1       0.020  -9.970   0.570  0.00  0.00    +0.210 HD
ENDBRANCH  23  24
ENDBRANCH  17  23
ENDBRANCH   5  14
TORSDOF 6
