REMARK  Name = ZINC13079050
REMARK  8 active torsions:
REMARK  status: ('A' for Active; 'I' for Inactive)
REMARK    1  A    between atoms: C_1  and  C_2
REMARK    2  A    between atoms: C_4  and  C_30
REMARK    3  A    between atoms: C_6  and  S_9
REMARK    4  A    between atoms: C_7  and  C_8
REMARK    5  A    between atoms: S_9  and  N_12
REMARK    6  A    between atoms: N_12  and  C_13
REMARK    7  A    between atoms: C_16  and  S_19
REMARK    8  A    between atoms: S_19  and  N_22
REMARK                            x       y       z     vdW  Elec       q    Type
REMARK                         _______ _______ _______ _____ _____    ______ ____
ROOT
ATOM      1  C   UNL     1       1.601  -1.118   3.855  0.00  0.00    +0.048 A 
ATOM      2  C   UNL     1       1.276  -0.072   3.001  0.00  0.00    +0.026 A 
ATOM      3  C   UNL     1       1.409   1.234   3.430  0.00  0.00    +0.031 A 
ATOM      4  C   UNL     1       1.865   1.501   4.708  0.00  0.00    +0.113 A 
ATOM      5  C   UNL     1       2.190   0.462   5.561  0.00  0.00    +0.031 A 
ATOM      6  C   UNL     1       2.054  -0.846   5.140  0.00  0.00    +0.026 A 
ENDROOT
BRANCH   4   7
ATOM      7  S   UNL     1       2.034   3.169   5.250  0.00  0.00    +0.100 S 
ATOM      8  O   UNL     1       2.997   3.160   6.296  0.00  0.00    -0.146 OA
ATOM      9  O   UNL     1       2.186   3.963   4.082  0.00  0.00    -0.146 OA
BRANCH   7  10
ATOM     10  N   UNL     1       0.593   3.609   5.938  0.00  0.00    -0.118 NA
ATOM     11  C   UNL     1       0.445   4.798   6.423  0.00  0.00    +0.117 C 
ATOM     12  N   UNL     1       1.487   5.737   6.375  0.00  0.00    -0.331 N 
ATOM     13  C   UNL     1       1.307   6.872   5.517  0.00  0.00    +0.102 C 
ATOM     14  C   UNL     1       0.611   8.088   6.151  0.00  0.00    +0.019 C 
ATOM     15  C   UNL     1      -0.575   7.631   7.038  0.00  0.00    +0.002 C 
ATOM     16  C   UNL     1      -1.362   6.504   6.431  0.00  0.00    +0.008 C 
ATOM     17  C   UNL     1      -0.804   5.209   7.029  0.00  0.00    +0.073 C 
ATOM     18  H   UNL     1       2.294   5.624   6.901  0.00  0.00    +0.147 HD
ENDBRANCH   7  10
ENDBRANCH   4   7
BRANCH   1  19
ATOM     19  N   UNL     1       1.468  -2.440   3.425  0.00  0.00    -0.216 N 
ATOM     20  H   UNL     1       2.180  -3.078   3.589  0.00  0.00    +0.174 HD
BRANCH  19  21
ATOM     21  S   UNL     1       0.093  -2.919   2.635  0.00  0.00    +0.073 S 
ATOM     22  O   UNL     1       0.211  -4.319   2.427  0.00  0.00    -0.150 OA
ATOM     23  O   UNL     1      -0.099  -2.003   1.565  0.00  0.00    -0.150 OA
BRANCH  21  29
ATOM     24  C   UNL     1      -2.460  -4.085   7.043  0.00  0.00    +0.044 C 
ATOM     25  C   UNL     1      -2.386  -3.262   5.783  0.00  0.00    -0.045 A 
ATOM     26  C   UNL     1      -3.369  -2.335   5.508  0.00  0.00    +0.018 A 
ATOM     27  C   UNL     1      -3.299  -1.572   4.339  0.00  0.00    +0.065 A 
ATOM     28  C   UNL     1      -2.231  -1.755   3.457  0.00  0.00    +0.044 A 
ATOM     29  C   UNL     1      -1.254  -2.686   3.745  0.00  0.00    +0.112 A 
ATOM     30  C   UNL     1      -1.328  -3.434   4.907  0.00  0.00    -0.021 A 
ATOM     31  C   UNL     1      -0.255  -4.445   5.218  0.00  0.00    +0.046 C 
BRANCH  27  32
ATOM     32  C   UNL     1      -4.347  -0.579   4.038  0.00  0.00    +0.387 C 
ATOM     33  O   UNL     1      -5.281  -0.421   4.812  0.00  0.00    -0.241 OA
ATOM     34  O   UNL     1      -4.282   0.087   3.014  0.00  0.00    -0.241 OA
ENDBRANCH  27  32
ENDBRANCH  21  29
ENDBRANCH  19  21
ENDBRANCH   1  19
TORSDOF 6
