REMARK  Name = ZINC08769520
REMARK  1 active torsions:
REMARK  status: ('A' for Active; 'I' for Inactive)
REMARK    1  A    between atoms: N_5  and  N_6
REMARK                            x       y       z     vdW  Elec       q    Type
REMARK                         _______ _______ _______ _____ _____    ______ ____
ROOT
ATOM      1  N   UNL     1       2.948  -1.960   1.836  0.00  0.00    -0.207 N 
ATOM      2  C   UNL     1       4.055  -2.707   2.160  0.00  0.00    +0.217 A 
ATOM      3  N   UNL     1       3.924  -4.050   2.365  0.00  0.00    -0.293 N 
ATOM      4  H   UNL     1       3.050  -4.461   2.279  0.00  0.00    +0.172 HD
ATOM      5  C   UNL     1       4.985  -4.814   2.683  0.00  0.00    +0.261 A 
ATOM      6  O   UNL     1       4.851  -6.013   2.863  0.00  0.00    -0.267 OA
ATOM      7  C   UNL     1       6.272  -4.201   2.807  0.00  0.00    +0.075 A 
ATOM      8  C   UNL     1       7.550  -4.832   3.142  0.00  0.00    -0.023 A 
ATOM      9  C   UNL     1       8.632  -4.030   3.197  0.00  0.00    -0.004 A 
ATOM     10  S   UNL     1       8.026  -2.410   2.812  0.00  0.00    -0.073 S 
ATOM     11  C   UNL     1       6.314  -2.815   2.578  0.00  0.00    +0.117 A 
ATOM     12  N   UNL     1       5.228  -2.118   2.262  0.00  0.00    -0.207 NA
ATOM     13  C   UNL     1      10.041  -4.428   3.517  0.00  0.00    +0.043 C 
ATOM     14  C   UNL     1      10.018  -5.830   4.142  0.00  0.00    +0.005 C 
ATOM     15  C   UNL     1       9.138  -6.738   3.278  0.00  0.00    +0.005 C 
ATOM     16  C   UNL     1       7.672  -6.327   3.421  0.00  0.00    +0.037 C 
ATOM     17  H   UNL     1       2.080  -2.387   1.759  0.00  0.00    +0.177 HD
ENDROOT
BRANCH   1  22
ATOM     18  C   UNL     1       0.275   1.433  -0.548  0.00  0.00    +0.001 C 
ATOM     19  C   UNL     1       1.662   2.020  -0.283  0.00  0.00    +0.006 C 
ATOM     20  C   UNL     1       2.132   1.604   1.115  0.00  0.00    +0.052 C 
ATOM     21  C   UNL     1       2.063   0.096   1.217  0.00  0.00    +0.037 C 
ATOM     22  N   UNL     1       3.072  -0.582   1.618  0.00  0.00    -0.189 NA
ATOM     23  C   UNL     1       0.771  -0.590   0.832  0.00  0.00    +0.052 C 
ATOM     24  C   UNL     1       0.350  -0.094  -0.555  0.00  0.00    +0.006 C 
ENDBRANCH   1  22
TORSDOF 1
