REMARK  Name = ZINC39637483
REMARK  6 active torsions:
REMARK  status: ('A' for Active; 'I' for Inactive)
REMARK    1  A    between atoms: C_1  and  C_2
REMARK    2  A    between atoms: C_7  and  N_12
REMARK    3  A    between atoms: C_9  and  C_11
REMARK    4  A    between atoms: C_13  and  C_15
REMARK    5  A    between atoms: C_26  and  C_28
REMARK    6  A    between atoms: C_31  and  C_33
REMARK                            x       y       z     vdW  Elec       q    Type
REMARK                         _______ _______ _______ _____ _____    ______ ____
ROOT
ATOM      1  C   UNL     1       1.363  -0.333   6.074  0.00  0.00    +0.100 C 
ATOM      2  C   UNL     1       0.754  -1.669   6.555  0.00  0.00    +0.121 C 
ATOM      3  N   UNL     1       0.806  -1.593   8.034  0.00  0.00    -0.294 N 
ATOM      4  C   UNL     1       0.456  -0.186   8.344  0.00  0.00    +0.115 C 
ATOM      5  C   UNL     1       1.164   0.638   7.250  0.00  0.00    -0.004 C 
ATOM      6  C   UNL     1       0.288   1.812   6.824  0.00  0.00    -0.010 C 
ATOM      7  C   UNL     1       0.153   2.793   7.993  0.00  0.00    -0.082 C 
ATOM      8  N   UNL     1       1.484   3.268   8.391  0.00  0.00    +0.379 N 
ATOM      9  C   UNL     1       2.289   2.145   8.887  0.00  0.00    -0.082 C 
ATOM     10  C   UNL     1       2.514   1.137   7.756  0.00  0.00    -0.010 C 
ATOM     11  C   UNL     1       1.105  -2.580   8.902  0.00  0.00    +0.282 C 
ATOM     12  O   UNL     1       1.105  -2.359  10.098  0.00  0.00    -0.267 OA
ATOM     13  H   UNL     1       1.943   3.684   7.595  0.00  0.00    -0.086 HD
ATOM     14  H   UNL     1       1.388   3.959   9.120  0.00  0.00    -0.086 HD
ENDROOT
BRANCH  11  15
ATOM     15  C   UNL     1       1.429  -3.919   8.404  0.00  0.00    +0.190 A 
ATOM     16  C   UNL     1       1.746  -5.015   9.178  0.00  0.00    +0.055 A 
ATOM     17  C   UNL     1       1.982  -6.075   8.297  0.00  0.00    +0.051 A 
ATOM     18  C   UNL     1       1.802  -5.595   7.032  0.00  0.00    +0.139 A 
ATOM     19  O   UNL     1       1.465  -4.297   7.109  0.00  0.00    -0.450 OA
BRANCH  18  20
ATOM     20  C   UNL     1       1.949  -6.374   5.786  0.00  0.00    +0.052 A 
ATOM     21  C   UNL     1       3.092  -7.148   5.573  0.00  0.00    +0.014 A 
ATOM     22  C   UNL     1       3.223  -7.873   4.408  0.00  0.00    +0.001 A 
ATOM     23  C   UNL     1       2.225  -7.836   3.449  0.00  0.00    +0.003 A 
ATOM     24  C   UNL     1       1.090  -7.073   3.651  0.00  0.00    +0.039 A 
ATOM     25  C   UNL     1       0.942  -6.345   4.817  0.00  0.00    +0.134 A 
ATOM     26  F   UNL     1      -0.170  -5.604   5.016  0.00  0.00    -0.205 F 
ENDBRANCH  18  20
ENDBRANCH  11  15
BRANCH   1  28
ATOM     27  N   UNL     1       1.282   0.918   3.942  0.00  0.00    -0.312 N 
ATOM     28  C   UNL     1       0.634   0.166   4.853  0.00  0.00    +0.218 C 
ATOM     29  O   UNL     1      -0.536  -0.109   4.690  0.00  0.00    -0.275 OA
ATOM     30  H   UNL     1       2.218   1.138   4.071  0.00  0.00    +0.149 HD
BRANCH  27  36
ATOM     31  C   UNL     1      -0.933   3.495   1.362  0.00  0.00    +0.008 C 
ATOM     32  C   UNL     1       0.517   3.176   0.995  0.00  0.00    -0.009 C 
ATOM     33  C   UNL     1       0.544   2.099  -0.091  0.00  0.00    +0.003 C 
ATOM     34  C   UNL     1      -0.140   0.833   0.429  0.00  0.00    +0.002 C 
ATOM     35  C   UNL     1       0.600   0.326   1.669  0.00  0.00    +0.022 C 
ATOM     36  C   UNL     1       0.573   1.404   2.755  0.00  0.00    +0.076 C 
ATOM     37  C   UNL     1       1.258   2.669   2.234  0.00  0.00    +0.009 C 
ATOM     38  C   UNL     1       1.231   3.747   3.320  0.00  0.00    +0.009 C 
ENDBRANCH  27  36
ENDBRANCH   1  28
TORSDOF 4
