REMARK  Name = ZINC04785748
REMARK  8 active torsions:
REMARK  status: ('A' for Active; 'I' for Inactive)
REMARK    1  A    between atoms: C_1  and  C_2
REMARK    2  A    between atoms: C_2  and  C_3
REMARK    3  A    between atoms: C_3  and  C_4
REMARK    4  A    between atoms: C_4  and  C_5
REMARK    5  A    between atoms: C_5  and  C_6
REMARK    6  A    between atoms: C_6  and  C_7
REMARK    7  A    between atoms: C_11  and  C_19
REMARK    8  A    between atoms: C_17  and  O_18
REMARK                            x       y       z     vdW  Elec       q    Type
REMARK                         _______ _______ _______ _____ _____    ______ ____
ROOT
ATOM      1  C   UNL     1       1.395   2.047  -0.000  0.00  0.00    -0.005 A 
ATOM      2  C   UNL     1       1.951   2.476  -1.170  0.00  0.00    +0.018 A 
ATOM      3  C   UNL     1       3.265   2.968  -1.183  0.00  0.00    +0.019 A 
ATOM      4  C   UNL     1       3.842   3.419  -2.396  0.00  0.00    +0.030 A 
ATOM      5  C   UNL     1       5.141   3.893  -2.382  0.00  0.00    +0.097 A 
ATOM      6  C   UNL     1       5.875   3.911  -1.106  0.00  0.00    +0.205 A 
ATOM      7  N   UNL     1       7.103   4.353  -1.065  0.00  0.00    -0.369 N 
ATOM      8  O   UNL     1       5.280   3.470   0.021  0.00  0.00    -0.439 OA
ATOM      9  C   UNL     1       4.010   3.006   0.011  0.00  0.00    +0.141 A 
ATOM     10  C   UNL     1       3.431   2.561   1.189  0.00  0.00    +0.092 A 
ATOM     11  C   UNL     1       2.129   2.084   1.184  0.00  0.00    +0.124 A 
ATOM     12  H   UNL     1       7.652   4.367  -0.112  0.00  0.00    +0.159 HD
ATOM     13  H   UNL     1       7.589   4.712  -1.985  0.00  0.00    +0.159 HD
ENDROOT
BRANCH   5  14
ATOM     14  C   UNL     1       5.777   4.371  -3.619  0.00  0.00    +0.255 C 
ATOM     15  O   UNL     1       6.920   4.786  -3.593  0.00  0.00    -0.270 OA
ATOM     16  N   UNL     1       5.093   4.349  -4.780  0.00  0.00    -0.261 N 
ATOM     17  C   UNL     1       5.694   4.800  -5.948  0.00  0.00    +0.165 A 
ATOM     18  N   UNL     1       6.907   5.287  -6.121  0.00  0.00    -0.233 NA
ATOM     19  C   UNL     1       7.327   5.669  -7.311  0.00  0.00    +0.120 A 
ATOM     20  C   UNL     1       6.475   5.564  -8.361  0.00  0.00    +0.068 A 
ATOM     21  S   UNL     1       5.037   4.876  -7.554  0.00  0.00    -0.061 S 
ATOM     22  H   UNL     1       4.059   3.974  -4.803  0.00  0.00    +0.157 HD
ENDBRANCH   5  14
BRANCH  11  23
ATOM     23  O   UNL     1       1.566   1.649   2.339  0.00  0.00    -0.506 OA
ATOM     24  H   UNL     1       2.142   1.676   3.276  0.00  0.00    +0.292 HD
ENDBRANCH  11  23
BRANCH   1  25
ATOM     25  C   UNL     1      -0.019   1.526   0.010  0.00  0.00    +0.039 C 
BRANCH  25  26
ATOM     26  C   UNL     1       0.002  -0.004   0.002  0.00  0.00    +0.005 C 
BRANCH  26  27
ATOM     27  C   UNL     1      -1.433  -0.534   0.013  0.00  0.00    +0.000 C 
BRANCH  27  28
ATOM     28  C   UNL     1      -1.413  -2.063   0.004  0.00  0.00    -0.000 C 
BRANCH  28  30
ATOM     29  C   UNL     1      -2.827  -4.123   0.007  0.00  0.00    +0.004 C 
ATOM     30  C   UNL     1      -2.848  -2.593   0.015  0.00  0.00    -0.003 C 
ENDBRANCH  28  30
ENDBRANCH  27  28
ENDBRANCH  26  27
ENDBRANCH  25  26
ENDBRANCH   1  25
TORSDOF 7
