REMARK  Name = ZINC62770603
REMARK  7 active torsions:
REMARK  status: ('A' for Active; 'I' for Inactive)
REMARK    1  A    between atoms: C_1  and  C_2
REMARK    2  A    between atoms: C_2  and  N_3
REMARK    3  A    between atoms: N_3  and  C_4
REMARK    4  A    between atoms: C_4  and  C_6
REMARK    5  A    between atoms: C_4  and  C_7
REMARK    6  A    between atoms: C_7  and  C_8
REMARK    7  A    between atoms: C_11  and  C_13
REMARK                            x       y       z     vdW  Elec       q    Type
REMARK                         _______ _______ _______ _____ _____    ______ ____
ROOT
ATOM      1  C   UNL     1      -3.364  -2.112  -1.444  0.00  0.00    +0.104 A 
ATOM      2  C   UNL     1      -3.292  -2.835  -2.579  0.00  0.00    +0.045 A 
ATOM      3  C   UNL     1      -3.957  -2.100  -3.580  0.00  0.00    +0.050 A 
ATOM      4  C   UNL     1      -4.404  -0.957  -2.995  0.00  0.00    +0.135 A 
ATOM      5  O   UNL     1      -4.042  -0.980  -1.698  0.00  0.00    -0.460 OA
ENDROOT
BRANCH   4   6
ATOM      6  C   UNL     1      -5.162   0.121  -3.664  0.00  0.00    +0.017 A 
ATOM      7  C   UNL     1      -5.484   0.015  -5.019  0.00  0.00    +0.012 A 
ATOM      8  C   UNL     1      -6.191   1.025  -5.638  0.00  0.00    +0.015 A 
ATOM      9  C   UNL     1      -6.580   2.142  -4.919  0.00  0.00    +0.013 A 
ATOM     10  C   UNL     1      -6.264   2.253  -3.576  0.00  0.00    +0.015 A 
ATOM     11  C   UNL     1      -5.563   1.248  -2.944  0.00  0.00    +0.012 A 
ATOM     12  I   UNL     1      -7.653   3.671  -5.868  0.00  0.00    -0.044 I 
ENDBRANCH   4   6
BRANCH   1  13
ATOM     13  C   UNL     1      -2.787  -2.510  -0.111  0.00  0.00    +0.058 C 
BRANCH  13  14
ATOM     14  C   UNL     1      -1.356  -1.981   0.004  0.00  0.00    -0.068 C 
ATOM     15  C   UNL     1      -0.727  -2.490   1.303  0.00  0.00    -0.013 C 
BRANCH  14  16
ATOM     16  N   UNL     1      -1.376  -0.512   0.012  0.00  0.00    +0.381 N 
ATOM     17  H   UNL     1      -1.848  -0.187   0.843  0.00  0.00    -0.086 HD
ATOM     18  H   UNL     1      -1.864  -0.178  -0.805  0.00  0.00    -0.086 HD
BRANCH  16  20
ATOM     19  C   UNL     1      -0.019   1.526   0.010  0.00  0.00    -0.017 C 
ATOM     20  C   UNL     1       0.002  -0.004   0.002  0.00  0.00    -0.086 C 
ENDBRANCH  16  20
ENDBRANCH  14  16
ENDBRANCH  13  14
ENDBRANCH   1  13
TORSDOF 5
