REMARK  Name = ZINC54997953
REMARK  9 active torsions:
REMARK  status: ('A' for Active; 'I' for Inactive)
REMARK    1  A    between atoms: C_1  and  C_2
REMARK    2  A    between atoms: C_3  and  C_16
REMARK    3  A    between atoms: N_7  and  C_8
REMARK    4  A    between atoms: N_7  and  C_9
REMARK    5  A    between atoms: C_16  and  N_17
REMARK    6  A    between atoms: N_17  and  C_18
REMARK    7  A    between atoms: C_18  and  C_19
REMARK    8  A    between atoms: C_18  and  C_20
REMARK    9  A    between atoms: C_18  and  C_21
REMARK                            x       y       z     vdW  Elec       q    Type
REMARK                         _______ _______ _______ _____ _____    ______ ____
ROOT
ATOM      1  C   UNL     1      -0.018   1.503   0.010  0.00  0.00    +0.066 C 
ATOM      2  C   UNL     1       0.002  -0.004   0.002  0.00  0.00    +0.049 A 
ATOM      3  C   UNL     1       0.006  -0.705  -1.157  0.00  0.00    -0.003 A 
ATOM      4  S   UNL     1       0.032  -2.378  -0.535  0.00  0.00    -0.059 S 
ATOM      5  C   UNL     1       0.036  -2.016   1.109  0.00  0.00    +0.161 A 
ATOM      6  N   UNL     1       0.023  -0.700   1.125  0.00  0.00    -0.230 NA
ATOM      7  N   UNL     1       0.053  -2.891   2.183  0.00  0.00    -0.310 N 
ATOM      8  C   UNL     1       0.072  -4.337   1.950  0.00  0.00    +0.131 C 
ENDROOT
BRANCH   7   9
ATOM      9  C   UNL     1       0.053  -2.369   3.553  0.00  0.00    +0.075 C 
ATOM     10  C   UNL     1       1.362  -2.795   4.249  0.00  0.00    +0.022 C 
ATOM     11  C   UNL     1       1.603  -1.875   5.415  0.00  0.00    +0.002 C 
ATOM     12  C   UNL     1       1.051  -2.441   6.737  0.00  0.00    +0.000 C 
ATOM     13  C   UNL     1      -0.332  -3.099   6.574  0.00  0.00    +0.000 C 
ATOM     14  C   UNL     1      -1.245  -2.306   5.678  0.00  0.00    +0.002 C 
ATOM     15  C   UNL     1      -1.129  -2.861   4.244  0.00  0.00    +0.022 C 
ENDBRANCH   7   9
BRANCH   3  16
ATOM     16  C   UNL     1      -0.009  -0.209  -2.580  0.00  0.00    -0.037 C 
BRANCH  16  17
ATOM     17  N   UNL     1       1.371  -0.028  -3.050  0.00  0.00    +0.385 N 
ATOM     18  H   UNL     1       1.841   0.646  -2.463  0.00  0.00    -0.085 HD
ATOM     19  H   UNL     1       1.860  -0.910  -3.006  0.00  0.00    -0.085 HD
BRANCH  17  20
ATOM     20  C   UNL     1       1.357   0.456  -4.437  0.00  0.00    -0.076 C 
ATOM     21  C   UNL     1       0.616   1.793  -4.503  0.00  0.00    -0.011 C 
ATOM     22  C   UNL     1       2.794   0.644  -4.926  0.00  0.00    -0.011 C 
ATOM     23  C   UNL     1       0.645  -0.566  -5.326  0.00  0.00    -0.011 C 
ENDBRANCH  17  20
ENDBRANCH  16  17
ENDBRANCH   3  16
TORSDOF 4
