REMARK  Name = ZINC27498777
REMARK  13 active torsions:
REMARK  status: ('A' for Active; 'I' for Inactive)
REMARK    1  A    between atoms: C_1  and  C_2
REMARK    2  A    between atoms: C_2  and  O_3
REMARK    3  A    between atoms: O_3  and  C_4
REMARK    4  A    between atoms: C_4  and  C_6
REMARK    5  A    between atoms: C_6  and  C_8
REMARK    6  A    between atoms: C_6  and  N_16
REMARK    7  A    between atoms: C_8  and  C_9
REMARK    8  A    between atoms: C_12  and  O_15
REMARK    9  A    between atoms: N_16  and  C_17
REMARK   10  A    between atoms: C_20  and  S_26
REMARK   11  A    between atoms: C_22  and  N_23
REMARK   12  A    between atoms: S_26  and  C_29
REMARK   13  A    between atoms: C_33  and  N_35
REMARK                            x       y       z     vdW  Elec       q    Type
REMARK                         _______ _______ _______ _____ _____    ______ ____
ROOT
ATOM      1  C   UNL     1       1.156   5.113   4.359  0.00  0.00    +0.058 A 
ATOM      2  C   UNL     1       2.340   4.716   3.749  0.00  0.00    +0.027 A 
ATOM      3  C   UNL     1       2.343   4.366   2.414  0.00  0.00    +0.029 A 
ATOM      4  C   UNL     1       1.169   4.411   1.683  0.00  0.00    +0.096 A 
ATOM      5  C   UNL     1      -0.009   4.811   2.285  0.00  0.00    +0.062 A 
ATOM      6  C   UNL     1      -0.021   5.157   3.622  0.00  0.00    +0.149 A 
ENDROOT
BRANCH   6   7
ATOM      7  N   UNL     1      -1.284   5.579   4.267  0.00  0.00    +0.058 N 
ATOM      8  O   UNL     1      -2.333   5.038   3.965  0.00  0.00    -0.126 OA
ATOM      9  O   UNL     1      -1.275   6.467   5.101  0.00  0.00    -0.126 OA
ENDBRANCH   6   7
BRANCH   4  10
ATOM     10  S   UNL     1       1.178   3.963  -0.022  0.00  0.00    +0.025 S 
ATOM     11  O   UNL     1       2.508   4.155  -0.485  0.00  0.00    -0.164 OA
ATOM     12  O   UNL     1       0.063   4.612  -0.617  0.00  0.00    -0.164 OA
BRANCH  10  13
ATOM     13  C   UNL     1       0.860   2.232  -0.108  0.00  0.00    +0.096 A 
ATOM     14  C   UNL     1      -0.441   1.773  -0.205  0.00  0.00    +0.027 A 
ATOM     15  C   UNL     1      -0.690   0.415  -0.273  0.00  0.00    +0.004 A 
ATOM     16  C   UNL     1       0.360  -0.483  -0.244  0.00  0.00    +0.033 A 
ATOM     17  C   UNL     1       1.660  -0.024  -0.147  0.00  0.00    +0.128 A 
ATOM     18  C   UNL     1       1.910   1.334  -0.079  0.00  0.00    +0.060 A 
BRANCH  17  19
ATOM     19  N   UNL     1       2.785  -0.986  -0.115  0.00  0.00    +0.056 N 
ATOM     20  O   UNL     1       2.564  -2.182  -0.174  0.00  0.00    -0.126 OA
ATOM     21  O   UNL     1       3.930  -0.581  -0.029  0.00  0.00    -0.126 OA
ENDBRANCH  17  19
ENDBRANCH  10  13
ENDBRANCH   4  10
BRANCH   1  22
ATOM     22  N   UNL     1       1.149   5.467   5.710  0.00  0.00    -0.329 N 
ATOM     23  H   UNL     1       0.198   5.691   6.215  0.00  0.00    +0.147 HD
BRANCH  22  24
ATOM     24  C   UNL     1       2.408   5.540   6.455  0.00  0.00    +0.184 C 
BRANCH  24  25
ATOM     25  C   UNL     1       3.034   6.896   6.251  0.00  0.00    +0.328 C 
ATOM     26  O   UNL     1       2.484   7.717   5.556  0.00  0.00    -0.249 OA
BRANCH  25  27
ATOM     27  O   UNL     1       4.202   7.192   6.843  0.00  0.00    -0.464 OA
BRANCH  27  29
ATOM     28  C   UNL     1       6.070   8.668   7.353  0.00  0.00    +0.048 C 
ATOM     29  C   UNL     1       4.746   8.517   6.603  0.00  0.00    +0.229 C 
ENDBRANCH  27  29
ENDBRANCH  25  27
ENDBRANCH  24  25
BRANCH  24  30
ATOM     30  C   UNL     1       2.134   5.324   7.944  0.00  0.00    +0.068 C 
BRANCH  30  31
ATOM     31  C   UNL     1       1.623   3.923   8.162  0.00  0.00    -0.045 A 
ATOM     32  C   UNL     1       0.265   3.669   8.116  0.00  0.00    +0.007 A 
ATOM     33  C   UNL     1      -0.206   2.384   8.310  0.00  0.00    +0.045 A 
ATOM     34  C   UNL     1       0.685   1.351   8.562  0.00  0.00    +0.117 A 
ATOM     35  C   UNL     1       2.047   1.610   8.613  0.00  0.00    +0.045 A 
ATOM     36  C   UNL     1       2.513   2.895   8.413  0.00  0.00    +0.007 A 
BRANCH  34  37
ATOM     37  O   UNL     1       0.224   0.088   8.758  0.00  0.00    -0.507 OA
ATOM     38  H   UNL     1       0.932  -0.731   8.957  0.00  0.00    +0.292 HD
ENDBRANCH  34  37
ENDBRANCH  30  31
ENDBRANCH  24  30
ENDBRANCH  22  24
ENDBRANCH   1  22
TORSDOF 12
