REMARK  Name = ZINC63204663
REMARK  11 active torsions:
REMARK  status: ('A' for Active; 'I' for Inactive)
REMARK    1  A    between atoms: C_1  and  C_2
REMARK    2  A    between atoms: C_2  and  C_3
REMARK    3  A    between atoms: C_3  and  C_4
REMARK    4  A    between atoms: N_6  and  C_7
REMARK    5  A    between atoms: C_11  and  N_14
REMARK    6  A    between atoms: C_12  and  C_13
REMARK    7  A    between atoms: C_15  and  C_17
REMARK    8  A    between atoms: N_19  and  C_20
REMARK    9  A    between atoms: C_20  and  C_21
REMARK   10  A    between atoms: N_27  and  C_28
REMARK   11  A    between atoms: N_27  and  C_29
REMARK                            x       y       z     vdW  Elec       q    Type
REMARK                         _______ _______ _______ _____ _____    ______ ____
ROOT
ATOM      1  N   UNL     1       2.239  -6.765   4.435  0.00  0.00    -0.277 N 
ATOM      2  C   UNL     1       2.267  -8.112   4.434  0.00  0.00    +0.303 C 
ATOM      3  O   UNL     1       1.753  -8.729   3.523  0.00  0.00    -0.265 OA
ATOM      4  H   UNL     1       2.588  -6.273   5.195  0.00  0.00    +0.155 HD
ENDROOT
BRANCH   1   9
ATOM      5  C   UNL     1       1.725  -4.181   1.865  0.00  0.00    +0.038 A 
ATOM      6  C   UNL     1       0.646  -4.716   1.172  0.00  0.00    +0.024 A 
ATOM      7  C   UNL     1       0.102  -5.924   1.563  0.00  0.00    +0.004 A 
ATOM      8  C   UNL     1       0.628  -6.605   2.644  0.00  0.00    +0.024 A 
ATOM      9  C   UNL     1       1.707  -6.076   3.341  0.00  0.00    +0.038 A 
ATOM     10  C   UNL     1       2.260  -4.865   2.947  0.00  0.00    -0.008 A 
ATOM     11  C   UNL     1       3.435  -4.292   3.697  0.00  0.00    +0.047 C 
BRANCH   5  14
ATOM     12  C   UNL     1       2.139  -2.539   0.195  0.00  0.00    +0.217 C 
ATOM     13  O   UNL     1       1.630  -3.266  -0.631  0.00  0.00    -0.275 OA
ATOM     14  N   UNL     1       2.276  -2.957   1.469  0.00  0.00    -0.285 N 
ATOM     15  H   UNL     1       2.755  -2.410   2.111  0.00  0.00    +0.155 HD
BRANCH  12  16
ATOM     16  C   UNL     1       2.620  -1.167  -0.203  0.00  0.00    +0.096 C 
BRANCH  16  18
ATOM     17  C   UNL     1       2.838   0.450  -2.095  0.00  0.00    +0.004 C 
ATOM     18  C   UNL     1       2.349  -0.943  -1.692  0.00  0.00    +0.006 C 
ENDBRANCH  16  18
ENDBRANCH  12  16
ENDBRANCH   5  14
ENDBRANCH   1   9
BRANCH   2  19
ATOM     19  C   UNL     1       2.930  -8.846   5.553  0.00  0.00    +0.300 C 
ATOM     20  O   UNL     1       3.443  -8.229   6.463  0.00  0.00    -0.265 OA
ATOM     21  N   UNL     1       2.958 -10.194   5.551  0.00  0.00    -0.303 N 
ATOM     22  H   UNL     1       2.547 -10.687   4.824  0.00  0.00    +0.149 HD
BRANCH  21  23
ATOM     23  C   UNL     1       3.608 -10.914   6.649  0.00  0.00    +0.141 C 
BRANCH  23  24
ATOM     24  C   UNL     1       3.501 -12.398   6.410  0.00  0.00    -0.014 A 
ATOM     25  C   UNL     1       2.411 -13.110   6.893  0.00  0.00    +0.010 A 
ATOM     26  C   UNL     1       2.351 -14.470   6.652  0.00  0.00    +0.042 A 
ATOM     27  C   UNL     1       3.379 -15.076   5.936  0.00  0.00    +0.098 A 
ATOM     28  N   UNL     1       4.402 -14.363   5.491  0.00  0.00    -0.349 N 
ATOM     29  C   UNL     1       4.482 -13.062   5.702  0.00  0.00    +0.089 A 
ATOM     30  N   UNL     1       3.332 -16.442   5.686  0.00  0.00    -0.323 N 
ATOM     31  C   UNL     1       2.152 -17.218   6.077  0.00  0.00    +0.130 C 
ATOM     32  C   UNL     1       4.462 -17.107   5.033  0.00  0.00    +0.130 C 
ATOM     33  H   UNL     1       5.107 -14.806   4.995  0.00  0.00    +0.167 HD
ENDBRANCH  23  24
ENDBRANCH  21  23
ENDBRANCH   2  19
TORSDOF 7
