REMARK  Name = ZINC38043247
REMARK  4 active torsions:
REMARK  status: ('A' for Active; 'I' for Inactive)
REMARK    1  A    between atoms: C_3  and  C_22
REMARK    2  A    between atoms: C_8  and  C_10
REMARK    3  A    between atoms: N_15  and  C_16
REMARK    4  A    between atoms: C_22  and  O_23
REMARK                            x       y       z     vdW  Elec       q    Type
REMARK                         _______ _______ _______ _____ _____    ______ ____
ROOT
ATOM      1  C   UNL     1      -1.075  -1.875   1.863  0.00  0.00    +0.144 C 
ATOM      2  C   UNL     1      -1.213  -2.635   0.527  0.00  0.00    +0.029 C 
ATOM      3  C   UNL     1      -1.029  -4.117   0.948  0.00  0.00    +0.017 C 
ATOM      4  C   UNL     1      -1.717  -4.136   2.336  0.00  0.00    +0.085 C 
ATOM      5  N   UNL     1      -1.379  -2.829   2.946  0.00  0.00    -0.289 NA
ENDROOT
BRANCH   1  12
ATOM      6  C   UNL     1      -0.019   1.528   0.010  0.00  0.00    +0.019 C 
ATOM      7  C   UNL     1       1.419   2.053  -0.001  0.00  0.00    +0.009 C 
ATOM      8  C   UNL     1       2.149   1.573   1.256  0.00  0.00    +0.032 C 
ATOM      9  C   UNL     1       2.194   0.042   1.262  0.00  0.00    +0.113 C 
ATOM     10  N   UNL     1       0.824  -0.472   1.126  0.00  0.00    -0.300 N 
ATOM     11  C   UNL     1       0.002  -0.004   0.002  0.00  0.00    +0.108 C 
ATOM     12  C   UNL     1       0.332  -1.357   2.016  0.00  0.00    +0.233 C 
ATOM     13  O   UNL     1       1.021  -1.735   2.939  0.00  0.00    -0.274 OA
BRANCH   8  14
ATOM     14  C   UNL     1       3.575   2.127   1.261  0.00  0.00    +0.160 C 
BRANCH  14  15
ATOM     15  O   UNL     1       3.533   3.551   1.369  0.00  0.00    -0.395 OA
ATOM     16  H   UNL     1       4.404   3.971   1.379  0.00  0.00    +0.209 HD
ENDBRANCH  14  15
ENDBRANCH   8  14
ENDBRANCH   1  12
BRANCH   5  17
ATOM     17  C   UNL     1      -2.477  -2.337   3.788  0.00  0.00    +0.054 C 
ATOM     18  C   UNL     1      -2.079  -1.000   4.421  0.00  0.00    -0.000 C 
ATOM     19  C   UNL     1      -3.195  -0.534   5.358  0.00  0.00    -0.081 C 
ATOM     20  N   UNL     1      -3.403  -1.533   6.413  0.00  0.00    +0.379 N 
ATOM     21  C   UNL     1      -3.854  -2.797   5.819  0.00  0.00    -0.081 C 
ATOM     22  C   UNL     1      -2.764  -3.351   4.899  0.00  0.00    -0.000 C 
ATOM     23  H   UNL     1      -2.536  -1.685   6.906  0.00  0.00    -0.086 HD
ATOM     24  H   UNL     1      -4.101  -1.198   7.059  0.00  0.00    -0.086 HD
ENDBRANCH   5  17
TORSDOF 4
