REMARK  Name = ZINC49554783
REMARK  10 active torsions:
REMARK  status: ('A' for Active; 'I' for Inactive)
REMARK    1  A    between atoms: C_1  and  C_2
REMARK    2  A    between atoms: C_2  and  C_4
REMARK    3  A    between atoms: C_2  and  N_9
REMARK    4  A    between atoms: C_4  and  C_5
REMARK    5  A    between atoms: C_5  and  N_6
REMARK    6  A    between atoms: N_6  and  C_7
REMARK    7  A    between atoms: N_6  and  C_8
REMARK    8  A    between atoms: N_9  and  S_10
REMARK    9  A    between atoms: S_10  and  C_13
REMARK   10  A    between atoms: C_14  and  N_21
REMARK                            x       y       z     vdW  Elec       q    Type
REMARK                         _______ _______ _______ _____ _____    ______ ____
ROOT
ATOM      1  S   UNL     1       3.093  -0.927  -1.211  0.00  0.00    +0.062 S 
ATOM      2  O   UNL     1       3.637  -1.486  -2.399  0.00  0.00    -0.153 OA
ATOM      3  O   UNL     1       3.758   0.088  -0.472  0.00  0.00    -0.153 OA
ENDROOT
BRANCH   1   4
ATOM      4  C   UNL     1       2.827  -2.268  -0.099  0.00  0.00    +0.144 A 
ATOM      5  C   UNL     1       2.784  -2.037   1.270  0.00  0.00    +0.054 A 
ATOM      6  C   UNL     1       2.574  -3.096   2.144  0.00  0.00    +0.044 A 
ATOM      7  C   UNL     1       2.408  -4.376   1.649  0.00  0.00    +0.044 A 
ATOM      8  C   UNL     1       2.451  -4.603   0.285  0.00  0.00    +0.042 A 
ATOM      9  C   UNL     1       2.655  -3.549  -0.589  0.00  0.00    +0.070 A 
ATOM     10 CL   UNL     1       2.701  -3.837  -2.300  0.00  0.00    -0.081 Cl
ATOM     11 CL   UNL     1       2.145  -5.700   2.740  0.00  0.00    -0.083 Cl
BRANCH   5  12
ATOM     12  N   UNL     1       2.953  -0.743   1.767  0.00  0.00    -0.356 N 
ATOM     13  H   UNL     1       2.785   0.022   1.195  0.00  0.00    +0.142 HD
ATOM     14  H   UNL     1       3.237  -0.609   2.685  0.00  0.00    +0.142 HD
ENDBRANCH   5  12
ENDBRANCH   1   4
BRANCH   1  15
ATOM     15  N   UNL     1       1.605  -0.322  -1.613  0.00  0.00    -0.187 NA
ATOM     16  H   UNL     1       1.287  -0.383  -2.527  0.00  0.00    +0.148 HD
BRANCH  15  18
ATOM     17  C   UNL     1       0.986   1.821  -0.609  0.00  0.00    +0.025 C 
ATOM     18  C   UNL     1       0.768   0.307  -0.587  0.00  0.00    +0.072 C 
BRANCH  18  19
ATOM     19  C   UNL     1      -0.703  -0.001  -0.870  0.00  0.00    +0.001 C 
BRANCH  19  20
ATOM     20  C   UNL     1      -0.947  -1.505  -0.725  0.00  0.00    -0.078 C 
BRANCH  20  21
ATOM     21  N   UNL     1      -2.360  -1.801  -0.997  0.00  0.00    +0.376 N 
ATOM     22  C   UNL     1      -2.664  -1.491  -2.400  0.00  0.00    -0.097 C 
ATOM     23  C   UNL     1      -2.620  -3.224  -0.742  0.00  0.00    -0.097 C 
ATOM     24  H   UNL     1      -2.942  -1.239  -0.394  0.00  0.00    -0.083 HD
ENDBRANCH  20  21
ENDBRANCH  19  20
ENDBRANCH  18  19
ENDBRANCH  15  18
ENDBRANCH   1  15
TORSDOF 7
