REMARK  Name = ZINC39448168
REMARK  7 active torsions:
REMARK  status: ('A' for Active; 'I' for Inactive)
REMARK    1  A    between atoms: C_4  and  C_7
REMARK    2  A    between atoms: C_9  and  C_19
REMARK    3  A    between atoms: N_11  and  C_13
REMARK    4  A    between atoms: C_19  and  N_20
REMARK    5  A    between atoms: C_21  and  C_23
REMARK    6  A    between atoms: C_23  and  N_24
REMARK    7  A    between atoms: C_25  and  C_30
REMARK                            x       y       z     vdW  Elec       q    Type
REMARK                         _______ _______ _______ _____ _____    ______ ____
ROOT
ATOM      1  C   UNL     1       3.711  -0.707  -0.038  0.00  0.00    +0.132 C 
ATOM      2  C   UNL     1       4.046  -1.226   1.344  0.00  0.00    -0.015 C 
ATOM      3  C   UNL     1       4.114  -2.539   1.253  0.00  0.00    +0.096 C 
ATOM      4  N   UNL     1       3.863  -2.975  -0.034  0.00  0.00    -0.242 N 
ATOM      5  N   UNL     1       3.612  -1.922  -0.871  0.00  0.00    -0.225 NA
ATOM      6  H   UNL     1       2.697  -2.001  -1.288  0.00  0.00    +0.146 HD
ENDROOT
BRANCH   1  10
ATOM      7  C   UNL     1      -0.017   1.378   0.010  0.00  0.00    +0.000 A 
ATOM      8  C   UNL     1       1.171   2.086   0.002  0.00  0.00    +0.000 A 
ATOM      9  C   UNL     1       2.377   1.411  -0.013  0.00  0.00    +0.005 A 
ATOM     10  C   UNL     1       2.396   0.029  -0.020  0.00  0.00    -0.025 A 
ATOM     11  C   UNL     1       1.208  -0.679  -0.012  0.00  0.00    +0.005 A 
ATOM     12  C   UNL     1       0.002  -0.004   0.002  0.00  0.00    +0.000 A 
ENDBRANCH   1  10
BRANCH   4  13
ATOM     13  C   UNL     1       3.866  -4.315  -0.429  0.00  0.00    +0.049 A 
ATOM     14  C   UNL     1       3.607  -4.651  -1.752  0.00  0.00    +0.025 A 
ATOM     15  C   UNL     1       3.611  -5.977  -2.139  0.00  0.00    +0.002 A 
ATOM     16  C   UNL     1       3.872  -6.969  -1.211  0.00  0.00    +0.000 A 
ATOM     17  C   UNL     1       4.130  -6.638   0.106  0.00  0.00    +0.002 A 
ATOM     18  C   UNL     1       4.134  -5.314   0.499  0.00  0.00    +0.025 A 
ENDBRANCH   4  13
BRANCH   2  19
ATOM     19  C   UNL     1       4.262  -0.400   2.586  0.00  0.00    +0.138 C 
BRANCH  19  20
ATOM     20  N   UNL     1       5.653   0.057   2.633  0.00  0.00    -0.310 N 
ATOM     21  C   UNL     1       6.078   0.817   3.662  0.00  0.00    +0.233 C 
ATOM     22  O   UNL     1       5.309   1.123   4.548  0.00  0.00    -0.274 OA
ATOM     23  H   UNL     1       6.268  -0.188   1.924  0.00  0.00    +0.149 HD
BRANCH  21  24
ATOM     24  C   UNL     1       7.510   1.287   3.710  0.00  0.00    +0.221 C 
BRANCH  24  25
ATOM     25  N   UNL     1       7.719   2.090   4.917  0.00  0.00    -0.292 N 
ATOM     26  C   UNL     1       7.555   3.451   5.051  0.00  0.00    +0.172 A 
ATOM     27  N   UNL     1       7.849   3.753   6.296  0.00  0.00    -0.128 NA
ATOM     28  N   UNL     1       8.180   2.691   6.939  0.00  0.00    -0.121 NA
ATOM     29  C   UNL     1       8.114   1.644   6.149  0.00  0.00    +0.203 A 
ATOM     30  S   UNL     1       8.470  -0.024   6.591  0.00  0.00    -0.009 SA
BRANCH  26  31
ATOM     31  C   UNL     1       7.131   4.389   3.999  0.00  0.00    +0.056 A 
ATOM     32  C   UNL     1       6.690   5.683   4.120  0.00  0.00    +0.019 A 
ATOM     33  C   UNL     1       6.345   6.372   2.980  0.00  0.00    +0.008 A 
ATOM     34  C   UNL     1       6.450   5.755   1.775  0.00  0.00    +0.046 A 
ATOM     35  S   UNL     1       7.064   4.142   2.232  0.00  0.00    -0.094 S 
ENDBRANCH  26  31
ENDBRANCH  24  25
ENDBRANCH  21  24
ENDBRANCH  19  20
ENDBRANCH   2  19
TORSDOF 7
