REMARK  Name = ZINC44010805
REMARK  9 active torsions:
REMARK  status: ('A' for Active; 'I' for Inactive)
REMARK    1  A    between atoms: C_1  and  C_2
REMARK    2  A    between atoms: C_4  and  C_22
REMARK    3  A    between atoms: N_5  and  C_7
REMARK    4  A    between atoms: C_7  and  C_8
REMARK    5  A    between atoms: C_8  and  C_10
REMARK    6  A    between atoms: C_8  and  C_11
REMARK    7  A    between atoms: C_11  and  N_12
REMARK    8  A    between atoms: C_13  and  C_14
REMARK    9  A    between atoms: C_19  and  O_20
REMARK                            x       y       z     vdW  Elec       q    Type
REMARK                         _______ _______ _______ _____ _____    ______ ____
ROOT
ATOM      1  N   UNL     1       2.909  -5.155   3.149  0.00  0.00    -0.389 N 
ATOM      2  C   UNL     1       3.309  -4.964   4.365  0.00  0.00    +0.089 C 
ATOM      3  H   UNL     1       3.526  -5.496   2.483  0.00  0.00    +0.159 HD
ENDROOT
BRANCH   2   4
ATOM      4  C   UNL     1       4.669  -5.366   4.765  0.00  0.00    +0.033 A 
ATOM      5  C   UNL     1       5.066  -5.269   6.101  0.00  0.00    +0.033 A 
ATOM      6  C   UNL     1       6.340  -5.647   6.468  0.00  0.00    +0.042 A 
ATOM      7  C   UNL     1       7.229  -6.124   5.518  0.00  0.00    +0.023 A 
ATOM      8  C   UNL     1       6.849  -6.224   4.194  0.00  0.00    +0.047 A 
ATOM      9  C   UNL     1       5.570  -5.854   3.808  0.00  0.00    +0.125 A 
ATOM     10 CL   UNL     1       6.833  -5.527   8.129  0.00  0.00    -0.084 Cl
BRANCH   9  11
ATOM     11  O   UNL     1       5.193  -5.957   2.508  0.00  0.00    -0.506 OA
ATOM     12  H   UNL     1       5.371  -5.165   1.983  0.00  0.00    +0.292 HD
ENDBRANCH   9  11
ENDBRANCH   2   4
BRANCH   1  13
ATOM     13  C   UNL     1       1.523  -4.858   2.778  0.00  0.00    +0.117 C 
BRANCH  13  14
ATOM     14  C   UNL     1       1.500  -3.706   1.771  0.00  0.00    +0.026 C 
ATOM     15  C   UNL     1       2.180  -4.150   0.474  0.00  0.00    +0.011 C 
BRANCH  14  16
ATOM     16  C   UNL     1       0.051  -3.313   1.479  0.00  0.00    +0.148 C 
BRANCH  16  21
ATOM     17  C   UNL     1      -0.016   1.472  -0.038  0.00  0.00    +0.067 C 
ATOM     18  C   UNL     1       0.001  -0.035  -0.033  0.00  0.00    +0.060 A 
ATOM     19  C   UNL     1       0.002  -0.859  -1.163  0.00  0.00    +0.047 A 
ATOM     20  C   UNL     1       0.020  -2.145  -0.741  0.00  0.00    +0.036 A 
ATOM     21  N   UNL     1       0.030  -2.135   0.608  0.00  0.00    -0.268 N 
ATOM     22  N   UNL     1       0.023  -0.799   1.030  0.00  0.00    -0.176 NA
ATOM     23  C   UNL     1       0.028  -3.369  -1.621  0.00  0.00    +0.065 C 
ENDBRANCH  16  21
ENDBRANCH  14  16
ENDBRANCH  13  14
ENDBRANCH   1  13
TORSDOF 6
