REMARK  Name = ZINC26893745
REMARK  14 active torsions:
REMARK  status: ('A' for Active; 'I' for Inactive)
REMARK    1  A    between atoms: C_3  and  O_12
REMARK    2  A    between atoms: C_6  and  C_7
REMARK    3  A    between atoms: O_12  and  C_13
REMARK    4  A    between atoms: C_13  and  C_14
REMARK    5  A    between atoms: C_14  and  C_16
REMARK    6  A    between atoms: C_14  and  O_40
REMARK    7  A    between atoms: C_16  and  N_17
REMARK    8  A    between atoms: N_20  and  C_23
REMARK    9  A    between atoms: C_23  and  C_24
REMARK   10  A    between atoms: C_24  and  C_26
REMARK   11  A    between atoms: C_24  and  O_39
REMARK   12  A    between atoms: C_26  and  O_27
REMARK   13  A    between atoms: O_27  and  C_28
REMARK   14  A    between atoms: C_31  and  C_34
REMARK                            x       y       z     vdW  Elec       q    Type
REMARK                         _______ _______ _______ _____ _____    ______ ____
ROOT
ATOM      1  N   UNL     1       2.073   0.960   1.140  0.00  0.00    -0.297 NA
ATOM      2  C   UNL     1       1.440   1.357   2.405  0.00  0.00    +0.100 C 
ATOM      3  C   UNL     1       2.093   0.595   3.560  0.00  0.00    +0.100 C 
ATOM      4  N   UNL     1       3.534   0.883   3.582  0.00  0.00    -0.297 NA
ATOM      5  C   UNL     1       4.167   0.486   2.317  0.00  0.00    +0.100 C 
ATOM      6  C   UNL     1       3.514   1.249   1.162  0.00  0.00    +0.100 C 
ENDROOT
BRANCH   1   7
ATOM      7  C   UNL     1       1.423   1.615  -0.003  0.00  0.00    +0.119 C 
BRANCH   7   8
ATOM      8  C   UNL     1       1.746   0.845  -1.285  0.00  0.00    +0.166 C 
BRANCH   8   9
ATOM      9  O   UNL     1       1.256  -0.493  -1.173  0.00  0.00    -0.387 OA
ATOM     10  H   UNL     1       1.624  -1.148  -0.369  0.00  0.00    +0.210 HD
ENDBRANCH   8   9
BRANCH   8  11
ATOM     11  C   UNL     1       1.079   1.535  -2.476  0.00  0.00    +0.261 C 
BRANCH  11  12
ATOM     12  O   UNL     1       1.475   0.885  -3.686  0.00  0.00    -0.489 OA
BRANCH  12  15
ATOM     13  C   UNL     1       0.801   1.289  -7.235  0.00  0.00    +0.017 A 
ATOM     14  C   UNL     1       1.313   0.792  -6.056  0.00  0.00    +0.046 A 
ATOM     15  C   UNL     1       0.968   1.378  -4.845  0.00  0.00    +0.121 A 
ATOM     16  C   UNL     1       0.101   2.462  -4.816  0.00  0.00    +0.046 A 
ATOM     17  C   UNL     1      -0.411   2.969  -5.991  0.00  0.00    +0.017 A 
ATOM     18  C   UNL     1      -0.067   2.383  -7.211  0.00  0.00    +0.039 A 
BRANCH  18  19
ATOM     19  C   UNL     1      -0.618   2.920  -8.473  0.00  0.00    +0.248 A 
ATOM     20  N   UNL     1      -0.373   2.472  -9.682  0.00  0.00    -0.108 NA
ATOM     21  N   UNL     1      -1.026   3.179 -10.536  0.00  0.00    -0.116 NA
ATOM     22  C   UNL     1      -1.700   4.104  -9.912  0.00  0.00    +0.332 A 
ATOM     23  O   UNL     1      -1.460   3.965  -8.597  0.00  0.00    -0.423 OA
ENDBRANCH  18  19
ENDBRANCH  12  15
ENDBRANCH  11  12
ENDBRANCH   8  11
ENDBRANCH   7   8
ENDBRANCH   1   7
BRANCH   4  24
ATOM     24  C   UNL     1       4.185   0.228   4.725  0.00  0.00    +0.119 C 
BRANCH  24  25
ATOM     25  C   UNL     1       3.673   0.847   6.027  0.00  0.00    +0.166 C 
BRANCH  25  26
ATOM     26  O   UNL     1       3.977   2.244   6.042  0.00  0.00    -0.387 OA
ATOM     27  H   UNL     1       3.684   2.861   6.904  0.00  0.00    +0.210 HD
ENDBRANCH  25  26
BRANCH  25  28
ATOM     28  C   UNL     1       4.351   0.165   7.217  0.00  0.00    +0.261 C 
BRANCH  28  29
ATOM     29  O   UNL     1       3.789   0.661   8.434  0.00  0.00    -0.489 OA
BRANCH  29  30
ATOM     30  C   UNL     1       4.283   0.154   9.593  0.00  0.00    +0.121 A 
ATOM     31  C   UNL     1       5.286  -0.806   9.557  0.00  0.00    +0.046 A 
ATOM     32  C   UNL     1       5.794  -1.319  10.731  0.00  0.00    +0.017 A 
ATOM     33  C   UNL     1       5.292  -0.880  11.957  0.00  0.00    +0.039 A 
ATOM     34  C   UNL     1       4.280   0.082  11.989  0.00  0.00    +0.017 A 
ATOM     35  C   UNL     1       3.781   0.593  10.811  0.00  0.00    +0.046 A 
BRANCH  33  36
ATOM     36  C   UNL     1       5.831  -1.431  13.218  0.00  0.00    +0.248 A 
ATOM     37  N   UNL     1       5.457  -1.104  14.434  0.00  0.00    -0.108 NA
ATOM     38  N   UNL     1       6.139  -1.786  15.285  0.00  0.00    -0.116 NA
ATOM     39  C   UNL     1       6.974  -2.561  14.653  0.00  0.00    +0.332 A 
ATOM     40  O   UNL     1       6.802  -2.358  13.336  0.00  0.00    -0.423 OA
ENDBRANCH  33  36
ENDBRANCH  29  30
ENDBRANCH  28  29
ENDBRANCH  25  28
ENDBRANCH  24  25
ENDBRANCH   4  24
TORSDOF 14
