REMARK  Name = ZINC62888436
REMARK  7 active torsions:
REMARK  status: ('A' for Active; 'I' for Inactive)
REMARK    1  A    between atoms: C_1  and  C_2
REMARK    2  A    between atoms: C_2  and  C_7
REMARK    3  A    between atoms: N_9  and  C_10
REMARK    4  A    between atoms: C_13  and  O_18
REMARK    5  A    between atoms: C_15  and  O_16
REMARK    6  A    between atoms: O_16  and  C_17
REMARK    7  A    between atoms: O_18  and  C_19
REMARK                            x       y       z     vdW  Elec       q    Type
REMARK                         _______ _______ _______ _____ _____    ______ ____
ROOT
ATOM      1  C   UNL     1      -1.407  -0.540  -0.035  0.00  0.00    +0.221 C 
ATOM      2  O   UNL     1      -1.804  -1.266   0.852  0.00  0.00    -0.275 OA
ATOM      3  N   UNL     1      -2.220  -0.225  -1.063  0.00  0.00    -0.282 N 
ATOM      4  H   UNL     1      -1.925   0.406  -1.738  0.00  0.00    +0.155 HD
ENDROOT
BRANCH   1   6
ATOM      5  C   UNL     1      -0.036   1.541   0.021  0.00  0.00    +0.019 C 
ATOM      6  C   UNL     1      -0.005   0.011   0.013  0.00  0.00    +0.028 C 
ATOM      7  C   UNL     1       0.817  -0.502  -1.192  0.00  0.00    -0.005 C 
ATOM      8  C   UNL     1       2.212  -0.769  -0.572  0.00  0.00    -0.082 C 
ATOM      9  N   UNL     1       1.887  -1.306   0.775  0.00  0.00    +0.380 N 
ATOM     10  C   UNL     1       0.734  -0.515   1.257  0.00  0.00    -0.067 C 
ATOM     11  H   UNL     1       1.638  -2.281   0.710  0.00  0.00    -0.086 HD
ATOM     12  H   UNL     1       2.674  -1.187   1.395  0.00  0.00    -0.086 HD
ENDBRANCH   1   6
BRANCH   3  13
ATOM     13  C   UNL     1      -3.491  -0.811  -1.157  0.00  0.00    +0.077 A 
ATOM     14  C   UNL     1      -4.212  -1.092  -0.006  0.00  0.00    +0.050 A 
ATOM     15  C   UNL     1      -5.465  -1.670  -0.098  0.00  0.00    +0.084 A 
ATOM     16  C   UNL     1      -6.003  -1.969  -1.342  0.00  0.00    +0.142 A 
ATOM     17  C   UNL     1      -5.285  -1.689  -2.495  0.00  0.00    +0.094 A 
ATOM     18  C   UNL     1      -4.032  -1.105  -2.406  0.00  0.00    +0.145 A 
ATOM     19 CL   UNL     1      -6.365  -2.022   1.343  0.00  0.00    -0.080 Cl
BRANCH  18  20
ATOM     20  O   UNL     1      -3.329  -0.825  -3.536  0.00  0.00    -0.493 OA
ATOM     21  C   UNL     1      -3.946  -1.154  -4.782  0.00  0.00    +0.277 C 
ENDBRANCH  18  20
BRANCH  16  22
ATOM     22  O   UNL     1      -7.235  -2.538  -1.431  0.00  0.00    -0.494 OA
ATOM     23  C   UNL     1      -7.728  -2.819  -2.742  0.00  0.00    +0.277 C 
ENDBRANCH  16  22
ENDBRANCH   3  13
TORSDOF 4
