REMARK  Name = ZINC37906660
REMARK  5 active torsions:
REMARK  status: ('A' for Active; 'I' for Inactive)
REMARK    1  A    between atoms: C_1  and  C_2
REMARK    2  A    between atoms: C_2  and  C_4
REMARK    3  A    between atoms: C_2  and  N_10
REMARK    4  A    between atoms: N_10  and  C_11
REMARK    5  A    between atoms: C_14  and  N_17
REMARK                            x       y       z     vdW  Elec       q    Type
REMARK                         _______ _______ _______ _____ _____    ______ ____
ROOT
ATOM      1  C   UNL     1      -2.053  -0.660   1.224  0.00  0.00    +0.028 A 
ATOM      2  C   UNL     1      -1.428  -0.323   2.418  0.00  0.00    +0.025 A 
ATOM      3  C   UNL     1      -2.101  -0.470   3.614  0.00  0.00    +0.030 A 
ATOM      4  C   UNL     1      -3.402  -0.956   3.624  0.00  0.00    +0.069 A 
ATOM      5  C   UNL     1      -4.026  -1.294   2.431  0.00  0.00    +0.030 A 
ATOM      6  C   UNL     1      -3.356  -1.141   1.234  0.00  0.00    +0.025 A 
ENDROOT
BRANCH   4   7
ATOM      7  N   UNL     1      -4.085  -1.105   4.841  0.00  0.00    -0.200 N 
ATOM      8  C   UNL     1      -5.342  -1.565   5.024  0.00  0.00    +0.250 A 
ATOM      9  N   UNL     1      -5.581  -1.540   6.309  0.00  0.00    -0.116 NA
ATOM     10  N   UNL     1      -4.561  -1.095   6.951  0.00  0.00    -0.023 NA
ATOM     11  N   UNL     1      -3.607  -0.814   6.130  0.00  0.00    -0.039 NA
ENDBRANCH   4   7
BRANCH   1  12
ATOM     12  N   UNL     1      -1.372  -0.511   0.012  0.00  0.00    -0.336 N 
ATOM     13  H   UNL     1      -1.810  -0.743  -0.822  0.00  0.00    +0.147 HD
BRANCH  12  15
ATOM     14  C   UNL     1      -0.019   1.526   0.010  0.00  0.00    +0.034 C 
ATOM     15  C   UNL     1       0.002  -0.004   0.002  0.00  0.00    +0.118 C 
BRANCH  15  16
ATOM     16  C   UNL     1       0.707  -0.490  -1.238  0.00  0.00    +0.083 A 
ATOM     17  C   UNL     1       2.089  -0.656  -1.384  0.00  0.00    +0.046 A 
ATOM     18  C   UNL     1       2.323  -1.108  -2.638  0.00  0.00    +0.105 A 
ATOM     19  N   UNL     1       1.133  -1.224  -3.263  0.00  0.00    -0.284 N 
ATOM     20  H   UNL     1       0.994  -1.526  -4.174  0.00  0.00    +0.188 HD
ATOM     21  N   UNL     1       0.133  -0.835  -2.362  0.00  0.00    -0.177 NA
ENDBRANCH  15  16
ENDBRANCH  12  15
ENDBRANCH   1  12
TORSDOF 4
