REMARK  Name = ZINC49118365
REMARK  4 active torsions:
REMARK  status: ('A' for Active; 'I' for Inactive)
REMARK    1  A    between atoms: C_1  and  C_2
REMARK    2  A    between atoms: C_2  and  C_3
REMARK    3  A    between atoms: C_6  and  N_9
REMARK    4  A    between atoms: N_9  and  C_10
REMARK                            x       y       z     vdW  Elec       q    Type
REMARK                         _______ _______ _______ _____ _____    ______ ____
ROOT
ATOM      1  C   UNL     1       3.523  -4.035  -3.755  0.00  0.00    +0.049 C 
ATOM      2  C   UNL     1       4.158  -4.549  -5.026  0.00  0.00    -0.026 A 
ATOM      3  C   UNL     1       3.826  -4.420  -6.357  0.00  0.00    +0.042 A 
ATOM      4  C   UNL     1       4.614  -5.016  -7.327  0.00  0.00    +0.126 A 
ATOM      5  C   UNL     1       5.735  -5.739  -6.955  0.00  0.00    +0.078 A 
ATOM      6  C   UNL     1       6.069  -5.869  -5.621  0.00  0.00    +0.147 A 
ATOM      7  C   UNL     1       5.279  -5.271  -4.639  0.00  0.00    +0.071 A 
ATOM      8  N   UNL     1       5.405  -5.258  -3.248  0.00  0.00    -0.284 N 
ATOM      9  C   UNL     1       4.419  -4.559  -2.653  0.00  0.00    +0.208 C 
ATOM     10  O   UNL     1       4.276  -4.381  -1.462  0.00  0.00    -0.277 OA
ATOM     11  F   UNL     1       7.164  -6.577  -5.266  0.00  0.00    -0.203 F 
ATOM     12  F   UNL     1       4.291  -4.892  -8.633  0.00  0.00    -0.205 F 
ATOM     13  H   UNL     1       6.120  -5.702  -2.765  0.00  0.00    +0.155 HD
ENDROOT
BRANCH   1  14
ATOM     14  N   UNL     1       3.503  -2.566  -3.747  0.00  0.00    +0.391 N 
ATOM     15  H   UNL     1       3.015  -2.232  -4.564  0.00  0.00    -0.084 HD
ATOM     16  H   UNL     1       4.450  -2.217  -3.754  0.00  0.00    -0.084 HD
BRANCH  14  20
ATOM     17  C   UNL     1       0.718  -0.497  -1.257  0.00  0.00    -0.011 C 
ATOM     18  C   UNL     1       2.187  -0.073  -1.207  0.00  0.00    +0.002 C 
ATOM     19  C   UNL     1       2.904  -0.566  -2.466  0.00  0.00    -0.015 C 
ATOM     20  C   UNL     1       2.816  -2.092  -2.538  0.00  0.00    -0.070 C 
ATOM     21  C   UNL     1       1.347  -2.517  -2.587  0.00  0.00    -0.015 C 
ATOM     22  C   UNL     1       0.630  -2.023  -1.329  0.00  0.00    +0.002 C 
BRANCH  17  24
ATOM     23  C   UNL     1      -0.019   1.526   0.010  0.00  0.00    +0.004 C 
ATOM     24  C   UNL     1       0.002  -0.004   0.002  0.00  0.00    -0.000 C 
ENDBRANCH  17  24
ENDBRANCH  14  20
ENDBRANCH   1  14
TORSDOF 3
