REMARK  Name = ZINC44714571
REMARK  12 active torsions:
REMARK  status: ('A' for Active; 'I' for Inactive)
REMARK    1  A    between atoms: C_1  and  C_2
REMARK    2  A    between atoms: C_2  and  C_3
REMARK    3  A    between atoms: C_3  and  C_4
REMARK    4  A    between atoms: C_4  and  C_5
REMARK    5  A    between atoms: C_5  and  C_6
REMARK    6  A    between atoms: C_6  and  C_7
REMARK    7  A    between atoms: C_11  and  C_20
REMARK    8  A    between atoms: N_22  and  C_23
REMARK    9  A    between atoms: C_23  and  C_24
REMARK   10  A    between atoms: C_24  and  C_25
REMARK   11  A    between atoms: C_26  and  C_37
REMARK   12  A    between atoms: C_32  and  C_35
REMARK                            x       y       z     vdW  Elec       q    Type
REMARK                         _______ _______ _______ _____ _____    ______ ____
ROOT
ATOM      1  C   UNL     1       2.136  -4.573  -3.462  0.00  0.00    +0.216 C 
ATOM      2  O   UNL     1       2.575  -3.703  -4.184  0.00  0.00    -0.276 OA
ATOM      3  N   UNL     1       2.292  -5.869  -3.797  0.00  0.00    -0.300 N 
ATOM      4  C   UNL     1       1.825  -7.062  -3.053  0.00  0.00    +0.121 C 
ATOM      5  C   UNL     1       1.337  -8.038  -4.147  0.00  0.00    +0.100 C 
ATOM      6  C   UNL     1       2.094  -7.615  -5.416  0.00  0.00    -0.004 C 
ATOM      7  C   UNL     1       2.966  -6.423  -4.995  0.00  0.00    +0.115 C 
ATOM      8  C   UNL     1       1.111  -7.184  -6.500  0.00  0.00    -0.010 C 
ATOM      9  C   UNL     1       1.885  -6.823  -7.771  0.00  0.00    -0.082 C 
ATOM     10  N   UNL     1       2.661  -7.985  -8.220  0.00  0.00    +0.379 N 
ATOM     11  C   UNL     1       3.668  -8.335  -7.211  0.00  0.00    -0.082 C 
ATOM     12  C   UNL     1       2.969  -8.760  -5.917  0.00  0.00    -0.010 C 
ATOM     13  H   UNL     1       2.041  -8.768  -8.361  0.00  0.00    -0.086 HD
ATOM     14  H   UNL     1       3.122  -7.763  -9.090  0.00  0.00    -0.086 HD
ENDROOT
BRANCH   5  15
ATOM     15  C   UNL     1      -0.150  -7.899  -4.349  0.00  0.00    +0.218 C 
ATOM     16  O   UNL     1      -0.691  -6.830  -4.155  0.00  0.00    -0.275 OA
ATOM     17  N   UNL     1      -0.879  -8.961  -4.746  0.00  0.00    -0.315 N 
ATOM     18  H   UNL     1      -0.446  -9.815  -4.901  0.00  0.00    +0.149 HD
BRANCH  17  19
ATOM     19  C   UNL     1      -2.324  -8.825  -4.943  0.00  0.00    +0.109 C 
BRANCH  19  20
ATOM     20  C   UNL     1      -2.906 -10.168  -5.389  0.00  0.00    +0.056 C 
BRANCH  20  21
ATOM     21  C   UNL     1      -4.393 -10.028  -5.592  0.00  0.00    -0.018 A 
ATOM     22  C   UNL     1      -5.347 -10.219  -4.667  0.00  0.00    +0.017 A 
ATOM     23  N   UNL     1      -6.581 -10.001  -5.217  0.00  0.00    -0.358 N 
ATOM     24  H   UNL     1      -7.423 -10.079  -4.742  0.00  0.00    +0.166 HD
ATOM     25  C   UNL     1      -6.451  -9.655  -6.541  0.00  0.00    +0.047 A 
ATOM     26  C   UNL     1      -5.073  -9.652  -6.835  0.00  0.00    +0.004 A 
ATOM     27  C   UNL     1      -4.635  -9.329  -8.117  0.00  0.00    +0.029 A 
ATOM     28  C   UNL     1      -5.569  -9.009  -9.098  0.00  0.00    +0.052 A 
ATOM     29  C   UNL     1      -6.937  -9.014  -8.792  0.00  0.00    +0.021 A 
ATOM     30  C   UNL     1      -7.369  -9.336  -7.539  0.00  0.00    +0.027 A 
ATOM     31  C   UNL     1      -5.096 -10.617  -3.235  0.00  0.00    +0.063 C 
BRANCH  28  32
ATOM     32  C   UNL     1      -5.133  -8.675 -10.420  0.00  0.00    +0.099 C 
ATOM     33  N   UNL     1      -4.787  -8.410 -11.469  0.00  0.00    -0.191 NA
ENDBRANCH  28  32
ENDBRANCH  20  21
ENDBRANCH  19  20
ENDBRANCH  17  19
ENDBRANCH   5  15
BRANCH   1  34
ATOM     34  C   UNL     1       1.415  -4.205  -2.191  0.00  0.00    +0.096 C 
BRANCH  34  35
ATOM     35  C   UNL     1       1.375  -2.682  -2.050  0.00  0.00    +0.009 C 
BRANCH  35  36
ATOM     36  C   UNL     1       0.644  -2.308  -0.759  0.00  0.00    +0.000 C 
BRANCH  36  37
ATOM     37  C   UNL     1       0.604  -0.785  -0.619  0.00  0.00    -0.000 C 
BRANCH  37  39
ATOM     38  C   UNL     1      -0.167   1.112   0.813  0.00  0.00    +0.004 C 
ATOM     39  C   UNL     1      -0.127  -0.411   0.672  0.00  0.00    -0.003 C 
ENDBRANCH  37  39
ENDBRANCH  36  37
ENDBRANCH  35  36
ENDBRANCH  34  35
ENDBRANCH   1  34
TORSDOF 10
