REMARK  Name = ZINC67473416
REMARK  3 active torsions:
REMARK  status: ('A' for Active; 'I' for Inactive)
REMARK    1  A    between atoms: C_1  and  C_2
REMARK    2  A    between atoms: C_3  and  C_12
REMARK    3  A    between atoms: C_8  and  C_11
REMARK                            x       y       z     vdW  Elec       q    Type
REMARK                         _______ _______ _______ _____ _____    ______ ____
ROOT
ATOM      1  C   UNL     1      -2.486  -0.035   0.014  0.00  0.00    +0.252 C 
ATOM      2  O   UNL     1      -2.527   1.177   0.107  0.00  0.00    -0.270 OA
ATOM      3  N   UNL     1      -3.629  -0.742  -0.086  0.00  0.00    -0.297 N 
ATOM      4  C   UNL     1      -3.603  -2.211  -0.090  0.00  0.00    +0.108 C 
ATOM      5  C   UNL     1      -4.344  -2.716  -1.332  0.00  0.00    +0.019 C 
ATOM      6  C   UNL     1      -5.755  -2.121  -1.357  0.00  0.00    +0.008 C 
ATOM      7  C   UNL     1      -5.668  -0.600  -1.413  0.00  0.00    -0.030 C 
ATOM      8  C   UNL     1      -4.927  -0.059  -0.187  0.00  0.00    +0.113 C 
ATOM      9  C   UNL     1      -7.082   0.008  -1.482  0.00  0.00    -0.013 C 
ATOM     10  C   UNL     1      -6.904   1.181  -2.480  0.00  0.00    -0.082 C 
ATOM     11  N   UNL     1      -5.946   0.639  -3.477  0.00  0.00    +0.379 N 
ATOM     12  C   UNL     1      -4.964  -0.154  -2.703  0.00  0.00    -0.074 C 
ATOM     13  H   UNL     1      -6.428   0.047  -4.137  0.00  0.00    -0.086 HD
ATOM     14  H   UNL     1      -5.481   1.394  -3.959  0.00  0.00    -0.086 HD
ENDROOT
BRANCH   1  17
ATOM     15  C   UNL     1      -1.493  -1.266   2.454  0.00  0.00    +0.046 C 
ATOM     16  C   UNL     1      -0.701  -1.323   1.173  0.00  0.00    -0.013 A 
ATOM     17  C   UNL     1      -1.189  -0.729   0.011  0.00  0.00    +0.105 A 
ATOM     18  C   UNL     1      -0.413  -0.804  -1.174  0.00  0.00    +0.261 A 
ATOM     19  O   UNL     1      -0.819  -0.292  -2.203  0.00  0.00    -0.267 OA
ATOM     20  N   UNL     1       0.771  -1.444  -1.159  0.00  0.00    -0.324 N 
ATOM     21  H   UNL     1       1.298  -1.492  -1.973  0.00  0.00    +0.169 HD
ATOM     22  C   UNL     1       1.241  -2.020  -0.027  0.00  0.00    +0.035 A 
ATOM     23  C   UNL     1       0.536  -1.968   1.133  0.00  0.00    +0.064 A 
ATOM     24 CL   UNL     1       1.172  -2.712   2.568  0.00  0.00    -0.081 Cl
ATOM     25  C   UNL     1       2.572  -2.726  -0.053  0.00  0.00    +0.065 C 
ENDBRANCH   1  17
TORSDOF 1
