REMARK  Name = ZINC45538724
REMARK  13 active torsions:
REMARK  status: ('A' for Active; 'I' for Inactive)
REMARK    1  A    between atoms: C_1  and  C_2
REMARK    2  A    between atoms: C_2  and  N_3
REMARK    3  A    between atoms: N_3  and  C_4
REMARK    4  A    between atoms: N_3  and  C_6
REMARK    5  A    between atoms: C_4  and  C_5
REMARK    6  A    between atoms: C_6  and  C_8
REMARK    7  A    between atoms: C_6  and  C_12
REMARK    8  A    between atoms: C_8  and  C_9
REMARK    9  A    between atoms: C_9  and  C_10
REMARK   10  A    between atoms: C_9  and  C_11
REMARK   11  A    between atoms: C_12  and  N_13
REMARK   12  A    between atoms: N_16  and  N_17
REMARK   13  A    between atoms: C_18  and  C_20
REMARK                            x       y       z     vdW  Elec       q    Type
REMARK                         _______ _______ _______ _____ _____    ______ ____
ROOT
ATOM      1  N   UNL     1      -1.685   1.872   1.424  0.00  0.00    -0.300 N 
ATOM      2  C   UNL     1      -2.164   3.119   1.603  0.00  0.00    +0.316 C 
ATOM      3  O   UNL     1      -3.351   3.291   1.803  0.00  0.00    -0.251 OA
ATOM      4  N   UNL     1      -1.328   4.175   1.562  0.00  0.00    -0.218 N 
ATOM      5  H   UNL     1      -0.730   1.727   1.338  0.00  0.00    +0.150 HD
ATOM      6  H   UNL     1      -1.659   5.064   1.764  0.00  0.00    +0.174 HD
ENDROOT
BRANCH   4   7
ATOM      7  N   UNL     1       0.020   3.988   1.227  0.00  0.00    -0.233 N 
ATOM      8  C   UNL     1       0.833   5.054   1.085  0.00  0.00    +0.234 C 
ATOM      9  O   UNL     1       0.398   6.174   1.248  0.00  0.00    -0.274 OA
ATOM     10  H   UNL     1       0.368   3.092   1.097  0.00  0.00    +0.173 HD
BRANCH   8  11
ATOM     11  C   UNL     1       2.282   4.853   0.725  0.00  0.00    +0.099 C 
ATOM     12  C   UNL     1       2.982   4.034   1.822  0.00  0.00    +0.037 C 
ATOM     13  C   UNL     1       4.516   4.095   1.629  0.00  0.00    +0.166 C 
ATOM     14  S   UNL     1       4.754   5.718   0.796  0.00  0.00    -0.030 S 
ATOM     15  O   UNL     1       5.301   5.498  -0.497  0.00  0.00    -0.174 OA
ATOM     16  O   UNL     1       5.410   6.605   1.691  0.00  0.00    -0.174 OA
ATOM     17  C   UNL     1       2.994   6.233   0.622  0.00  0.00    +0.178 C 
ENDBRANCH   8  11
ENDBRANCH   4   7
BRANCH   1  18
ATOM     18  C   UNL     1      -2.607   0.735   1.358  0.00  0.00    +0.090 C 
BRANCH  18  19
ATOM     19  C   UNL     1      -1.821  -0.542   1.054  0.00  0.00    -0.051 C 
BRANCH  19  20
ATOM     20  N   UNL     1      -1.300  -0.482  -0.318  0.00  0.00    +0.382 N 
ATOM     21  H   UNL     1      -1.263  -1.413  -0.705  0.00  0.00    -0.081 HD
BRANCH  20  23
ATOM     22  C   UNL     1      -3.537  -0.334  -1.302  0.00  0.00    -0.017 C 
ATOM     23  C   UNL     1      -2.182   0.357  -1.141  0.00  0.00    -0.082 C 
ENDBRANCH  20  23
BRANCH  20  24
ATOM     24  C   UNL     1       0.051   0.096  -0.304  0.00  0.00    -0.082 C 
ATOM     25  C   UNL     1       0.984  -0.809   0.504  0.00  0.00    -0.017 C 
ENDBRANCH  20  24
ENDBRANCH  19  20
BRANCH  19  26
ATOM     26  C   UNL     1      -2.743  -1.754   1.196  0.00  0.00    -0.011 C 
BRANCH  26  27
ATOM     27  C   UNL     1      -1.938  -3.036   0.973  0.00  0.00    -0.019 C 
ATOM     28  C   UNL     1      -0.911  -3.196   2.096  0.00  0.00    +0.007 C 
ATOM     29  C   UNL     1      -2.884  -4.239   0.972  0.00  0.00    +0.007 C 
ENDBRANCH  26  27
ENDBRANCH  19  26
ENDBRANCH  18  19
ENDBRANCH   1  18
TORSDOF 9
