REMARK  Name = ZINC14016444
REMARK  9 active torsions:
REMARK  status: ('A' for Active; 'I' for Inactive)
REMARK    1  A    between atoms: C_1  and  C_2
REMARK    2  A    between atoms: C_2  and  O_3
REMARK    3  A    between atoms: O_3  and  C_4
REMARK    4  A    between atoms: C_4  and  C_6
REMARK    5  A    between atoms: C_7  and  C_24
REMARK    6  A    between atoms: C_10  and  N_11
REMARK    7  A    between atoms: C_12  and  C_14
REMARK    8  A    between atoms: C_14  and  N_51
REMARK    9  A    between atoms: C_19  and  C_21
REMARK                            x       y       z     vdW  Elec       q    Type
REMARK                         _______ _______ _______ _____ _____    ______ ____
ROOT
ATOM      1  N   UNL     1       1.015  -1.381  -1.155  0.00  0.00    -0.281 N 
ATOM      2  C   UNL     1       1.653  -0.211  -0.956  0.00  0.00    +0.201 C 
ATOM      3  O   UNL     1       1.053   0.836  -1.084  0.00  0.00    -0.278 OA
ATOM      4  H   UNL     1       1.494  -2.218  -1.053  0.00  0.00    +0.155 HD
ENDROOT
BRANCH   1   9
ATOM      5  C   UNL     1      -1.144  -2.483  -1.769  0.00  0.00    +0.091 A 
ATOM      6  C   UNL     1      -2.515  -2.197  -2.119  0.00  0.00    -0.021 A 
ATOM      7  C   UNL     1      -2.878  -0.904  -2.177  0.00  0.00    +0.051 A 
ATOM      8  S   UNL     1      -1.381  -0.038  -1.753  0.00  0.00    -0.081 S 
ATOM      9  C   UNL     1      -0.324  -1.389  -1.512  0.00  0.00    +0.086 A 
BRANCH   6  10
ATOM     10  C   UNL     1      -3.497  -3.303  -2.413  0.00  0.00    +0.020 C 
ATOM     11  C   UNL     1      -4.863  -2.903  -2.976  0.00  0.00    +0.009 C 
ATOM     12  C   UNL     1      -4.744  -3.393  -1.531  0.00  0.00    +0.009 C 
ENDBRANCH   6  10
BRANCH   5  13
ATOM     13  C   UNL     1      -0.642  -3.856  -1.684  0.00  0.00    +0.342 C 
ATOM     14  O   UNL     1      -0.705  -4.462  -0.631  0.00  0.00    -0.245 OA
BRANCH  13  15
ATOM     15  O   UNL     1      -0.110  -4.448  -2.773  0.00  0.00    -0.461 OA
BRANCH  15  17
ATOM     16  C   UNL     1       0.932  -6.310  -3.947  0.00  0.00    +0.048 C 
ATOM     17  C   UNL     1       0.367  -5.810  -2.615  0.00  0.00    +0.229 C 
ENDBRANCH  15  17
ENDBRANCH  13  15
ENDBRANCH   5  13
ENDBRANCH   1   9
BRANCH   2  18
ATOM     18  C   UNL     1       3.111  -0.202  -0.574  0.00  0.00    +0.020 C 
BRANCH  18  24
ATOM     19  C   UNL     1       3.677   1.854  -1.719  0.00  0.00    -0.077 C 
ATOM     20  C   UNL     1       4.013   3.333  -1.508  0.00  0.00    -0.019 C 
ATOM     21  C   UNL     1       5.334   3.446  -0.742  0.00  0.00    -0.003 C 
ATOM     22  C   UNL     1       5.209   2.700   0.589  0.00  0.00    -0.006 C 
ATOM     23  C   UNL     1       4.838   1.240   0.317  0.00  0.00    +0.020 C 
ATOM     24  N   UNL     1       3.546   1.199  -0.400  0.00  0.00    +0.393 N 
ATOM     25  H   UNL     1       2.842   1.701   0.153  0.00  0.00    -0.080 HD
BRANCH  23  26
ATOM     26  C   UNL     1       4.695   0.507   1.626  0.00  0.00    +0.197 C 
ATOM     27  O   UNL     1       3.613   0.447   2.172  0.00  0.00    -0.278 OA
ATOM     28  N   UNL     1       5.768  -0.083   2.189  0.00  0.00    -0.331 N 
ATOM     29  H   UNL     1       6.632  -0.035   1.752  0.00  0.00    +0.145 HD
ATOM     30  H   UNL     1       5.675  -0.555   3.031  0.00  0.00    +0.145 HD
ENDBRANCH  23  26
ENDBRANCH  18  24
ENDBRANCH   2  18
TORSDOF 8
