REMARK  Name = ZINC64886628
REMARK  7 active torsions:
REMARK  status: ('A' for Active; 'I' for Inactive)
REMARK    1  A    between atoms: C_3  and  C_11
REMARK    2  A    between atoms: C_6  and  N_7
REMARK    3  A    between atoms: N_13  and  N_14
REMARK    4  A    between atoms: N_17  and  C_18
REMARK    5  A    between atoms: C_18  and  C_19
REMARK    6  A    between atoms: C_19  and  C_20
REMARK    7  A    between atoms: C_20  and  N_21
REMARK                            x       y       z     vdW  Elec       q    Type
REMARK                         _______ _______ _______ _____ _____    ______ ____
ROOT
ATOM      1  N   UNL     1       4.845   4.225  -0.023  0.00  0.00    -0.218 N 
ATOM      2  C   UNL     1       4.829   5.573  -0.016  0.00  0.00    +0.316 C 
ATOM      3  O   UNL     1       5.875   6.193  -0.023  0.00  0.00    -0.251 OA
ATOM      4  N   UNL     1       3.654   6.233  -0.001  0.00  0.00    -0.298 N 
ATOM      5  H   UNL     1       5.691   3.750  -0.034  0.00  0.00    +0.174 HD
ATOM      6  H   UNL     1       2.820   5.738   0.004  0.00  0.00    +0.150 HD
ENDROOT
BRANCH   1   9
ATOM      7  C   UNL     1       3.656   2.163  -0.022  0.00  0.00    +0.262 C 
ATOM      8  O   UNL     1       4.715   1.567  -0.035  0.00  0.00    -0.269 OA
ATOM      9  N   UNL     1       3.640   3.510  -0.015  0.00  0.00    -0.229 N 
ATOM     10  H   UNL     1       2.794   3.985  -0.004  0.00  0.00    +0.173 HD
BRANCH   7  13
ATOM     11  C   UNL     1      -0.017   1.380   0.010  0.00  0.00    +0.033 A 
ATOM     12  C   UNL     1       1.166   2.089   0.002  0.00  0.00    +0.017 A 
ATOM     13  C   UNL     1       2.385   1.409  -0.013  0.00  0.00    +0.057 A 
ATOM     14  C   UNL     1       2.397   0.012  -0.021  0.00  0.00    +0.055 A 
ATOM     15  C   UNL     1       1.205  -0.686  -0.013  0.00  0.00    +0.053 A 
ATOM     16  C   UNL     1       0.002  -0.004   0.002  0.00  0.00    +0.128 A 
ATOM     17 CL   UNL     1       3.907  -0.845  -0.040  0.00  0.00    -0.083 Cl
BRANCH  16  18
ATOM     18  N   UNL     1      -1.272  -0.758   0.010  0.00  0.00    +0.056 N 
ATOM     19  O   UNL     1      -2.325  -0.165   0.023  0.00  0.00    -0.126 OA
ATOM     20  O   UNL     1      -1.259  -1.967   0.004  0.00  0.00    -0.126 OA
ENDBRANCH  16  18
ENDBRANCH   7  13
ENDBRANCH   1   9
BRANCH   4  21
ATOM     21  C   UNL     1       3.637   7.698   0.006  0.00  0.00    +0.107 C 
BRANCH  21  22
ATOM     22  C   UNL     1       2.189   8.191   0.023  0.00  0.00    +0.040 C 
BRANCH  22  23
ATOM     23  C   UNL     1       2.171   9.721   0.031  0.00  0.00    +0.124 C 
BRANCH  23  24
ATOM     24  N   UNL     1       0.784  10.193   0.046  0.00  0.00    -0.338 N 
ATOM     25  C   UNL     1       0.003  10.454  -1.046  0.00  0.00    +0.104 A 
ATOM     26  C   UNL     1      -1.193  10.862  -0.582  0.00  0.00    +0.101 A 
ATOM     27  N   UNL     1      -1.144  10.850   0.759  0.00  0.00    -0.352 N 
ATOM     28  C   UNL     1       0.036  10.445   1.142  0.00  0.00    +0.173 A 
ATOM     29  H   UNL     1      -1.871  11.100   1.350  0.00  0.00    +0.166 HD
ENDBRANCH  23  24
ENDBRANCH  22  23
ENDBRANCH  21  22
ENDBRANCH   4  21
TORSDOF 7
