REMARK  Name = ZINC63393489
REMARK  3 active torsions:
REMARK  status: ('A' for Active; 'I' for Inactive)
REMARK    1  A    between atoms: C_8  and  C_14
REMARK    2  A    between atoms: C_14  and  O_15
REMARK    3  A    between atoms: O_15  and  C_16
REMARK                            x       y       z     vdW  Elec       q    Type
REMARK                         _______ _______ _______ _____ _____    ______ ____
ROOT
ATOM      1  C   UNL     1      -0.016   1.349   0.009  0.00  0.00    +0.001 A 
ATOM      2  C   UNL     1       1.163   2.105   0.002  0.00  0.00    +0.001 A 
ATOM      3  C   UNL     1       2.385   1.522  -0.013  0.00  0.00    +0.008 A 
ATOM      4  C   UNL     1       2.486   0.107  -0.021  0.00  0.00    -0.016 A 
ATOM      5  C   UNL     1       3.718  -0.513  -0.037  0.00  0.00    +0.036 A 
ATOM      6  C   UNL     1       3.797  -1.930  -0.044  0.00  0.00    +0.061 A 
ATOM      7  N   UNL     1       4.828  -2.737  -0.059  0.00  0.00    -0.361 N 
ATOM      8  C   UNL     1       4.312  -4.111  -0.061  0.00  0.00    +0.213 C 
ATOM      9  N   UNL     1       2.849  -4.005  -0.046  0.00  0.00    -0.361 N 
ATOM     10  C   UNL     1       2.546  -2.732  -0.036  0.00  0.00    +0.061 A 
ATOM     11  C   UNL     1       1.292  -2.067  -0.021  0.00  0.00    +0.036 A 
ATOM     12  C   UNL     1       1.244  -0.688  -0.013  0.00  0.00    -0.016 A 
ATOM     13  C   UNL     1       0.002  -0.004   0.002  0.00  0.00    +0.008 A 
ATOM     14  H   UNL     1       5.761  -2.475  -0.067  0.00  0.00    +0.162 HD
ATOM     15  H   UNL     1       2.220  -4.744  -0.044  0.00  0.00    +0.162 HD
ENDROOT
BRANCH   8  16
ATOM     16  C   UNL     1       4.772  -4.842  -1.324  0.00  0.00    +0.275 C 
BRANCH  16  17
ATOM     17  O   UNL     1       4.283  -4.155  -2.477  0.00  0.00    -0.488 OA
BRANCH  17  18
ATOM     18  C   UNL     1       4.605  -4.678  -3.690  0.00  0.00    +0.121 A 
ATOM     19  C   UNL     1       5.371  -5.832  -3.767  0.00  0.00    +0.047 A 
ATOM     20  C   UNL     1       5.697  -6.363  -5.000  0.00  0.00    +0.023 A 
ATOM     21  C   UNL     1       5.261  -5.743  -6.158  0.00  0.00    +0.041 A 
ATOM     22  C   UNL     1       4.497  -4.592  -6.083  0.00  0.00    +0.023 A 
ATOM     23  C   UNL     1       4.163  -4.062  -4.852  0.00  0.00    +0.047 A 
ATOM     24 CL   UNL     1       5.672  -6.411  -7.707  0.00  0.00    -0.084 Cl
ENDBRANCH  17  18
ENDBRANCH  16  17
ENDBRANCH   8  16
TORSDOF 3
