REMARK  Name = ZINC64053743
REMARK  7 active torsions:
REMARK  status: ('A' for Active; 'I' for Inactive)
REMARK    1  A    between atoms: C_1  and  C_2
REMARK    2  A    between atoms: C_4  and  C_15
REMARK    3  A    between atoms: N_8  and  C_9
REMARK    4  A    between atoms: C_15  and  C_17
REMARK    5  A    between atoms: C_15  and  N_18
REMARK    6  A    between atoms: N_18  and  C_19
REMARK    7  A    between atoms: C_19  and  C_20
REMARK                            x       y       z     vdW  Elec       q    Type
REMARK                         _______ _______ _______ _____ _____    ______ ____
ROOT
ATOM      1  C   UNL     1      -1.707  -1.482  -1.126  0.00  0.00    -0.065 C 
ATOM      2  C   UNL     1      -0.799  -2.710  -1.049  0.00  0.00    -0.013 C 
ENDROOT
BRANCH   1   5
ATOM      3  C   UNL     1      -0.019   1.526   0.010  0.00  0.00    +0.030 C 
ATOM      4  C   UNL     1       0.002  -0.004   0.002  0.00  0.00    +0.102 C 
ATOM      5  C   UNL     1      -1.432  -0.568   0.070  0.00  0.00    +0.040 C 
ATOM      6  C   UNL     1      -1.448  -1.357   1.360  0.00  0.00    +0.107 C 
ATOM      7  N   UNL     1      -0.311  -1.284   1.922  0.00  0.00    -0.192 NA
ATOM      8  N   UNL     1       0.631  -0.522   1.228  0.00  0.00    -0.221 N 
BRANCH   8   9
ATOM      9  C   UNL     1       1.948  -0.288   1.628  0.00  0.00    +0.052 A 
ATOM     10  C   UNL     1       2.785   0.499   0.846  0.00  0.00    +0.025 A 
ATOM     11  C   UNL     1       4.087   0.728   1.244  0.00  0.00    +0.002 A 
ATOM     12  C   UNL     1       4.559   0.176   2.421  0.00  0.00    +0.000 A 
ATOM     13  C   UNL     1       3.729  -0.608   3.203  0.00  0.00    +0.002 A 
ATOM     14  C   UNL     1       2.424  -0.836   2.813  0.00  0.00    +0.025 A 
ENDBRANCH   8   9
ENDBRANCH   1   5
BRANCH   1  15
ATOM     15  N   UNL     1      -3.112  -1.909  -1.102  0.00  0.00    +0.383 N 
ATOM     16  H   UNL     1      -3.276  -2.480  -0.286  0.00  0.00    -0.085 HD
ATOM     17  H   UNL     1      -3.711  -1.097  -1.069  0.00  0.00    -0.085 HD
BRANCH  15  18
ATOM     18  C   UNL     1      -3.408  -2.688  -2.312  0.00  0.00    -0.053 C 
BRANCH  18  19
ATOM     19  C   UNL     1      -4.872  -3.133  -2.287  0.00  0.00    +0.086 C 
ATOM     20  C   UNL     1      -5.243  -3.777  -3.604  0.00  0.00    +0.005 C 
ATOM     21  C   UNL     1      -6.237  -3.022  -4.123  0.00  0.00    -0.004 A 
ATOM     22  C   UNL     1      -7.015  -3.118  -5.364  0.00  0.00    +0.010 A 
ATOM     23  C   UNL     1      -7.967  -2.191  -5.616  0.00  0.00    +0.001 A 
ATOM     24  C   UNL     1      -8.229  -1.143  -4.723  0.00  0.00    +0.002 A 
ATOM     25  C   UNL     1      -7.557  -0.988  -3.563  0.00  0.00    +0.026 A 
ATOM     26  C   UNL     1      -6.533  -1.905  -3.197  0.00  0.00    +0.043 A 
ATOM     27  N   UNL     1      -5.752  -1.968  -2.144  0.00  0.00    -0.380 N 
ATOM     28  H   UNL     1      -5.756  -1.349  -1.397  0.00  0.00    +0.160 HD
ENDBRANCH  18  19
ENDBRANCH  15  18
ENDBRANCH   1  15
TORSDOF 5
