REMARK  Name = ZINC30008854
REMARK  6 active torsions:
REMARK  status: ('A' for Active; 'I' for Inactive)
REMARK    1  A    between atoms: C_1  and  C_2
REMARK    2  A    between atoms: N_5  and  S_8
REMARK    3  A    between atoms: S_8  and  N_11
REMARK    4  A    between atoms: N_11  and  C_12
REMARK    5  A    between atoms: N_15  and  S_18
REMARK    6  A    between atoms: S_18  and  C_21
REMARK                            x       y       z     vdW  Elec       q    Type
REMARK                         _______ _______ _______ _____ _____    ______ ____
ROOT
ATOM      1  N   UNL     1       1.979   4.354  -3.303  0.00  0.00    -0.177 NA
ATOM      2  H   UNL     1       3.064   4.221  -3.174  0.00  0.00    +0.149 HD
ENDROOT
BRANCH   1   3
ATOM      3  C   UNL     1       1.249   3.523  -4.263  0.00  0.00    +0.080 C 
ATOM      4  C   UNL     1       1.107   2.104  -3.706  0.00  0.00    +0.037 C 
ATOM      5  C   UNL     1       0.314   1.247  -4.697  0.00  0.00    +0.110 C 
ATOM      6  N   UNL     1       0.967   1.317  -6.011  0.00  0.00    -0.181 NA
ATOM      7  C   UNL     1       1.233   2.637  -6.599  0.00  0.00    +0.110 C 
ATOM      8  C   UNL     1       2.017   3.478  -5.587  0.00  0.00    +0.037 C 
BRANCH   6   9
ATOM      9  S   UNL     1       1.395  -0.066  -6.815  0.00  0.00    +0.029 S 
ATOM     10  O   UNL     1       0.500  -1.058  -6.331  0.00  0.00    -0.158 OA
ATOM     11  O   UNL     1       1.399   0.298  -8.188  0.00  0.00    -0.158 OA
ATOM     12  C   UNL     1       3.084  -0.424  -6.259  0.00  0.00    +0.215 C 
ENDBRANCH   6   9
ENDBRANCH   1   3
BRANCH   1  13
ATOM     13  S   UNL     1       1.149   5.313  -2.239  0.00  0.00    +0.097 S 
ATOM     14  O   UNL     1       0.189   6.031  -3.003  0.00  0.00    -0.141 OA
ATOM     15  O   UNL     1       2.123   5.964  -1.434  0.00  0.00    -0.141 OA
BRANCH  13  20
ATOM     16  C   UNL     1      -2.199   3.848   2.180  0.00  0.00    +0.007 C 
ATOM     17  C   UNL     1      -1.351   3.563   0.939  0.00  0.00    -0.012 C 
ATOM     18  C   UNL     1       0.083   4.037   1.181  0.00  0.00    +0.020 C 
ATOM     19  C   UNL     1       0.937   3.718  -0.050  0.00  0.00    +0.111 C 
ATOM     20  N   UNL     1       0.299   4.309  -1.234  0.00  0.00    -0.167 NA
ATOM     21  C   UNL     1      -1.109   3.990  -1.511  0.00  0.00    +0.111 C 
ATOM     22  C   UNL     1      -1.940   4.306  -0.263  0.00  0.00    +0.020 C 
ENDBRANCH  13  20
ENDBRANCH   1  13
TORSDOF 4
