REMARK  Name = ZINC49629235
REMARK  5 active torsions:
REMARK  status: ('A' for Active; 'I' for Inactive)
REMARK    1  A    between atoms: N_6  and  C_7
REMARK    2  A    between atoms: C_7  and  C_9
REMARK    3  A    between atoms: C_11  and  C_15
REMARK    4  A    between atoms: C_16  and  C_17
REMARK    5  A    between atoms: C_17  and  N_18
REMARK                            x       y       z     vdW  Elec       q    Type
REMARK                         _______ _______ _______ _____ _____    ______ ____
ROOT
ATOM      1  C   UNL     1       0.693  -4.276  -0.029  0.00  0.00    +0.058 A 
ATOM      2  C   UNL     1      -0.363  -5.190  -0.030  0.00  0.00    +0.033 A 
ATOM      3  C   UNL     1      -0.057  -6.552  -0.040  0.00  0.00    +0.044 A 
ATOM      4  C   UNL     1       1.283  -6.945  -0.049  0.00  0.00    +0.127 A 
ATOM      5  N   UNL     1       2.249  -6.050  -0.047  0.00  0.00    -0.261 NA
ATOM      6  C   UNL     1       2.003  -4.755  -0.044  0.00  0.00    +0.124 A 
ENDROOT
BRANCH   1   7
ATOM      7  C   UNL     1       0.426  -2.819  -0.018  0.00  0.00    +0.271 C 
ATOM      8  O   UNL     1      -0.722  -2.409  -0.005  0.00  0.00    -0.268 OA
BRANCH   7  14
ATOM      9  C   UNL     1      -0.016   1.356   0.009  0.00  0.00    +0.092 A 
ATOM     10  C   UNL     1       1.164   1.986   0.002  0.00  0.00    +0.066 A 
ATOM     11  S   UNL     1       2.311   0.621  -0.017  0.00  0.00    -0.061 S 
ATOM     12  C   UNL     1       1.203  -0.644  -0.013  0.00  0.00    +0.163 A 
ATOM     13  N   UNL     1       0.002  -0.004   0.002  0.00  0.00    -0.342 N 
ATOM     14  N   UNL     1       1.443  -1.954  -0.023  0.00  0.00    -0.152 NA
ATOM     15  H   UNL     1      -0.826  -0.509   0.007  0.00  0.00    +0.167 HD
ENDBRANCH   7  14
ENDBRANCH   1   7
BRANCH   3  16
ATOM     16  C   UNL     1      -1.101  -7.532  -0.041  0.00  0.00    -0.067 C 
ATOM     17  C   UNL     1      -1.958  -8.335  -0.042  0.00  0.00    -0.117 C 
BRANCH  17  18
ATOM     18  C   UNL     1      -3.031  -9.343  -0.043  0.00  0.00    +0.005 C 
BRANCH  18  19
ATOM     19  N   UNL     1      -2.441 -10.688  -0.055  0.00  0.00    +0.385 N 
ATOM     20  H   UNL     1      -1.874 -10.799  -0.882  0.00  0.00    -0.089 HD
ATOM     21  H   UNL     1      -1.866 -10.810   0.765  0.00  0.00    -0.089 HD
ATOM     22  H   UNL     1      -3.176 -11.378  -0.056  0.00  0.00    -0.089 HD
ENDBRANCH  18  19
ENDBRANCH  17  18
ENDBRANCH   3  16
TORSDOF 5
