REMARK  Name = ZINC53879452
REMARK  8 active torsions:
REMARK  status: ('A' for Active; 'I' for Inactive)
REMARK    1  A    between atoms: C_1  and  C_2
REMARK    2  A    between atoms: C_6  and  N_21
REMARK    3  A    between atoms: C_8  and  C_11
REMARK    4  A    between atoms: C_11  and  N_12
REMARK    5  A    between atoms: N_12  and  C_13
REMARK    6  A    between atoms: N_12  and  C_14
REMARK    7  A    between atoms: C_14  and  C_15
REMARK    8  A    between atoms: N_21  and  C_22
REMARK                            x       y       z     vdW  Elec       q    Type
REMARK                         _______ _______ _______ _____ _____    ______ ____
ROOT
ATOM      1  C   UNL     1      -0.455   1.685   0.871  0.00  0.00    +0.007 C 
ATOM      2  C   UNL     1      -0.293   0.191   0.583  0.00  0.00    -0.014 C 
ATOM      3  C   UNL     1      -1.671  -0.472   0.535  0.00  0.00    +0.002 C 
ATOM      4  C   UNL     1      -1.509  -1.966   0.247  0.00  0.00    -0.015 C 
ATOM      5  C   UNL     1      -0.671  -2.611   1.353  0.00  0.00    -0.071 C 
ATOM      6  C   UNL     1       0.707  -1.948   1.400  0.00  0.00    -0.042 C 
ATOM      7  C   UNL     1       0.545  -0.454   1.689  0.00  0.00    +0.003 C 
ENDROOT
BRANCH   5   8
ATOM      8  N   UNL     1      -0.516  -4.045   1.076  0.00  0.00    +0.379 N 
ATOM      9  C   UNL     1      -1.827  -4.703   1.148  0.00  0.00    -0.100 C 
ATOM     10  H   UNL     1      -0.128  -4.169   0.153  0.00  0.00    -0.086 HD
ATOM     11  H   UNL     1       0.104  -4.454   1.759  0.00  0.00    -0.086 HD
ENDBRANCH   5   8
BRANCH   6  12
ATOM     12  C   UNL     1       1.545  -2.593   2.506  0.00  0.00    -0.077 C 
BRANCH  12  13
ATOM     13  N   UNL     1       2.906  -2.041   2.474  0.00  0.00    +0.378 N 
ATOM     14  C   UNL     1       3.561  -2.425   1.217  0.00  0.00    -0.096 C 
ATOM     15  H   UNL     1       2.862  -1.035   2.537  0.00  0.00    -0.082 HD
BRANCH  13  16
ATOM     16  C   UNL     1       3.675  -2.570   3.608  0.00  0.00    -0.076 C 
BRANCH  16  17
ATOM     17  C   UNL     1       5.044  -1.888   3.658  0.00  0.00    -0.028 C 
ATOM     18  C   UNL     1       5.894  -2.529   4.757  0.00  0.00    +0.002 C 
ATOM     19  C   UNL     1       7.262  -1.847   4.807  0.00  0.00    +0.000 C 
ATOM     20  C   UNL     1       7.080  -0.358   5.107  0.00  0.00    +0.000 C 
ATOM     21  C   UNL     1       6.230   0.283   4.008  0.00  0.00    +0.000 C 
ATOM     22  C   UNL     1       4.862  -0.399   3.958  0.00  0.00    +0.002 C 
ENDBRANCH  16  17
ENDBRANCH  13  16
ENDBRANCH  12  13
ENDBRANCH   6  12
TORSDOF 5
