REMARK  Name = ZINC49735576
REMARK  5 active torsions:
REMARK  status: ('A' for Active; 'I' for Inactive)
REMARK    1  A    between atoms: C_3  and  O_27
REMARK    2  A    between atoms: C_6  and  C_7
REMARK    3  A    between atoms: C_13  and  C_14
REMARK    4  A    between atoms: C_17  and  O_21
REMARK    5  A    between atoms: C_18  and  O_20
REMARK                            x       y       z     vdW  Elec       q    Type
REMARK                         _______ _______ _______ _____ _____    ______ ____
ROOT
ATOM      1  C   UNL     1      -1.533  -1.272   1.257  0.00  0.00    +0.130 C 
ATOM      2  N   UNL     1      -1.757  -2.556   1.113  0.00  0.00    -0.164 NA
ATOM      3  N   UNL     1      -2.990  -3.021   0.708  0.00  0.00    -0.153 N 
ATOM      4  C   UNL     1      -3.367  -4.377   0.610  0.00  0.00    +0.132 C 
ATOM      5  N   UNL     1      -2.774  -5.337   1.270  0.00  0.00    -0.385 N 
ATOM      6  C   UNL     1      -4.510  -4.607  -0.319  0.00  0.00    +0.079 C 
ATOM      7  C   UNL     1      -4.618  -5.760  -1.063  0.00  0.00    +0.024 C 
ATOM      8  C   UNL     1      -5.525  -3.527  -0.397  0.00  0.00    +0.273 C 
ATOM      9  O   UNL     1      -6.672  -3.768  -0.736  0.00  0.00    -0.268 OA
ATOM     10  N   UNL     1      -5.143  -2.274  -0.083  0.00  0.00    -0.152 NA
ATOM     11  C   UNL     1      -3.942  -2.072   0.399  0.00  0.00    +0.181 C 
ATOM     12  S   UNL     1      -3.111  -0.560   0.808  0.00  0.00    -0.033 S 
ATOM     13  H   UNL     1      -1.984  -5.145   1.799  0.00  0.00    +0.157 HD
ATOM     14  H   UNL     1      -3.123  -6.241   1.230  0.00  0.00    +0.157 HD
ENDROOT
BRANCH   1  20
ATOM     15  C   UNL     1      -0.262   0.805   1.784  0.00  0.00    +0.014 A 
ATOM     16  C   UNL     1       0.894   1.439   2.186  0.00  0.00    +0.046 A 
ATOM     17  C   UNL     1       2.025   0.695   2.494  0.00  0.00    +0.117 A 
ATOM     18  C   UNL     1       1.996  -0.691   2.398  0.00  0.00    +0.046 A 
ATOM     19  C   UNL     1       0.844  -1.332   1.997  0.00  0.00    +0.014 A 
ATOM     20  C   UNL     1      -0.295  -0.587   1.687  0.00  0.00    +0.009 A 
BRANCH  17  21
ATOM     21  O   UNL     1       3.163   1.323   2.889  0.00  0.00    -0.507 OA
ATOM     22  H   UNL     1       3.229   1.453   3.845  0.00  0.00    +0.292 HD
ENDBRANCH  17  21
ENDBRANCH   1  20
BRANCH   7  23
ATOM     23  C   UNL     1      -3.509  -6.716  -1.100  0.00  0.00    -0.021 A 
ATOM     24  C   UNL     1      -3.768  -8.092  -1.177  0.00  0.00    +0.012 A 
ATOM     25  C   UNL     1      -2.723  -8.987  -1.212  0.00  0.00    +0.050 A 
ATOM     26  C   UNL     1      -1.411  -8.531  -1.169  0.00  0.00    +0.158 A 
ATOM     27  C   UNL     1      -1.144  -7.164  -1.092  0.00  0.00    +0.159 A 
ATOM     28  C   UNL     1      -2.184  -6.258  -1.062  0.00  0.00    +0.057 A 
BRANCH  27  29
ATOM     29  O   UNL     1       0.142  -6.723  -1.051  0.00  0.00    -0.503 OA
ATOM     30  H   UNL     1       0.526  -6.548  -1.921  0.00  0.00    +0.292 HD
ENDBRANCH  27  29
BRANCH  26  31
ATOM     31  O   UNL     1      -0.385  -9.420  -1.203  0.00  0.00    -0.503 OA
ATOM     32  H   UNL     1      -0.075  -9.630  -2.095  0.00  0.00    +0.292 HD
ENDBRANCH  26  31
ENDBRANCH   7  23
TORSDOF 5
