REMARK  Name = ZINC36921678
REMARK  9 active torsions:
REMARK  status: ('A' for Active; 'I' for Inactive)
REMARK    1  A    between atoms: C_1  and  C_2
REMARK    2  A    between atoms: C_2  and  C_4
REMARK    3  A    between atoms: C_2  and  N_14
REMARK    4  A    between atoms: C_7  and  C_10
REMARK    5  A    between atoms: C_10  and  C_11
REMARK    6  A    between atoms: C_10  and  C_12
REMARK    7  A    between atoms: C_10  and  C_13
REMARK    8  A    between atoms: N_14  and  C_15
REMARK    9  A    between atoms: C_15  and  C_16
REMARK                            x       y       z     vdW  Elec       q    Type
REMARK                         _______ _______ _______ _____ _____    ______ ____
ROOT
ATOM      1  C   UNL     1      -0.019   1.526   0.010  0.00  0.00    -0.009 C 
ATOM      2  C   UNL     1       0.002  -0.004   0.002  0.00  0.00    -0.044 C 
ENDROOT
BRANCH   2   3
ATOM      3  C   UNL     1       0.731  -0.503   1.223  0.00  0.00    -0.062 A 
ATOM      4  C   UNL     1       0.081  -0.558   2.442  0.00  0.00    +0.002 A 
ATOM      5  C   UNL     1       0.749  -1.016   3.562  0.00  0.00    +0.004 A 
ATOM      6  C   UNL     1       2.068  -1.420   3.463  0.00  0.00    -0.042 A 
ATOM      7  C   UNL     1       2.718  -1.365   2.244  0.00  0.00    +0.004 A 
ATOM      8  C   UNL     1       2.048  -0.911   1.123  0.00  0.00    +0.002 A 
BRANCH   6   9
ATOM      9  C   UNL     1       2.797  -1.918   4.684  0.00  0.00    -0.013 C 
ATOM     10  C   UNL     1       2.076  -3.146   5.243  0.00  0.00    +0.015 C 
ATOM     11  C   UNL     1       4.230  -2.297   4.303  0.00  0.00    +0.015 C 
ATOM     12  C   UNL     1       2.826  -0.817   5.745  0.00  0.00    +0.015 C 
ENDBRANCH   6   9
ENDBRANCH   2   3
BRANCH   2  13
ATOM     13  N   UNL     1      -1.376  -0.512   0.012  0.00  0.00    +0.387 N 
ATOM     14  H   UNL     1      -1.363  -1.518   0.090  0.00  0.00    -0.085 HD
ATOM     15  H   UNL     1      -1.873  -0.121   0.799  0.00  0.00    -0.085 HD
BRANCH  13  16
ATOM     16  C   UNL     1      -2.050  -0.126  -1.234  0.00  0.00    -0.023 C 
BRANCH  16  17
ATOM     17  C   UNL     1      -3.464  -0.648  -1.224  0.00  0.00    +0.055 A 
ATOM     18  C   UNL     1      -4.517   0.109  -0.823  0.00  0.00    +0.090 A 
ATOM     19  S   UNL     1      -5.804  -0.954  -1.015  0.00  0.00    +0.028 S 
ATOM     20  N   UNL     1      -5.000  -2.245  -1.565  0.00  0.00    -0.110 NA
ATOM     21  N   UNL     1      -3.770  -1.869  -1.608  0.00  0.00    -0.148 NA
ENDBRANCH  16  17
ENDBRANCH  13  16
ENDBRANCH   2  13
TORSDOF 5
