REMARK  Name = ZINC53030878
REMARK  7 active torsions:
REMARK  status: ('A' for Active; 'I' for Inactive)
REMARK    1  A    between atoms: C_1  and  C_2
REMARK    2  A    between atoms: C_2  and  C_3
REMARK    3  A    between atoms: C_2  and  C_4
REMARK    4  A    between atoms: C_2  and  N_5
REMARK    5  A    between atoms: N_5  and  C_6
REMARK    6  A    between atoms: C_6  and  C_7
REMARK    7  A    between atoms: N_11  and  C_13
REMARK                            x       y       z     vdW  Elec       q    Type
REMARK                         _______ _______ _______ _____ _____    ______ ____
ROOT
ATOM      1  C   UNL     1       2.784  -0.463  -2.476  0.00  0.00    -0.047 C 
ATOM      2  C   UNL     1       2.989  -1.994  -2.411  0.00  0.00    -0.019 C 
ATOM      3  C   UNL     1       4.404  -2.179  -3.015  0.00  0.00    -0.078 C 
ATOM      4  N   UNL     1       5.151  -1.004  -2.499  0.00  0.00    +0.382 N 
ATOM      5  C   UNL     1       4.202   0.133  -2.552  0.00  0.00    -0.077 C 
ATOM      6  H   UNL     1       5.445  -1.169  -1.548  0.00  0.00    -0.081 HD
ENDROOT
BRANCH   4   7
ATOM      7  C   UNL     1       6.316  -0.730  -3.351  0.00  0.00    -0.069 C 
ATOM      8  C   UNL     1       7.057   0.469  -2.824  0.00  0.00    -0.015 C 
ATOM      9  C   UNL     1       7.691   1.311  -3.947  0.00  0.00    -0.002 C 
ATOM     10  C   UNL     1       8.342   0.449  -5.045  0.00  0.00    -0.000 C 
ATOM     11  C   UNL     1       9.108  -0.718  -4.482  0.00  0.00    -0.000 C 
ATOM     12  C   UNL     1       8.181  -1.950  -4.465  0.00  0.00    -0.002 C 
ATOM     13  C   UNL     1       7.269  -1.943  -3.331  0.00  0.00    -0.015 C 
ENDBRANCH   4   7
BRANCH   1  14
ATOM     14  C   UNL     1       2.068   0.031  -1.217  0.00  0.00    -0.080 C 
BRANCH  14  15
ATOM     15  N   UNL     1       0.690  -0.478  -1.207  0.00  0.00    +0.382 N 
ATOM     16  H   UNL     1       0.703  -1.487  -1.212  0.00  0.00    -0.085 HD
ATOM     17  H   UNL     1       0.202  -0.144  -2.024  0.00  0.00    -0.085 HD
BRANCH  15  19
ATOM     18  C   UNL     1      -0.019   1.526   0.010  0.00  0.00    -0.011 C 
ATOM     19  C   UNL     1       0.002  -0.004   0.002  0.00  0.00    -0.077 C 
ATOM     20  C   UNL     1       0.742  -0.511   1.242  0.00  0.00    -0.011 C 
ATOM     21  C   UNL     1      -1.433  -0.534   0.013  0.00  0.00    -0.011 C 
ENDBRANCH  15  19
ENDBRANCH  14  15
ENDBRANCH   1  14
TORSDOF 4
