REMARK  Name = ZINC12290803
REMARK  5 active torsions:
REMARK  status: ('A' for Active; 'I' for Inactive)
REMARK    1  A    between atoms: C_7  and  S_12
REMARK    2  A    between atoms: S_12  and  N_15
REMARK    3  A    between atoms: N_15  and  N_16
REMARK    4  A    between atoms: C_17  and  C_19
REMARK    5  A    between atoms: C_22  and  N_25
REMARK                            x       y       z     vdW  Elec       q    Type
REMARK                         _______ _______ _______ _____ _____    ______ ____
ROOT
ATOM      1  N   UNL     1       2.474  -4.297   0.015  0.00  0.00    -0.108 NA
ATOM      2  H   UNL     1       1.748  -3.677  -0.158  0.00  0.00    +0.172 HD
ENDROOT
BRANCH   1   3
ATOM      3  N   UNL     1       2.779  -4.668   1.331  0.00  0.00    -0.228 N 
ATOM      4  C   UNL     1       3.045  -3.723   2.254  0.00  0.00    +0.259 C 
ATOM      5  O   UNL     1       3.021  -2.548   1.944  0.00  0.00    -0.269 OA
ATOM      6  H   UNL     1       2.798  -5.606   1.578  0.00  0.00    +0.171 HD
BRANCH   4   7
ATOM      7  C   UNL     1       3.367  -4.115   3.642  0.00  0.00    +0.038 A 
ATOM      8  C   UNL     1       3.644  -3.138   4.600  0.00  0.00    +0.015 A 
ATOM      9  C   UNL     1       3.943  -3.511   5.894  0.00  0.00    +0.033 A 
ATOM     10  C   UNL     1       3.970  -4.849   6.244  0.00  0.00    +0.126 A 
ATOM     11  C   UNL     1       3.697  -5.823   5.299  0.00  0.00    +0.033 A 
ATOM     12  C   UNL     1       3.396  -5.463   4.001  0.00  0.00    +0.015 A 
BRANCH  10  13
ATOM     13  N   UNL     1       4.292  -5.242   7.634  0.00  0.00    +0.056 N 
ATOM     14  O   UNL     1       4.534  -4.387   8.468  0.00  0.00    -0.126 OA
ATOM     15  O   UNL     1       4.316  -6.420   7.944  0.00  0.00    -0.126 OA
ENDBRANCH  10  13
ENDBRANCH   4   7
ENDBRANCH   1   3
BRANCH   1  16
ATOM     16  S   UNL     1       3.351  -4.917  -1.245  0.00  0.00    +0.074 S 
ATOM     17  O   UNL     1       3.343  -6.329  -1.090  0.00  0.00    -0.152 OA
ATOM     18  O   UNL     1       2.878  -4.277  -2.422  0.00  0.00    -0.152 OA
BRANCH  16  25
ATOM     19  C   UNL     1       4.711  -0.738  -1.328  0.00  0.00    +0.001 A 
ATOM     20  C   UNL     1       6.036  -0.344  -1.151  0.00  0.00    +0.001 A 
ATOM     21  C   UNL     1       7.017  -1.263  -0.935  0.00  0.00    +0.009 A 
ATOM     22  C   UNL     1       6.692  -2.629  -0.890  0.00  0.00    -0.002 A 
ATOM     23  C   UNL     1       5.345  -3.029  -1.070  0.00  0.00    +0.010 A 
ATOM     24  C   UNL     1       4.359  -2.052  -1.290  0.00  0.00    +0.010 A 
ATOM     25  C   UNL     1       5.020  -4.396  -1.024  0.00  0.00    +0.115 A 
ATOM     26  C   UNL     1       6.000  -5.314  -0.802  0.00  0.00    +0.030 A 
ATOM     27  C   UNL     1       7.325  -4.922  -0.632  0.00  0.00    +0.018 A 
ATOM     28  C   UNL     1       7.678  -3.607  -0.669  0.00  0.00    +0.026 A 
ATOM     29 BR   UNL     1       9.483  -3.099  -0.426  0.00  0.00    -0.050 Br
ENDBRANCH  16  25
ENDBRANCH   1  16
TORSDOF 5
