REMARK  Name = ZINC52094608
REMARK  5 active torsions:
REMARK  status: ('A' for Active; 'I' for Inactive)
REMARK    1  A    between atoms: C_1  and  C_2
REMARK    2  A    between atoms: C_2  and  N_3
REMARK    3  A    between atoms: N_3  and  C_4
REMARK    4  A    between atoms: C_4  and  C_6
REMARK    5  A    between atoms: C_4  and  C_19
REMARK                            x       y       z     vdW  Elec       q    Type
REMARK                         _______ _______ _______ _____ _____    ______ ____
ROOT
ATOM      1  C   UNL     1       1.270  -2.698   2.383  0.00  0.00    -0.045 A 
ATOM      2  C   UNL     1       2.062  -3.816   2.204  0.00  0.00    +0.031 A 
ATOM      3  C   UNL     1       2.557  -4.495   3.306  0.00  0.00    +0.067 A 
ATOM      4  C   UNL     1       2.253  -4.046   4.593  0.00  0.00    +0.068 A 
ATOM      5  C   UNL     1       1.459  -2.923   4.764  0.00  0.00    +0.043 A 
ATOM      6  C   UNL     1       0.975  -2.249   3.659  0.00  0.00    +0.022 A 
ATOM      7 BR   UNL     1      -0.102  -0.712   3.890  0.00  0.00    -0.050 Br
ATOM      8  N   UNL     1       2.881  -4.916   5.481  0.00  0.00    -0.306 N 
ATOM      9  H   UNL     1       2.852  -4.859   6.449  0.00  0.00    +0.170 HD
ATOM     10  C   UNL     1       3.536  -5.851   4.768  0.00  0.00    +0.325 A 
ATOM     11  O   UNL     1       4.188  -6.764   5.239  0.00  0.00    -0.247 OA
ATOM     12  N   UNL     1       3.359  -5.624   3.452  0.00  0.00    -0.306 N 
ATOM     13  H   UNL     1       3.728  -6.156   2.730  0.00  0.00    +0.170 HD
ENDROOT
BRANCH   1  14
ATOM     14  C   UNL     1       0.733  -1.960   1.184  0.00  0.00    -0.034 C 
BRANCH  14  15
ATOM     15  C   UNL     1       1.246  -2.622  -0.096  0.00  0.00    +0.007 C 
ATOM     16  C   UNL     1       0.908  -4.133  -0.097  0.00  0.00    +0.032 C 
ATOM     17  C   UNL     1       2.201  -4.754  -0.684  0.00  0.00    +0.160 C 
ATOM     18  O   UNL     1       3.252  -3.939  -0.122  0.00  0.00    -0.380 OA
ATOM     19  C   UNL     1       2.786  -2.576  -0.146  0.00  0.00    +0.162 C 
ENDBRANCH  14  15
BRANCH  14  20
ATOM     20  N   UNL     1       1.183  -0.562   1.227  0.00  0.00    +0.384 N 
ATOM     21  H   UNL     1       2.188  -0.530   1.150  0.00  0.00    -0.085 HD
ATOM     22  H   UNL     1       0.899  -0.144   2.100  0.00  0.00    -0.085 HD
BRANCH  20  24
ATOM     23  C   UNL     1       1.052   1.636   0.155  0.00  0.00    -0.017 C 
ATOM     24  C   UNL     1       0.583   0.180   0.110  0.00  0.00    -0.085 C 
ENDBRANCH  20  24
ENDBRANCH  14  20
ENDBRANCH   1  14
TORSDOF 4
