REMARK  Name = ZINC19445419
REMARK  10 active torsions:
REMARK  status: ('A' for Active; 'I' for Inactive)
REMARK    1  A    between atoms: C_1  and  C_2
REMARK    2  A    between atoms: C_2  and  C_3
REMARK    3  A    between atoms: C_2  and  C_4
REMARK    4  A    between atoms: C_4  and  C_6
REMARK    5  A    between atoms: C_4  and  N_22
REMARK    6  A    between atoms: C_13  and  C_15
REMARK    7  A    between atoms: N_22  and  C_23
REMARK    8  A    between atoms: C_23  and  C_24
REMARK    9  A    between atoms: C_29  and  O_30
REMARK   10  A    between atoms: O_30  and  C_31
REMARK                            x       y       z     vdW  Elec       q    Type
REMARK                         _______ _______ _______ _____ _____    ______ ____
ROOT
ATOM      1  C   UNL     1      -1.486  -2.019   0.330  0.00  0.00    +0.009 A 
ATOM      2  C   UNL     1      -1.914  -2.538   1.504  0.00  0.00    +0.091 A 
ATOM      3  C   UNL     1      -1.967  -3.936   1.675  0.00  0.00    +0.275 A 
ATOM      4  N   UNL     1      -1.592  -4.749   0.668  0.00  0.00    -0.180 N 
ATOM      5  C   UNL     1      -1.161  -4.219  -0.513  0.00  0.00    +0.138 A 
ATOM      6  N   UNL     1      -1.113  -2.848  -0.685  0.00  0.00    -0.345 N 
ATOM      7  C   UNL     1      -0.851  -5.259  -1.337  0.00  0.00    +0.071 A 
ATOM      8  C   UNL     1      -1.098  -6.444  -0.642  0.00  0.00    +0.069 A 
ATOM      9  N   UNL     1      -1.540  -6.144   0.553  0.00  0.00    -0.167 NA
ATOM     10  O   UNL     1      -2.352  -4.407   2.730  0.00  0.00    -0.266 OA
ATOM     11  H   UNL     1      -0.810  -2.476  -1.528  0.00  0.00    +0.167 HD
ENDROOT
BRANCH   8  12
ATOM     12  C   UNL     1      -0.890  -7.837  -1.179  0.00  0.00    +0.044 C 
ATOM     13  C   UNL     1       0.325  -7.852  -2.111  0.00  0.00    +0.038 C 
ATOM     14  C   UNL     1       0.481  -9.251  -2.712  0.00  0.00    +0.160 C 
ATOM     15  O   UNL     1      -0.718  -9.607  -3.404  0.00  0.00    -0.380 OA
ATOM     16  C   UNL     1      -1.879  -9.656  -2.573  0.00  0.00    +0.160 C 
ATOM     17  C   UNL     1      -2.130  -8.273  -1.966  0.00  0.00    +0.038 C 
ENDBRANCH   8  12
BRANCH   1  18
ATOM     18  C   UNL     1      -1.428  -0.525   0.142  0.00  0.00    -0.021 C 
BRANCH  18  20
ATOM     19  C   UNL     1       0.095   1.435  -0.147  0.00  0.00    +0.006 C 
ATOM     20  C   UNL     1       0.027  -0.091  -0.044  0.00  0.00    -0.026 C 
ATOM     21  C   UNL     1       0.856  -0.558   1.154  0.00  0.00    +0.006 C 
ENDBRANCH  18  20
BRANCH  18  22
ATOM     22  N   UNL     1      -2.207  -0.150  -1.045  0.00  0.00    +0.387 N 
ATOM     23  H   UNL     1      -2.093   0.837  -1.224  0.00  0.00    -0.084 HD
ATOM     24  H   UNL     1      -1.880  -0.676  -1.842  0.00  0.00    -0.084 HD
BRANCH  22  25
ATOM     25  C   UNL     1      -3.627  -0.445  -0.813  0.00  0.00    -0.042 C 
BRANCH  25  26
ATOM     26  C   UNL     1      -4.442   0.061  -1.975  0.00  0.00    -0.023 A 
ATOM     27  C   UNL     1      -5.112   1.265  -1.877  0.00  0.00    +0.005 A 
ATOM     28  C   UNL     1      -5.860   1.730  -2.943  0.00  0.00    +0.000 A 
ATOM     29  C   UNL     1      -5.940   0.991  -4.109  0.00  0.00    +0.004 A 
ATOM     30  C   UNL     1      -5.272  -0.213  -4.212  0.00  0.00    +0.046 A 
ATOM     31  C   UNL     1      -4.516  -0.679  -3.146  0.00  0.00    +0.121 A 
BRANCH  31  32
ATOM     32  O   UNL     1      -3.853  -1.861  -3.247  0.00  0.00    -0.495 OA
ATOM     33  C   UNL     1      -3.974  -2.570  -4.482  0.00  0.00    +0.277 C 
ENDBRANCH  31  32
ENDBRANCH  25  26
ENDBRANCH  22  25
ENDBRANCH  18  22
ENDBRANCH   1  18
TORSDOF 7
