REMARK  Name = ZINC03444222
REMARK  8 active torsions:
REMARK  status: ('A' for Active; 'I' for Inactive)
REMARK    1  A    between atoms: C_1  and  C_2
REMARK    2  A    between atoms: C_3  and  C_11
REMARK    3  A    between atoms: C_7  and  N_8
REMARK    4  A    between atoms: C_11  and  O_13
REMARK    5  A    between atoms: O_13  and  C_14
REMARK    6  A    between atoms: C_14  and  C_15
REMARK    7  A    between atoms: N_17  and  C_18
REMARK    8  A    between atoms: C_19  and  C_23
REMARK                            x       y       z     vdW  Elec       q    Type
REMARK                         _______ _______ _______ _____ _____    ______ ____
ROOT
ATOM      1  C   UNL     1      -1.645   2.495  -0.172  0.00  0.00    +0.328 C 
ENDROOT
BRANCH   1   2
ATOM      2  C   UNL     1      -0.251   1.928  -0.248  0.00  0.00    +0.255 C 
ATOM      3  O   UNL     1      -0.085   0.726  -0.267  0.00  0.00    -0.272 OA
ATOM      4  N   UNL     1       0.812   2.755  -0.303  0.00  0.00    -0.277 N 
ATOM      5  H   UNL     1       0.679   3.716  -0.288  0.00  0.00    +0.155 HD
BRANCH   4   6
ATOM      6  C   UNL     1       2.094   2.233  -0.379  0.00  0.00    +0.084 A 
ATOM      7  C   UNL     1       3.302   2.917  -0.448  0.00  0.00    +0.065 A 
ATOM      8  C   UNL     1       4.500   2.114  -0.516  0.00  0.00    +0.022 A 
ATOM      9  C   UNL     1       4.344   0.778  -0.517  0.00  0.00    +0.048 A 
ATOM     10  S   UNL     1       2.578   0.571  -0.419  0.00  0.00    -0.081 S 
BRANCH   7  11
ATOM     11  C   UNL     1       3.357   4.382  -0.449  0.00  0.00    +0.244 C 
ATOM     12  O   UNL     1       2.329   5.030  -0.387  0.00  0.00    -0.270 OA
ATOM     13  N   UNL     1       4.547   5.011  -0.517  0.00  0.00    -0.325 N 
ATOM     14  H   UNL     1       5.367   4.495  -0.566  0.00  0.00    +0.145 HD
ATOM     15  H   UNL     1       4.584   5.981  -0.517  0.00  0.00    +0.145 HD
ENDBRANCH   7  11
ENDBRANCH   4   6
ENDBRANCH   1   2
BRANCH   1  16
ATOM     16  O   UNL     1      -2.608   1.409  -0.130  0.00  0.00    -0.452 OA
BRANCH  16  17
ATOM     17  C   UNL     1      -3.910   1.749  -0.060  0.00  0.00    +0.340 C 
ATOM     18  O   UNL     1      -4.231   2.920  -0.034  0.00  0.00    -0.245 OA
BRANCH  17  21
ATOM     19  C   UNL     1      -6.674   2.482   0.379  0.00  0.00    +0.047 C 
ATOM     20  C   UNL     1      -6.283   1.038   0.196  0.00  0.00    -0.006 A 
ATOM     21  C   UNL     1      -4.946   0.697  -0.015  0.00  0.00    +0.064 A 
ATOM     22  C   UNL     1      -4.592  -0.644  -0.177  0.00  0.00    +0.015 A 
ATOM     23  C   UNL     1      -5.564  -1.621  -0.133  0.00  0.00    +0.003 A 
ATOM     24  C   UNL     1      -6.888  -1.275   0.070  0.00  0.00    +0.033 A 
ATOM     25  C   UNL     1      -7.247   0.052   0.231  0.00  0.00    +0.130 A 
BRANCH  25  26
ATOM     26  N   UNL     1      -8.665   0.412   0.448  0.00  0.00    +0.057 N 
ATOM     27  O   UNL     1      -9.498  -0.462   0.609  0.00  0.00    -0.126 OA
ATOM     28  O   UNL     1      -9.000   1.583   0.467  0.00  0.00    -0.126 OA
ENDBRANCH  25  26
ENDBRANCH  17  21
ENDBRANCH  16  17
ENDBRANCH   1  16
TORSDOF 7
