REMARK  Name = ZINC63175905
REMARK  6 active torsions:
REMARK  status: ('A' for Active; 'I' for Inactive)
REMARK    1  A    between atoms: C_1  and  N_2
REMARK    2  A    between atoms: C_4  and  S_11
REMARK    3  A    between atoms: N_7  and  C_10
REMARK    4  A    between atoms: S_11  and  N_14
REMARK    5  A    between atoms: N_14  and  C_15
REMARK    6  A    between atoms: C_20  and  N_22
REMARK                            x       y       z     vdW  Elec       q    Type
REMARK                         _______ _______ _______ _____ _____    ______ ____
ROOT
ATOM      1  S   UNL     1      -2.714  -3.013   0.024  0.00  0.00    +0.065 S 
ATOM      2  O   UNL     1      -2.714  -4.164   0.858  0.00  0.00    -0.153 OA
ATOM      3  O   UNL     1      -3.648  -1.955   0.186  0.00  0.00    -0.153 OA
ENDROOT
BRANCH   1   7
ATOM      4  C   UNL     1       2.133  -2.979   1.775  0.00  0.00    +0.153 C 
ATOM      5  N   UNL     1       1.091  -2.326   0.980  0.00  0.00    -0.301 N 
ATOM      6  C   UNL     1      -0.149  -2.897   0.888  0.00  0.00    +0.124 A 
ATOM      7  C   UNL     1      -1.111  -2.295   0.156  0.00  0.00    +0.186 A 
ATOM      8  C   UNL     1      -0.813  -1.078  -0.504  0.00  0.00    +0.283 A 
ATOM      9  O   UNL     1      -1.664  -0.516  -1.169  0.00  0.00    -0.265 OA
ATOM     10  N   UNL     1       0.421  -0.548  -0.388  0.00  0.00    -0.262 N 
ATOM     11  C   UNL     1       1.359  -1.167   0.352  0.00  0.00    +0.332 A 
ATOM     12  O   UNL     1       2.466  -0.674   0.452  0.00  0.00    -0.246 OA
ATOM     13  C   UNL     1       0.741   0.711  -1.067  0.00  0.00    +0.157 C 
ENDBRANCH   1   7
BRANCH   1  14
ATOM     14  N   UNL     1      -2.880  -3.557  -1.532  0.00  0.00    -0.188 NA
ATOM     15  H   UNL     1      -3.557  -3.171  -2.110  0.00  0.00    +0.148 HD
BRANCH  14  16
ATOM     16  C   UNL     1      -2.006  -4.619  -2.034  0.00  0.00    +0.062 C 
ATOM     17  C   UNL     1      -2.733  -5.973  -1.974  0.00  0.00    +0.019 C 
ATOM     18  C   UNL     1      -2.810  -6.497  -3.423  0.00  0.00    -0.000 C 
ATOM     19  C   UNL     1      -2.697  -5.221  -4.294  0.00  0.00    -0.015 C 
ATOM     20  C   UNL     1      -1.664  -4.366  -3.517  0.00  0.00    -0.056 C 
BRANCH  20  21
ATOM     21  N   UNL     1      -1.822  -2.943  -3.845  0.00  0.00    +0.381 N 
ATOM     22  H   UNL     1      -1.203  -2.394  -3.268  0.00  0.00    -0.090 HD
ATOM     23  H   UNL     1      -1.595  -2.795  -4.817  0.00  0.00    -0.090 HD
ATOM     24  H   UNL     1      -2.776  -2.663  -3.676  0.00  0.00    -0.090 HD
ENDBRANCH  20  21
ENDBRANCH  14  16
ENDBRANCH   1  14
TORSDOF 4
