REMARK  Name = ZINC45583626
REMARK  7 active torsions:
REMARK  status: ('A' for Active; 'I' for Inactive)
REMARK    1  A    between atoms: C_4  and  N_6
REMARK    2  A    between atoms: C_7  and  S_11
REMARK    3  A    between atoms: S_11  and  C_12
REMARK    4  A    between atoms: C_12  and  C_13
REMARK    5  A    between atoms: C_13  and  C_15
REMARK    6  A    between atoms: C_13  and  N_18
REMARK    7  A    between atoms: N_18  and  C_19
REMARK                            x       y       z     vdW  Elec       q    Type
REMARK                         _______ _______ _______ _____ _____    ______ ____
ROOT
ATOM      1  C   UNL     1       2.763  -5.013  -1.944  0.00  0.00    +0.071 C 
ENDROOT
BRANCH   1   2
ATOM      2  S   UNL     1       2.523  -3.482  -1.001  0.00  0.00    -0.086 S 
BRANCH   2   4
ATOM      3  N   UNL     1       1.136  -1.207  -1.821  0.00  0.00    -0.217 N 
ATOM      4  C   UNL     1       1.572  -2.463  -2.079  0.00  0.00    +0.210 A 
ATOM      5  N   UNL     1       1.153  -2.778  -3.285  0.00  0.00    -0.102 NA
ATOM      6  N   UNL     1       0.486  -1.807  -3.797  0.00  0.00    -0.022 NA
ATOM      7  N   UNL     1       0.425  -0.820  -2.971  0.00  0.00    -0.043 NA
BRANCH   3  11
ATOM      8  C   UNL     1      -0.019   1.538   0.011  0.00  0.00    +0.002 C 
ATOM      9  C   UNL     1       1.477   1.939  -0.002  0.00  0.00    +0.002 C 
ATOM     10  C   UNL     1       2.107   0.881  -0.942  0.00  0.00    +0.027 C 
ATOM     11  C   UNL     1       1.353  -0.422  -0.604  0.00  0.00    +0.112 C 
ATOM     12  C   UNL     1       0.002  -0.004   0.002  0.00  0.00    +0.027 C 
ENDBRANCH   3  11
ENDBRANCH   2   4
ENDBRANCH   1   2
BRANCH   1  13
ATOM     13  C   UNL     1       3.585  -6.000  -1.113  0.00  0.00    +0.026 C 
BRANCH  13  14
ATOM     14  C   UNL     1       3.784  -7.272  -1.896  0.00  0.00    +0.197 C 
ATOM     15  O   UNL     1       4.905  -7.648  -2.168  0.00  0.00    -0.278 OA
ATOM     16  N   UNL     1       2.717  -7.992  -2.295  0.00  0.00    -0.331 N 
ATOM     17  H   UNL     1       1.821  -7.692  -2.078  0.00  0.00    +0.145 HD
ATOM     18  H   UNL     1       2.845  -8.811  -2.799  0.00  0.00    +0.145 HD
ENDBRANCH  13  14
BRANCH  13  19
ATOM     19  N   UNL     1       4.892  -5.408  -0.801  0.00  0.00    +0.389 N 
ATOM     20  H   UNL     1       5.415  -5.277  -1.654  0.00  0.00    -0.084 HD
ATOM     21  H   UNL     1       4.758  -4.516  -0.349  0.00  0.00    -0.084 HD
BRANCH  19  22
ATOM     22  C   UNL     1       5.635  -6.304   0.096  0.00  0.00    -0.071 C 
ATOM     23  C   UNL     1       5.968  -5.785   1.496  0.00  0.00    -0.017 C 
ATOM     24  C   UNL     1       7.073  -5.920   0.446  0.00  0.00    -0.017 C 
ENDBRANCH  19  22
ENDBRANCH  13  19
ENDBRANCH   1  13
TORSDOF 7
