REMARK  Name = ZINC58329471
REMARK  8 active torsions:
REMARK  status: ('A' for Active; 'I' for Inactive)
REMARK    1  A    between atoms: C_1  and  N_2
REMARK    2  A    between atoms: C_6  and  C_7
REMARK    3  A    between atoms: C_7  and  C_9
REMARK    4  A    between atoms: C_7  and  N_17
REMARK    5  A    between atoms: C_14  and  O_15
REMARK    6  A    between atoms: O_15  and  C_16
REMARK    7  A    between atoms: N_19  and  C_20
REMARK    8  A    between atoms: C_20  and  C_21
REMARK                            x       y       z     vdW  Elec       q    Type
REMARK                         _______ _______ _______ _____ _____    ______ ____
ROOT
ATOM      1  C   UNL     1       0.030  -0.354   2.521  0.00  0.00    +0.180 C 
ENDROOT
BRANCH   1   2
ATOM      2  N   UNL     1      -0.638   0.945   2.631  0.00  0.00    -0.344 N 
ATOM      3  C   UNL     1      -1.995   1.004   2.848  0.00  0.00    +0.170 C 
ATOM      4  N   UNL     1      -2.622   2.223   2.951  0.00  0.00    -0.355 N 
ATOM      5  N   UNL     1      -2.686  -0.096   2.955  0.00  0.00    -0.371 N 
ATOM      6  H   UNL     1      -0.124   1.763   2.551  0.00  0.00    +0.163 HD
ATOM      7  H   UNL     1      -3.643  -0.054   3.108  0.00  0.00    +0.159 HD
ATOM      8  H   UNL     1      -2.107   3.041   2.872  0.00  0.00    +0.162 HD
ATOM      9  H   UNL     1      -2.244  -0.956   2.882  0.00  0.00    +0.159 HD
BRANCH   4  10
ATOM     10  C   UNL     1      -4.067   2.286   3.182  0.00  0.00    +0.147 C 
BRANCH  10  11
ATOM     11  C   UNL     1      -4.508   3.749   3.257  0.00  0.00    +0.137 C 
ATOM     12  C   UNL     1      -6.030   3.838   3.536  0.00  0.00    +0.035 C 
ATOM     13  C   UNL     1      -6.127   5.242   4.194  0.00  0.00    +0.031 C 
ATOM     14  C   UNL     1      -4.795   5.333   4.968  0.00  0.00    +0.160 C 
ATOM     15  O   UNL     1      -3.881   4.402   4.372  0.00  0.00    -0.375 OA
ENDBRANCH  10  11
ENDBRANCH   4  10
ENDBRANCH   1   2
BRANCH   1  21
ATOM     16  C   UNL     1      -0.348   1.375  -0.022  0.00  0.00    +0.150 C 
ATOM     17  N   UNL     1      -0.243  -0.086   0.007  0.00  0.00    -0.337 N 
ATOM     18  C   UNL     1      -0.288  -0.925  -1.074  0.00  0.00    +0.104 A 
ATOM     19  C   UNL     1      -0.154  -2.178  -0.600  0.00  0.00    +0.102 A 
ATOM     20  N   UNL     1      -0.031  -2.107   0.734  0.00  0.00    -0.348 N 
ATOM     21  C   UNL     1      -0.078  -0.856   1.104  0.00  0.00    +0.114 A 
ATOM     22  H   UNL     1       0.080  -2.864   1.329  0.00  0.00    +0.167 HD
ENDBRANCH   1  21
BRANCH   1  23
ATOM     23  C   UNL     1       1.483  -0.205   2.891  0.00  0.00    +0.024 A 
ATOM     24  C   UNL     1       2.119   1.010   2.721  0.00  0.00    +0.010 A 
ATOM     25  C   UNL     1       3.452   1.147   3.060  0.00  0.00    +0.001 A 
ATOM     26  C   UNL     1       4.152   0.070   3.571  0.00  0.00    +0.004 A 
ATOM     27  C   UNL     1       3.521  -1.146   3.744  0.00  0.00    +0.046 A 
ATOM     28  C   UNL     1       2.182  -1.286   3.409  0.00  0.00    +0.126 A 
BRANCH  28  29
ATOM     29  O   UNL     1       1.557  -2.480   3.583  0.00  0.00    -0.495 OA
ATOM     30  C   UNL     1       2.339  -3.549   4.121  0.00  0.00    +0.277 C 
ENDBRANCH  28  29
ENDBRANCH   1  23
TORSDOF 6
