REMARK  Name = ZINC49922426
REMARK  9 active torsions:
REMARK  status: ('A' for Active; 'I' for Inactive)
REMARK    1  A    between atoms: C_1  and  O_2
REMARK    2  A    between atoms: O_2  and  C_3
REMARK    3  A    between atoms: C_8  and  C_9
REMARK    4  A    between atoms: C_9  and  C_11
REMARK    5  A    between atoms: C_9  and  O_25
REMARK    6  A    between atoms: C_11  and  N_12
REMARK    7  A    between atoms: N_12  and  C_13
REMARK    8  A    between atoms: C_13  and  C_14
REMARK    9  A    between atoms: C_14  and  C_15
REMARK                            x       y       z     vdW  Elec       q    Type
REMARK                         _______ _______ _______ _____ _____    ______ ____
ROOT
ATOM      1  N   UNL     1      -2.061  -3.733   0.816  0.00  0.00    +0.381 N 
ATOM      2  H   UNL     1      -1.620  -4.634   0.926  0.00  0.00    -0.086 HD
ATOM      3  H   UNL     1      -1.941  -3.195   1.661  0.00  0.00    -0.086 HD
ENDROOT
BRANCH   1   4
ATOM      4  C   UNL     1      -1.442  -3.020  -0.309  0.00  0.00    -0.046 C 
BRANCH   4   5
ATOM      5  C   UNL     1       0.051  -2.828  -0.033  0.00  0.00    +0.131 C 
BRANCH   5  11
ATOM      6  C   UNL     1       0.606  -0.607  -1.056  0.00  0.00    +0.126 A 
ATOM      7  C   UNL     1       1.173   0.161  -2.063  0.00  0.00    +0.046 A 
ATOM      8  C   UNL     1       1.786  -0.455  -3.136  0.00  0.00    +0.004 A 
ATOM      9  C   UNL     1       1.836  -1.835  -3.208  0.00  0.00    +0.001 A 
ATOM     10  C   UNL     1       1.271  -2.602  -2.207  0.00  0.00    +0.010 A 
ATOM     11  C   UNL     1       0.661  -1.991  -1.128  0.00  0.00    +0.021 A 
BRANCH   6  13
ATOM     12  C   UNL     1      -0.017   1.425   0.010  0.00  0.00    +0.277 C 
ATOM     13  O   UNL     1       0.002  -0.004   0.002  0.00  0.00    -0.495 OA
ENDBRANCH   6  13
ENDBRANCH   5  11
BRANCH   5  14
ATOM     14  O   UNL     1       0.695  -4.103   0.007  0.00  0.00    -0.389 OA
ATOM     15  H   UNL     1       0.620  -4.608  -0.814  0.00  0.00    +0.210 HD
ENDBRANCH   5  14
ENDBRANCH   4   5
ENDBRANCH   1   4
BRANCH   1  16
ATOM     16  C   UNL     1      -3.494  -3.917   0.551  0.00  0.00    -0.078 C 
BRANCH  16  17
ATOM     17  C   UNL     1      -4.138  -4.660   1.723  0.00  0.00    +0.018 C 
BRANCH  17  18
ATOM     18  C   UNL     1      -5.608  -4.848   1.451  0.00  0.00    -0.024 A 
ATOM     19  C   UNL     1      -6.606  -4.051   1.864  0.00  0.00    +0.087 A 
ATOM     20  N   UNL     1      -7.806  -4.540   1.425  0.00  0.00    -0.360 N 
ATOM     21  H   UNL     1      -8.670  -4.134   1.599  0.00  0.00    +0.165 HD
ATOM     22  C   UNL     1      -7.605  -5.693   0.701  0.00  0.00    +0.047 A 
ATOM     23  C   UNL     1      -6.219  -5.934   0.680  0.00  0.00    +0.003 A 
ATOM     24  C   UNL     1      -5.716  -7.047   0.005  0.00  0.00    +0.010 A 
ATOM     25  C   UNL     1      -6.573  -7.897  -0.636  0.00  0.00    +0.001 A 
ATOM     26  C   UNL     1      -7.941  -7.662  -0.622  0.00  0.00    +0.002 A 
ATOM     27  C   UNL     1      -8.460  -6.574   0.046  0.00  0.00    +0.026 A 
ENDBRANCH  17  18
ENDBRANCH  16  17
ENDBRANCH   1  16
TORSDOF 8
