REMARK  Name = ZINC51170249
REMARK  7 active torsions:
REMARK  status: ('A' for Active; 'I' for Inactive)
REMARK    1  A    between atoms: C_1  and  O_2
REMARK    2  A    between atoms: O_2  and  C_3
REMARK    3  A    between atoms: C_6  and  O_19
REMARK    4  A    between atoms: C_10  and  C_15
REMARK    5  A    between atoms: C_12  and  N_13
REMARK    6  A    between atoms: N_13  and  N_14
REMARK    7  A    between atoms: O_19  and  C_20
REMARK                            x       y       z     vdW  Elec       q    Type
REMARK                         _______ _______ _______ _____ _____    ______ ____
ROOT
ATOM      1  C   UNL     1       0.601  -0.620   1.057  0.00  0.00    +0.148 A 
ATOM      2  C   UNL     1       1.159   0.130   2.066  0.00  0.00    +0.071 A 
ATOM      3  C   UNL     1       1.802  -0.482   3.139  0.00  0.00    +0.087 A 
ATOM      4  C   UNL     1       1.892  -1.855   3.213  0.00  0.00    +0.150 A 
ATOM      5  C   UNL     1       1.329  -2.645   2.196  0.00  0.00    +0.069 A 
ATOM      6  C   UNL     1       0.671  -2.026   1.107  0.00  0.00    +0.118 A 
ATOM      7  N   UNL     1       0.131  -2.775   0.139  0.00  0.00    -0.239 NA
ATOM      8  C   UNL     1       0.188  -4.086   0.169  0.00  0.00    +0.146 A 
ATOM      9  C   UNL     1       0.810  -4.768   1.205  0.00  0.00    +0.057 A 
ATOM     10  C   UNL     1       1.403  -4.057   2.237  0.00  0.00    +0.056 A 
ATOM     11 CL   UNL     1       2.496   0.494   4.396  0.00  0.00    -0.080 Cl
ENDROOT
BRANCH   8  12
ATOM     12  C   UNL     1      -0.441  -4.872  -0.953  0.00  0.00    +0.434 C 
ATOM     13  F   UNL     1      -0.906  -3.992  -1.936  0.00  0.00    -0.164 F 
ATOM     14  F   UNL     1       0.511  -5.733  -1.510  0.00  0.00    -0.164 F 
ATOM     15  F   UNL     1      -1.512  -5.622  -0.454  0.00  0.00    -0.164 F 
ENDBRANCH   8  12
BRANCH   1  17
ATOM     16  C   UNL     1      -0.056   1.424   0.033  0.00  0.00    +0.277 C 
ATOM     17  O   UNL     1      -0.023  -0.005   0.017  0.00  0.00    -0.493 OA
ENDBRANCH   1  17
BRANCH  10  18
ATOM     18  N   UNL     1       2.033  -4.710   3.286  0.00  0.00    -0.282 N 
ATOM     19  H   UNL     1       2.514  -4.199   3.956  0.00  0.00    +0.166 HD
BRANCH  18  20
ATOM     20  N   UNL     1       1.977  -6.072   3.375  0.00  0.00    -0.256 NA
ATOM     21  H   UNL     1       2.479  -6.402   4.186  0.00  0.00    +0.140 HD
ATOM     22  H   UNL     1       1.021  -6.394   3.386  0.00  0.00    +0.140 HD
ENDBRANCH  18  20
ENDBRANCH  10  18
BRANCH   4  23
ATOM     23  O   UNL     1       2.522  -2.443   4.265  0.00  0.00    -0.493 OA
ATOM     24  C   UNL     1       1.721  -2.761   5.405  0.00  0.00    +0.277 C 
ENDBRANCH   4  23
TORSDOF 5
