REMARK  Name = ZINC29482039
REMARK  6 active torsions:
REMARK  status: ('A' for Active; 'I' for Inactive)
REMARK    1  A    between atoms: C_1  and  C_2
REMARK    2  A    between atoms: C_13  and  C_15
REMARK    3  A    between atoms: C_15  and  S_16
REMARK    4  A    between atoms: S_16  and  C_17
REMARK    5  A    between atoms: N_18  and  C_19
REMARK    6  A    between atoms: C_19  and  C_20
REMARK                            x       y       z     vdW  Elec       q    Type
REMARK                         _______ _______ _______ _____ _____    ______ ____
ROOT
ATOM      1  C   UNL     1       2.854   1.107  -0.477  0.00  0.00    +0.173 C 
ENDROOT
BRANCH   1  13
ATOM      2  C   UNL     1       3.659  -1.073  -0.293  0.00  0.00    +0.028 C 
ATOM      3  C   UNL     1       5.032  -0.619   0.208  0.00  0.00    +0.079 C 
ATOM      4  C   UNL     1       6.126  -1.513  -0.389  0.00  0.00    +0.027 C 
ATOM      5  C   UNL     1       7.479  -1.085   0.181  0.00  0.00    +0.039 C 
ATOM      6  C   UNL     1       7.674   0.399   0.018  0.00  0.00    -0.026 A 
ATOM      7  C   UNL     1       8.959   0.914   0.064  0.00  0.00    +0.005 A 
ATOM      8  C   UNL     1       9.171   2.272  -0.080  0.00  0.00    +0.000 A 
ATOM      9  C   UNL     1       8.100   3.126  -0.270  0.00  0.00    +0.002 A 
ATOM     10  C   UNL     1       6.816   2.620  -0.318  0.00  0.00    +0.024 A 
ATOM     11  C   UNL     1       6.602   1.252  -0.181  0.00  0.00    +0.040 A 
ATOM     12  N   UNL     1       5.290   0.760  -0.231  0.00  0.00    -0.268 N 
ATOM     13  C   UNL     1       4.284   1.536  -0.679  0.00  0.00    +0.230 C 
ATOM     14  O   UNL     1       4.529   2.581  -1.244  0.00  0.00    -0.274 OA
ENDBRANCH   1  13
BRANCH   1  15
ATOM     15  S   UNL     1       1.747   2.469  -0.918  0.00  0.00    -0.084 S 
BRANCH  15  16
ATOM     16  C   UNL     1       0.188   1.713  -0.597  0.00  0.00    +0.126 C 
ATOM     17  N   UNL     1       0.136   0.485  -0.162  0.00  0.00    -0.365 N 
ATOM     18  N   UNL     1      -0.975   2.417  -0.809  0.00  0.00    -0.339 N 
ATOM     19  H   UNL     1      -1.948   1.945  -0.609  0.00  0.00    +0.144 HD
ATOM     20  H   UNL     1      -0.931   3.452  -1.180  0.00  0.00    +0.144 HD
ATOM     21  H   UNL     1       1.059  -0.108  -0.077  0.00  0.00    +0.161 HD
BRANCH  17  22
ATOM     22  C   UNL     1      -1.151  -0.106   0.213  0.00  0.00    +0.146 C 
BRANCH  22  23
ATOM     23  C   UNL     1      -1.163  -0.390   1.716  0.00  0.00    +0.137 C 
ATOM     24  C   UNL     1      -2.514  -1.012   2.121  0.00  0.00    +0.035 C 
ATOM     25  C   UNL     1      -2.131  -2.375   2.748  0.00  0.00    +0.031 C 
ATOM     26  C   UNL     1      -0.644  -2.152   3.126  0.00  0.00    +0.160 C 
ATOM     27  O   UNL     1      -0.139  -1.344   2.042  0.00  0.00    -0.375 OA
ENDBRANCH  22  23
ENDBRANCH  17  22
ENDBRANCH  15  16
ENDBRANCH   1  15
TORSDOF 5
