REMARK  Name = ZINC19913634
REMARK  4 active torsions:
REMARK  status: ('A' for Active; 'I' for Inactive)
REMARK    1  A    between atoms: C_1  and  S_2
REMARK    2  A    between atoms: S_2  and  N_5
REMARK    3  A    between atoms: N_8  and  C_11
REMARK    4  A    between atoms: C_11  and  C_12
REMARK                            x       y       z     vdW  Elec       q    Type
REMARK                         _______ _______ _______ _____ _____    ______ ____
ROOT
ATOM      1  C   UNL     1      -1.197  -0.917   0.009  0.00  0.00    +0.121 C 
ENDROOT
BRANCH   1   2
ATOM      2  C   UNL     1       0.002  -0.004   0.002  0.00  0.00    -0.008 A 
ATOM      3  C   UNL     1       1.291  -0.379  -0.012  0.00  0.00    +0.088 A 
ATOM      4  N   UNL     1       2.098   0.726  -0.014  0.00  0.00    -0.360 N 
ATOM      5  H   UNL     1       3.192   0.608  -0.025  0.00  0.00    +0.165 HD
ATOM      6  C   UNL     1       1.329   1.868  -0.001  0.00  0.00    +0.047 A 
ATOM      7  C   UNL     1      -0.018   1.461   0.010  0.00  0.00    +0.004 A 
ATOM      8  C   UNL     1      -1.034   2.417   0.030  0.00  0.00    +0.010 A 
ATOM      9  C   UNL     1      -0.716   3.746   0.030  0.00  0.00    +0.001 A 
ATOM     10  C   UNL     1       0.611   4.153   0.019  0.00  0.00    +0.002 A 
ATOM     11  C   UNL     1       1.631   3.225   0.004  0.00  0.00    +0.026 A 
ENDBRANCH   1   2
BRANCH   1  15
ATOM     12  N   UNL     1      -3.590  -0.962  -3.438  0.00  0.00    -0.179 NA
ATOM     13  C   UNL     1      -3.178  -2.265  -2.894  0.00  0.00    +0.124 C 
ATOM     14  C   UNL     1      -2.763  -2.072  -1.432  0.00  0.00    +0.102 C 
ATOM     15  N   UNL     1      -1.746  -1.015  -1.350  0.00  0.00    -0.296 NA
ATOM     16  C   UNL     1      -2.284   0.278  -1.794  0.00  0.00    +0.102 C 
ATOM     17  C   UNL     1      -2.680   0.181  -3.272  0.00  0.00    +0.124 C 
BRANCH  12  19
ATOM     18  C   UNL     1      -6.221  -0.346  -2.913  0.00  0.00    +0.215 C 
ATOM     19  S   UNL     1      -5.040  -0.787  -4.218  0.00  0.00    +0.029 S 
ATOM     20  O   UNL     1      -4.849   0.313  -5.097  0.00  0.00    -0.158 OA
ATOM     21  O   UNL     1      -5.336  -2.080  -4.729  0.00  0.00    -0.158 OA
ENDBRANCH  12  19
ENDBRANCH   1  15
TORSDOF 3
