REMARK  Name = ZINC00802651
REMARK  8 active torsions:
REMARK  status: ('A' for Active; 'I' for Inactive)
REMARK    1  A    between atoms: C_1  and  O_2
REMARK    2  A    between atoms: O_2  and  C_3
REMARK    3  A    between atoms: C_7  and  C_11
REMARK    4  A    between atoms: C_8  and  O_9
REMARK    5  A    between atoms: O_9  and  C_10
REMARK    6  A    between atoms: C_24  and  C_26
REMARK    7  A    between atoms: C_26  and  O_28
REMARK    8  A    between atoms: O_28  and  C_29
REMARK                            x       y       z     vdW  Elec       q    Type
REMARK                         _______ _______ _______ _____ _____    ______ ____
ROOT
ATOM      1  C   UNL     1       2.543   1.330  -0.013  0.00  0.00    +0.012 C 
ATOM      2  C   UNL     1       1.142   1.880   0.122  0.00  0.00    +0.010 A 
ATOM      3  C   UNL     1       0.869   3.204   0.141  0.00  0.00    -0.021 A 
ATOM      4  C   UNL     1      -0.562   3.344   0.285  0.00  0.00    +0.003 A 
ATOM      5  C   UNL     1      -1.407   4.455   0.365  0.00  0.00    +0.010 A 
ATOM      6  C   UNL     1      -2.752   4.207   0.485  0.00  0.00    +0.001 A 
ATOM      7  C   UNL     1      -3.260   2.920   0.540  0.00  0.00    +0.002 A 
ATOM      8  C   UNL     1      -2.448   1.801   0.469  0.00  0.00    +0.026 A 
ATOM      9  C   UNL     1      -1.079   2.022   0.339  0.00  0.00    +0.047 A 
ATOM     10  N   UNL     1      -0.019   1.166   0.243  0.00  0.00    -0.359 N 
ATOM     11  H   UNL     1      -0.081   0.198   0.255  0.00  0.00    +0.166 HD
ATOM     12  C   UNL     1       1.927   4.273   0.027  0.00  0.00    +0.033 C 
ATOM     13  C   UNL     1       3.211   3.615  -0.499  0.00  0.00    +0.045 C 
ATOM     14  N   UNL     1       3.509   2.407   0.297  0.00  0.00    +0.396 N 
ATOM     15  H   UNL     1       4.458   2.083   0.076  0.00  0.00    -0.083 HD
ATOM     16  H   UNL     1       3.449   2.637   1.296  0.00  0.00    -0.083 HD
ENDROOT
BRANCH   1  21
ATOM     17  C   UNL     1       2.566  -2.141   1.497  0.00  0.00    +0.162 A 
ATOM     18  C   UNL     1       3.096  -1.887   2.752  0.00  0.00    +0.049 A 
ATOM     19  C   UNL     1       3.445  -0.598   3.107  0.00  0.00    +0.004 A 
ATOM     20  C   UNL     1       3.270   0.440   2.211  0.00  0.00    +0.006 A 
ATOM     21  C   UNL     1       2.737   0.195   0.960  0.00  0.00    -0.010 A 
ATOM     22  C   UNL     1       2.386  -1.096   0.597  0.00  0.00    +0.163 A 
BRANCH  17  24
ATOM     23  C   UNL     1       2.436  -4.433   2.121  0.00  0.00    +0.277 C 
ATOM     24  O   UNL     1       2.223  -3.409   1.147  0.00  0.00    -0.491 OA
ENDBRANCH  17  24
BRANCH  22  25
ATOM     25  O   UNL     1       1.866  -1.340  -0.636  0.00  0.00    -0.491 OA
ATOM     26  C   UNL     1       2.792  -1.647  -1.680  0.00  0.00    +0.277 C 
ENDBRANCH  22  25
ENDBRANCH   1  21
BRANCH  13  27
ATOM     27  C   UNL     1       4.359   4.583  -0.372  0.00  0.00    +0.293 C 
ATOM     28  O   UNL     1       5.133   4.485   0.551  0.00  0.00    -0.253 OA
BRANCH  27  29
ATOM     29  O   UNL     1       4.522   5.553  -1.285  0.00  0.00    -0.469 OA
ATOM     30  C   UNL     1       5.650   6.449  -1.101  0.00  0.00    +0.280 C 
ENDBRANCH  27  29
ENDBRANCH  13  27
TORSDOF 5
