REMARK  Name = ZINC42250393
REMARK  5 active torsions:
REMARK  status: ('A' for Active; 'I' for Inactive)
REMARK    1  A    between atoms: C_1  and  C_2
REMARK    2  A    between atoms: C_2  and  C_4
REMARK    3  A    between atoms: C_2  and  N_16
REMARK    4  A    between atoms: C_10  and  C_13
REMARK    5  A    between atoms: N_19  and  C_22
REMARK                            x       y       z     vdW  Elec       q    Type
REMARK                         _______ _______ _______ _____ _____    ______ ____
ROOT
ATOM      1  C   UNL     1       0.130   1.616  -0.068  0.00  0.00    -0.004 C 
ATOM      2  C   UNL     1       0.127   0.088  -0.151  0.00  0.00    +0.016 C 
ENDROOT
BRANCH   2   3
ATOM      3  C   UNL     1       1.034  -0.356  -1.269  0.00  0.00    +0.202 C 
ATOM      4  O   UNL     1       2.167  -0.714  -1.025  0.00  0.00    -0.277 OA
ATOM      5  N   UNL     1       0.586  -0.355  -2.541  0.00  0.00    -0.302 N 
ATOM      6  C   UNL     1      -0.812  -0.018  -2.842  0.00  0.00    +0.108 C 
ATOM      7  C   UNL     1      -0.835   1.105  -3.884  0.00  0.00    +0.020 C 
ATOM      8  C   UNL     1      -0.014   0.680  -5.104  0.00  0.00    +0.016 C 
ATOM      9  C   UNL     1       1.438   0.439  -4.685  0.00  0.00    +0.092 C 
ATOM     10  C   UNL     1       1.489  -0.685  -3.652  0.00  0.00    +0.120 C 
BRANCH   9  11
ATOM     11  C   UNL     1       2.253   0.053  -5.893  0.00  0.00    +0.215 C 
ATOM     12  O   UNL     1       2.820  -1.019  -5.924  0.00  0.00    -0.276 OA
ATOM     13  N   UNL     1       2.351   0.899  -6.937  0.00  0.00    -0.329 N 
ATOM     14  H   UNL     1       1.898   1.756  -6.912  0.00  0.00    +0.145 HD
ATOM     15  H   UNL     1       2.876   0.650  -7.715  0.00  0.00    +0.145 HD
ENDBRANCH   9  11
ENDBRANCH   2   3
BRANCH   2  16
ATOM     16  N   UNL     1       0.606  -0.472   1.120  0.00  0.00    +0.389 N 
ATOM     17  C   UNL     1       0.522  -1.937   1.069  0.00  0.00    -0.059 C 
ATOM     18  C   UNL     1       1.128  -2.527   2.347  0.00  0.00    +0.086 C 
ATOM     19  N   UNL     1       0.453  -1.920   3.506  0.00  0.00    -0.333 N 
ATOM     20  C   UNL     1       0.347  -0.454   3.556  0.00  0.00    +0.086 C 
ATOM     21  C   UNL     1      -0.221   0.038   2.221  0.00  0.00    -0.059 C 
ATOM     22  H   UNL     1       1.566  -0.197   1.267  0.00  0.00    -0.081 HD
BRANCH  19  23
ATOM     23  C   UNL     1      -0.071  -2.715   4.530  0.00  0.00    +0.030 A 
ATOM     24  C   UNL     1       0.149  -4.086   4.528  0.00  0.00    +0.026 A 
ATOM     25  C   UNL     1      -0.369  -4.869   5.541  0.00  0.00    +0.040 A 
ATOM     26  C   UNL     1      -1.108  -4.287   6.558  0.00  0.00    +0.124 A 
ATOM     27  C   UNL     1      -1.329  -2.920   6.561  0.00  0.00    +0.040 A 
ATOM     28  C   UNL     1      -0.808  -2.133   5.553  0.00  0.00    +0.026 A 
ATOM     29  F   UNL     1      -1.615  -5.055   7.547  0.00  0.00    -0.205 F 
ENDBRANCH  19  23
ENDBRANCH   2  16
TORSDOF 4
