REMARK  Name = ZINC40508435
REMARK  4 active torsions:
REMARK  status: ('A' for Active; 'I' for Inactive)
REMARK    1  A    between atoms: C_3  and  C_15
REMARK    2  A    between atoms: N_5  and  C_7
REMARK    3  A    between atoms: C_7  and  C_8
REMARK    4  A    between atoms: C_8  and  C_9
REMARK                            x       y       z     vdW  Elec       q    Type
REMARK                         _______ _______ _______ _____ _____    ______ ____
ROOT
ATOM      1  C   UNL     1      -0.047   1.394  -0.068  0.00  0.00    -0.020 C 
ATOM      2  C   UNL     1       1.424   1.866  -0.133  0.00  0.00    -0.008 C 
ATOM      3  C   UNL     1       2.190   0.705   0.550  0.00  0.00    +0.019 C 
ATOM      4  N   UNL     1       1.461  -0.503   0.086  0.00  0.00    +0.388 N 
ATOM      5  C   UNL     1       0.028  -0.136   0.092  0.00  0.00    -0.078 C 
ATOM      6  H   UNL     1       1.753  -0.749  -0.848  0.00  0.00    -0.081 HD
ENDROOT
BRANCH   3   7
ATOM      7  C   UNL     1       3.625   0.673   0.090  0.00  0.00    +0.202 C 
ATOM      8  O   UNL     1       3.965  -0.095  -0.785  0.00  0.00    -0.277 OA
ATOM      9  N   UNL     1       4.532   1.497   0.653  0.00  0.00    -0.300 N 
ATOM     10  C   UNL     1       4.169   2.352   1.793  0.00  0.00    +0.123 C 
ATOM     11  C   UNL     1       4.591   3.791   1.476  0.00  0.00    +0.100 C 
ATOM     12  N   UNL     1       6.015   3.811   1.112  0.00  0.00    -0.313 NA
ATOM     13  C   UNL     1       6.263   3.034  -0.110  0.00  0.00    +0.100 C 
ATOM     14  C   UNL     1       5.911   1.560   0.146  0.00  0.00    +0.123 C 
ATOM     15  H   UNL     1       6.349   4.758   1.013  0.00  0.00    +0.122 HD
ENDBRANCH   3   7
BRANCH   4  16
ATOM     16  C   UNL     1       1.701  -1.623   1.005  0.00  0.00    -0.069 C 
BRANCH  16  17
ATOM     17  C   UNL     1       1.046  -2.889   0.448  0.00  0.00    +0.078 C 
BRANCH  17  18
ATOM     18  C   UNL     1       1.292  -4.039   1.391  0.00  0.00    +0.219 C 
ATOM     19  O   UNL     1       1.928  -3.863   2.408  0.00  0.00    -0.275 OA
ATOM     20  N   UNL     1       0.805  -5.262   1.103  0.00  0.00    -0.240 N 
ATOM     21  C   UNL     1       1.025  -6.290   1.947  0.00  0.00    +0.303 C 
ATOM     22  O   UNL     1       1.663  -6.114   2.966  0.00  0.00    -0.253 OA
ATOM     23  N   UNL     1       0.537  -7.513   1.659  0.00  0.00    -0.313 N 
ATOM     24  H   UNL     1       0.295  -5.402   0.290  0.00  0.00    +0.159 HD
ATOM     25  H   UNL     1       0.028  -7.654   0.846  0.00  0.00    +0.146 HD
ATOM     26  H   UNL     1       0.696  -8.253   2.266  0.00  0.00    +0.146 HD
ENDBRANCH  17  18
ENDBRANCH  16  17
ENDBRANCH   4  16
TORSDOF 4
