REMARK  Name = ZINC63211067
REMARK  4 active torsions:
REMARK  status: ('A' for Active; 'I' for Inactive)
REMARK    1  A    between atoms: C_1  and  N_2
REMARK    2  A    between atoms: C_6  and  C_7
REMARK    3  A    between atoms: N_9  and  C_10
REMARK    4  A    between atoms: C_17  and  N_19
REMARK                            x       y       z     vdW  Elec       q    Type
REMARK                         _______ _______ _______ _____ _____    ______ ____
ROOT
ATOM      1  C   UNL     1      -0.189  -0.374   2.507  0.00  0.00    +0.261 C 
ATOM      2  O   UNL     1      -0.102  -1.183   3.411  0.00  0.00    -0.269 OA
ATOM      3  N   UNL     1      -0.393   0.929   2.785  0.00  0.00    -0.309 N 
ATOM      4  H   UNL     1      -0.537   1.562   2.064  0.00  0.00    +0.149 HD
ENDROOT
BRANCH   1  10
ATOM      5  C   UNL     1       0.070  -3.305   1.538  0.00  0.00    +0.149 C 
ATOM      6  N   UNL     1       0.044  -2.118   0.680  0.00  0.00    -0.345 N 
ATOM      7  C   UNL     1       0.124  -2.119  -0.673  0.00  0.00    +0.101 A 
ATOM      8  C   UNL     1       0.068  -0.840  -1.117  0.00  0.00    +0.036 A 
ATOM      9  C   UNL     1      -0.053  -0.004  -0.001  0.00  0.00    +0.047 A 
ATOM     10  C   UNL     1      -0.071  -0.816   1.113  0.00  0.00    +0.105 A 
ATOM     11 BR   UNL     1       0.138  -0.282  -2.922  0.00  0.00    -0.049 Br
ENDBRANCH   1  10
BRANCH   3  12
ATOM     12  C   UNL     1      -0.399   1.389   4.176  0.00  0.00    +0.059 C 
ATOM     13  C   UNL     1       1.055   1.628   4.626  0.00  0.00    +0.020 C 
ATOM     14  C   UNL     1       1.142   2.482   5.862  0.00  0.00    +0.002 C 
ATOM     15  C   UNL     1       1.336   3.950   5.431  0.00  0.00    +0.000 C 
ATOM     16  C   UNL     1       0.087   4.580   5.028  0.00  0.00    -0.002 C 
ATOM     17  C   UNL     1      -0.552   3.889   3.806  0.00  0.00    -0.014 C 
ATOM     18  C   UNL     1      -1.270   2.656   4.277  0.00  0.00    -0.055 C 
BRANCH  18  19
ATOM     19  N   UNL     1      -2.476   2.470   3.459  0.00  0.00    +0.381 N 
ATOM     20  H   UNL     1      -2.993   1.673   3.798  0.00  0.00    -0.090 HD
ATOM     21  H   UNL     1      -3.053   3.296   3.518  0.00  0.00    -0.090 HD
ATOM     22  H   UNL     1      -2.210   2.314   2.498  0.00  0.00    -0.090 HD
ENDBRANCH  18  19
ENDBRANCH   3  12
TORSDOF 3
