REMARK  Name = ZINC09033331
REMARK  6 active torsions:
REMARK  status: ('A' for Active; 'I' for Inactive)
REMARK    1  A    between atoms: C_1  and  C_2
REMARK    2  A    between atoms: C_15  and  O_34
REMARK    3  A    between atoms: C_18  and  C_31
REMARK    4  A    between atoms: C_23  and  C_25
REMARK    5  A    between atoms: C_25  and  C_30
REMARK    6  A    between atoms: N_32  and  O_33
REMARK                            x       y       z     vdW  Elec       q    Type
REMARK                         _______ _______ _______ _____ _____    ______ ____
ROOT
ATOM      1  C   UNL     1       2.795   2.567  -4.447  0.00  0.00    +0.012 C 
ATOM      2  C   UNL     1       1.450   2.584  -3.729  0.00  0.00    -0.023 C 
ATOM      3  C   UNL     1       0.902   1.159  -3.653  0.00  0.00    +0.012 C 
ATOM      4  C   UNL     1       0.548   0.624  -5.040  0.00  0.00    +0.065 C 
ATOM      5  C   UNL     1      -0.457   1.548  -5.725  0.00  0.00    +0.170 C 
ATOM      6  C   UNL     1       0.148   2.950  -5.856  0.00  0.00    +0.069 C 
ATOM      7  C   UNL     1       0.444   3.480  -4.457  0.00  0.00    +0.000 C 
ATOM      8  C   UNL     1       0.927   4.926  -4.524  0.00  0.00    +0.004 C 
ATOM      9  C   UNL     1       1.134   5.467  -3.104  0.00  0.00    +0.004 C 
ATOM     10  C   UNL     1       2.154   4.571  -2.395  0.00  0.00    -0.001 C 
ATOM     11  C   UNL     1       1.602   3.155  -2.306  0.00  0.00    +0.027 C 
ATOM     12  C   UNL     1       2.370   2.237  -1.385  0.00  0.00    +0.119 C 
ATOM     13  C   UNL     1       2.781   2.880  -0.049  0.00  0.00    +0.045 C 
ATOM     14  C   UNL     1       2.170   4.243   0.116  0.00  0.00    +0.022 C 
ATOM     15  C   UNL     1       2.588   5.128  -1.075  0.00  0.00    +0.005 C 
ATOM     16  C   UNL     1       2.060   6.504  -0.658  0.00  0.00    +0.005 C 
ATOM     17  C   UNL     1       2.369   6.549   0.864  0.00  0.00    +0.010 C 
ATOM     18  C   UNL     1       2.660   5.091   1.304  0.00  0.00    +0.060 C 
ATOM     19  O   UNL     1      -0.782   1.039  -7.027  0.00  0.00    -0.346 OA
ATOM     20  C   UNL     1      -1.997   0.275  -6.831  0.00  0.00    +0.191 C 
ATOM     21  C   UNL     1      -2.732   1.113  -5.756  0.00  0.00    +0.191 C 
ATOM     22  O   UNL     1      -1.655   1.619  -4.941  0.00  0.00    -0.346 OA
ENDROOT
BRANCH  18  23
ATOM     23  C   UNL     1       4.155   4.899   1.568  0.00  0.00    +0.171 C 
ATOM     24  O   UNL     1       4.428   3.508   1.808  0.00  0.00    -0.346 OA
ATOM     25  C   UNL     1       5.472   3.503   2.811  0.00  0.00    +0.191 C 
ATOM     26  C   UNL     1       5.073   4.717   3.686  0.00  0.00    +0.191 C 
ATOM     27  O   UNL     1       4.541   5.651   2.725  0.00  0.00    -0.346 OA
ATOM     28  C   UNL     1       4.957   5.375   0.355  0.00  0.00    +0.074 C 
ENDBRANCH  18  23
BRANCH  14  29
ATOM     29  C   UNL     1       0.672   4.152   0.275  0.00  0.00    +0.133 C 
ATOM     30  N   UNL     1       0.089   3.014   0.207  0.00  0.00    -0.099 NA
BRANCH  30  31
ATOM     31  O   UNL     1      -1.316   2.928   0.357  0.00  0.00    -0.409 OA
ATOM     32  H   UNL     1      -1.664   2.029   0.290  0.00  0.00    +0.328 HD
ENDBRANCH  30  31
ENDBRANCH  14  29
BRANCH  12  33
ATOM     33  O   UNL     1       1.578   1.076  -1.079  0.00  0.00    -0.391 OA
ATOM     34  H   UNL     1       2.016   0.446  -0.490  0.00  0.00    +0.210 HD
ENDBRANCH  12  33
TORSDOF 4
