REMARK  Name = ZINC00066815
REMARK  4 active torsions:
REMARK  status: ('A' for Active; 'I' for Inactive)
REMARK    1  A    between atoms: C_5  and  N_7
REMARK    2  A    between atoms: N_7  and  N_8
REMARK    3  A    between atoms: C_9  and  C_10
REMARK    4  A    between atoms: C_9  and  C_12
REMARK                            x       y       z     vdW  Elec       q    Type
REMARK                         _______ _______ _______ _____ _____    ______ ____
ROOT
ATOM      1  N   UNL     1       3.712   0.832   0.807  0.00  0.00    -0.168 NA
ATOM      2  C   UNL     1       4.870   0.640   0.214  0.00  0.00    +0.195 C 
ENDROOT
BRANCH   2   3
ATOM      3  C   UNL     1       5.774   1.781  -0.026  0.00  0.00    +0.131 C 
ATOM      4  N   UNL     1       5.270   3.064  -0.065  0.00  0.00    -0.310 N 
ATOM      5  C   UNL     1       6.167   4.228  -0.150  0.00  0.00    +0.134 C 
ATOM      6  C   UNL     1       5.682   5.122  -1.303  0.00  0.00    +0.178 C 
ATOM      7  O   UNL     1       4.292   5.404  -1.125  0.00  0.00    -0.377 OA
ATOM      8  C   UNL     1       3.450   4.249  -1.171  0.00  0.00    +0.178 C 
ATOM      9  C   UNL     1       3.820   3.310  -0.017  0.00  0.00    +0.134 C 
ATOM     10  H   UNL     1       7.737   2.264  -0.289  0.00  0.00    +0.157 HD
ATOM     11  N   UNL     1       7.060   1.506  -0.204  0.00  0.00    -0.385 N 
ATOM     12  H   UNL     1       7.374   0.529  -0.255  0.00  0.00    +0.157 HD
ENDBRANCH   2   3
BRANCH   1  13
ATOM     13  N   UNL     1       2.922  -0.166   1.018  0.00  0.00    -0.234 N 
ATOM     14  H   UNL     1       3.182  -1.057   0.738  0.00  0.00    +0.174 HD
BRANCH  13  19
ATOM     15  C   UNL     1       0.102   1.514   2.671  0.00  0.00    +0.002 A 
ATOM     16  C   UNL     1      -0.745   0.444   2.895  0.00  0.00    +0.003 A 
ATOM     17  C   UNL     1      -0.380  -0.828   2.494  0.00  0.00    +0.040 A 
ATOM     18  C   UNL     1       0.839  -1.036   1.875  0.00  0.00    +0.146 A 
ATOM     19  C   UNL     1       1.693   0.039   1.647  0.00  0.00    +0.083 A 
ATOM     20  C   UNL     1       1.319   1.315   2.048  0.00  0.00    +0.027 A 
ATOM     21  F   UNL     1       1.197  -2.280   1.487  0.00  0.00    -0.203 F 
ENDBRANCH  13  19
ENDBRANCH   1  13
BRANCH   2  22
ATOM     22  C   UNL     1       5.253  -0.677  -0.198  0.00  0.00    +0.124 C 
ATOM     23  N   UNL     1       5.557  -1.721  -0.525  0.00  0.00    -0.189 NA
ENDBRANCH   2  22
TORSDOF 4
