REMARK  Name = ZINC38738814
REMARK  6 active torsions:
REMARK  status: ('A' for Active; 'I' for Inactive)
REMARK    1  A    between atoms: C_1  and  C_2
REMARK    2  A    between atoms: C_4  and  C_22
REMARK    3  A    between atoms: C_5  and  O_21
REMARK    4  A    between atoms: C_6  and  C_8
REMARK    5  A    between atoms: C_8  and  C_10
REMARK    6  A    between atoms: C_11  and  C_12
REMARK                            x       y       z     vdW  Elec       q    Type
REMARK                         _______ _______ _______ _____ _____    ______ ____
ROOT
ATOM      1  C   UNL     1       0.052  -2.841   2.458  0.00  0.00    +0.190 C 
ATOM      2  O   UNL     1       0.068  -4.059   2.449  0.00  0.00    -0.287 OA
ENDROOT
BRANCH   1   8
ATOM      3  C   UNL     1      -0.018   1.503   0.010  0.00  0.00    +0.044 C 
ATOM      4  C   UNL     1       0.002  -0.004   0.002  0.00  0.00    -0.049 A 
ATOM      5  C   UNL     1       0.006  -0.687  -1.204  0.00  0.00    +0.010 A 
ATOM      6  C   UNL     1       0.025  -2.068  -1.225  0.00  0.00    -0.008 A 
ATOM      7  C   UNL     1       0.040  -2.781  -0.036  0.00  0.00    +0.131 A 
ATOM      8  C   UNL     1       0.036  -2.094   1.187  0.00  0.00    +0.064 A 
ATOM      9  C   UNL     1       0.023  -0.696   1.193  0.00  0.00    +0.018 A 
ATOM     10  C   UNL     1       0.029  -2.800  -2.542  0.00  0.00    +0.047 C 
BRANCH   7  11
ATOM     11  O   UNL     1       0.058  -4.138  -0.055  0.00  0.00    -0.506 OA
ATOM     12  H   UNL     1       0.947  -4.519  -0.065  0.00  0.00    +0.292 HD
ENDBRANCH   7  11
ENDBRANCH   1   8
BRANCH   1  13
ATOM     13  C   UNL     1       0.048  -2.119   3.733  0.00  0.00    +0.052 C 
ATOM     14  C   UNL     1       0.063  -2.808   4.905  0.00  0.00    +0.010 C 
BRANCH  14  15
ATOM     15  C   UNL     1       0.059  -2.115   6.128  0.00  0.00    -0.019 C 
ATOM     16  C   UNL     1       0.077  -2.663   7.403  0.00  0.00    +0.003 A 
ATOM     17  C   UNL     1       0.104  -3.995   7.876  0.00  0.00    +0.010 A 
ATOM     18  C   UNL     1       0.118  -4.247   9.205  0.00  0.00    +0.001 A 
ATOM     19  C   UNL     1       0.107  -3.225  10.163  0.00  0.00    +0.002 A 
ATOM     20  C   UNL     1       0.082  -1.918   9.813  0.00  0.00    +0.026 A 
ATOM     21  C   UNL     1       0.066  -1.560   8.389  0.00  0.00    +0.043 A 
ATOM     22  N   UNL     1       0.042  -0.402   7.780  0.00  0.00    -0.380 N 
ATOM     23  C   UNL     1       0.040  -0.616   6.330  0.00  0.00    +0.149 C 
ATOM     24  H   UNL     1       0.030   0.463   8.220  0.00  0.00    +0.160 HD
ENDBRANCH  14  15
ENDBRANCH   1  13
TORSDOF 4
