REMARK  Name = ZINC39685506
REMARK  6 active torsions:
REMARK  status: ('A' for Active; 'I' for Inactive)
REMARK    1  A    between atoms: C_3  and  O_8
REMARK    2  A    between atoms: O_8  and  C_9
REMARK    3  A    between atoms: C_9  and  C_10
REMARK    4  A    between atoms: C_10  and  N_11
REMARK    5  A    between atoms: C_12  and  C_14
REMARK    6  A    between atoms: C_25  and  C_27
REMARK                            x       y       z     vdW  Elec       q    Type
REMARK                         _______ _______ _______ _____ _____    ______ ____
ROOT
ATOM      1  C   UNL     1       7.002   4.728   2.721  0.00  0.00    +0.100 C 
ATOM      2  C   UNL     1       7.076   3.764   3.927  0.00  0.00    +0.121 C 
ATOM      3  N   UNL     1       8.521   3.665   4.238  0.00  0.00    -0.296 N 
ATOM      4  C   UNL     1       9.035   5.043   4.049  0.00  0.00    +0.115 C 
ATOM      5  C   UNL     1       8.287   5.568   2.808  0.00  0.00    -0.004 C 
ATOM      6  C   UNL     1       7.943   7.044   2.983  0.00  0.00    -0.010 C 
ATOM      7  C   UNL     1       9.235   7.865   3.008  0.00  0.00    -0.082 C 
ATOM      8  N   UNL     1       9.972   7.659   1.755  0.00  0.00    +0.379 N 
ATOM      9  C   UNL     1      10.380   6.254   1.639  0.00  0.00    -0.082 C 
ATOM     10  C   UNL     1       9.136   5.365   1.556  0.00  0.00    -0.010 C 
ATOM     11  C   UNL     1       9.213   2.569   4.609  0.00  0.00    +0.252 C 
ATOM     12  O   UNL     1      10.405   2.650   4.832  0.00  0.00    -0.270 OA
ATOM     13  H   UNL     1       9.380   7.902   0.974  0.00  0.00    -0.086 HD
ATOM     14  H   UNL     1      10.791   8.248   1.747  0.00  0.00    -0.086 HD
ENDROOT
BRANCH  11  15
ATOM     15  C   UNL     1       8.523   1.272   4.745  0.00  0.00    +0.108 A 
ATOM     16  C   UNL     1       8.433   0.405   3.651  0.00  0.00    +0.138 A 
ATOM     17  C   UNL     1       7.785  -0.808   3.786  0.00  0.00    +0.041 A 
ATOM     18  C   UNL     1       7.226  -1.167   5.000  0.00  0.00    +0.026 A 
ATOM     19  C   UNL     1       7.311  -0.316   6.088  0.00  0.00    +0.077 A 
ATOM     20  C   UNL     1       7.961   0.900   5.971  0.00  0.00    +0.156 A 
ATOM     21  F   UNL     1       8.047   1.727   7.035  0.00  0.00    -0.203 F 
ATOM     22 CL   UNL     1       6.605  -0.778   7.605  0.00  0.00    -0.081 Cl
ATOM     23  F   UNL     1       8.977   0.753   2.464  0.00  0.00    -0.205 F 
ENDBRANCH  11  15
BRANCH   1  25
ATOM     24  N   UNL     1       6.356   4.472   0.347  0.00  0.00    -0.312 N 
ATOM     25  C   UNL     1       6.968   3.952   1.430  0.00  0.00    +0.218 C 
ATOM     26  O   UNL     1       7.490   2.859   1.365  0.00  0.00    -0.275 OA
ATOM     27  H   UNL     1       5.938   5.346   0.399  0.00  0.00    +0.149 HD
BRANCH  24  28
ATOM     28  C   UNL     1       6.323   3.717  -0.908  0.00  0.00    +0.145 C 
BRANCH  28  29
ATOM     29  C   UNL     1       5.575   4.527  -1.970  0.00  0.00    +0.247 C 
BRANCH  29  30
ATOM     30  O   UNL     1       6.307   5.718  -2.264  0.00  0.00    -0.490 OA
BRANCH  30  33
ATOM     31  C   UNL     1       5.893   8.579  -4.474  0.00  0.00    +0.006 A 
ATOM     32  C   UNL     1       6.434   7.729  -3.528  0.00  0.00    +0.046 A 
ATOM     33  C   UNL     1       5.776   6.555  -3.194  0.00  0.00    +0.123 A 
ATOM     34  C   UNL     1       4.575   6.235  -3.811  0.00  0.00    +0.084 A 
ATOM     35  C   UNL     1       4.037   7.088  -4.757  0.00  0.00    +0.127 A 
ATOM     36  C   UNL     1       4.697   8.260  -5.088  0.00  0.00    +0.038 A 
ATOM     37  F   UNL     1       2.868   6.778  -5.359  0.00  0.00    -0.205 F 
ENDBRANCH  30  33
ENDBRANCH  29  30
ENDBRANCH  28  29
ENDBRANCH  24  28
ENDBRANCH   1  25
TORSDOF 6
