REMARK  Name = ZINC12591135
REMARK  10 active torsions:
REMARK  status: ('A' for Active; 'I' for Inactive)
REMARK    1  A    between atoms: C_1  and  C_2
REMARK    2  A    between atoms: C_6  and  C_8
REMARK    3  A    between atoms: C_8  and  N_9
REMARK    4  A    between atoms: C_10  and  C_12
REMARK    5  A    between atoms: C_12  and  C_13
REMARK    6  A    between atoms: C_20  and  C_21
REMARK    7  A    between atoms: C_20  and  N_61
REMARK    8  A    between atoms: C_21  and  C_22
REMARK    9  A    between atoms: C_21  and  C_23
REMARK   10  A    between atoms: C_21  and  C_24
REMARK                            x       y       z     vdW  Elec       q    Type
REMARK                         _______ _______ _______ _____ _____    ______ ____
ROOT
ATOM      1  N   UNL     1       1.420   4.338   0.891  0.00  0.00    -0.308 N 
ATOM      2  C   UNL     1       1.253   5.505   1.545  0.00  0.00    +0.212 C 
ATOM      3  O   UNL     1       0.961   6.508   0.930  0.00  0.00    -0.276 OA
ATOM      4  H   UNL     1       1.654   3.535   1.383  0.00  0.00    +0.149 HD
ENDROOT
BRANCH   1   5
ATOM      5  C   UNL     1       1.249   4.282  -0.563  0.00  0.00    +0.180 C 
BRANCH   5  11
ATOM      6  C   UNL     1      -0.511  -0.161  -1.592  0.00  0.00    +0.066 C 
ATOM      7  C   UNL     1       0.653   0.793  -1.523  0.00  0.00    +0.045 A 
ATOM      8  C   UNL     1       1.926   0.377  -1.896  0.00  0.00    -0.005 A 
ATOM      9  C   UNL     1       2.962   1.282  -1.819  0.00  0.00    +0.048 A 
ATOM     10  N   UNL     1       2.708   2.514  -1.389  0.00  0.00    -0.235 NA
ATOM     11  C   UNL     1       1.490   2.875  -1.043  0.00  0.00    +0.146 A 
ATOM     12  N   UNL     1       0.475   2.036  -1.108  0.00  0.00    -0.235 NA
ATOM     13  C   UNL     1       4.373   0.934  -2.206  0.00  0.00    +0.056 C 
ATOM     14  C   UNL     1       4.555  -0.583  -2.250  0.00  0.00    +0.006 C 
ATOM     15  C   UNL     1       3.439  -1.182  -3.114  0.00  0.00    +0.005 C 
ATOM     16  C   UNL     1       2.116  -1.040  -2.362  0.00  0.00    +0.039 C 
ENDBRANCH   5  11
ENDBRANCH   1   5
BRANCH   2  17
ATOM     17  C   UNL     1       1.429   5.562   3.041  0.00  0.00    +0.089 C 
BRANCH  17  18
ATOM     18  C   UNL     1       1.315   7.013   3.512  0.00  0.00    +0.028 C 
ATOM     19  C   UNL     1      -0.058   7.534   3.194  0.00  0.00    +0.200 C 
ATOM     20  O   UNL     1      -1.014   6.817   3.398  0.00  0.00    -0.278 OA
ATOM     21  N   UNL     1      -0.269   8.756   2.693  0.00  0.00    -0.318 N 
ATOM     22  C   UNL     1       0.814   9.683   2.378  0.00  0.00    +0.085 C 
ATOM     23  C   UNL     1       2.095   9.257   3.097  0.00  0.00    -0.059 C 
ATOM     24  H   UNL     1      -1.183   9.040   2.534  0.00  0.00    +0.149 HD
ATOM     25  N   UNL     1       2.326   7.826   2.811  0.00  0.00    +0.389 N 
ATOM     26  H   UNL     1       2.241   7.668   1.800  0.00  0.00    -0.081 HD
BRANCH  25  27
ATOM     27  C   UNL     1       3.685   7.433   3.247  0.00  0.00    -0.072 C 
BRANCH  27  28
ATOM     28  C   UNL     1       4.672   7.737   2.119  0.00  0.00    -0.052 C 
ATOM     29  C   UNL     1       4.620   9.229   1.784  0.00  0.00    +0.009 C 
ATOM     30  C   UNL     1       6.087   7.365   2.565  0.00  0.00    +0.009 C 
ATOM     31  C   UNL     1       4.297   6.923   0.879  0.00  0.00    +0.009 C 
ENDBRANCH  27  28
ENDBRANCH  25  27
ENDBRANCH  17  18
ENDBRANCH   2  17
TORSDOF 6
