REMARK  Name = ZINC38057956
REMARK  4 active torsions:
REMARK  status: ('A' for Active; 'I' for Inactive)
REMARK    1  A    between atoms: C_1  and  N_2
REMARK    2  A    between atoms: N_2  and  C_3
REMARK    3  A    between atoms: C_3  and  C_5
REMARK    4  A    between atoms: C_3  and  C_15
REMARK                            x       y       z     vdW  Elec       q    Type
REMARK                         _______ _______ _______ _____ _____    ______ ____
ROOT
ATOM      1  C   UNL     1       0.690  -0.478  -1.207  0.00  0.00    -0.008 C 
ENDROOT
BRANCH   1   2
ATOM      2  C   UNL     1       2.137  -0.060  -1.158  0.00  0.00    -0.057 A 
ATOM      3  C   UNL     1       2.836  -0.127   0.033  0.00  0.00    +0.006 A 
ATOM      4  C   UNL     1       4.160   0.258   0.077  0.00  0.00    +0.046 A 
ATOM      5  C   UNL     1       4.796   0.713  -1.074  0.00  0.00    +0.124 A 
ATOM      6  C   UNL     1       4.094   0.776  -2.265  0.00  0.00    -0.005 A 
ATOM      7  C   UNL     1       2.766   0.385  -2.304  0.00  0.00    +0.009 A 
ATOM      8  C   UNL     1       4.748   1.252  -3.538  0.00  0.00    +0.042 C 
ATOM      9  C   UNL     1       6.028   2.021  -3.203  0.00  0.00    +0.046 C 
ATOM     10  C   UNL     1       6.843   1.190  -2.204  0.00  0.00    +0.229 C 
ATOM     11  O   UNL     1       6.099   1.088  -0.990  0.00  0.00    -0.492 OA
ENDBRANCH   1   2
BRANCH   1  12
ATOM     12  C   UNL     1       0.603  -1.981  -1.277  0.00  0.00    -0.022 A 
ATOM     13  C   UNL     1       0.326  -2.712  -0.137  0.00  0.00    +0.006 A 
ATOM     14  C   UNL     1       0.246  -4.090  -0.201  0.00  0.00    +0.015 A 
ATOM     15  C   UNL     1       0.444  -4.740  -1.407  0.00  0.00    +0.021 A 
ATOM     16  C   UNL     1       0.721  -4.010  -2.548  0.00  0.00    +0.053 A 
ATOM     17  C   UNL     1       0.795  -2.629  -2.485  0.00  0.00    +0.126 A 
ATOM     18  F   UNL     1       1.061  -1.915  -3.601  0.00  0.00    -0.205 F 
ATOM     19 BR   UNL     1       0.334  -6.625  -1.493  0.00  0.00    -0.050 Br
ENDBRANCH   1  12
BRANCH   1  21
ATOM     20  C   UNL     1      -0.018   1.465   0.010  0.00  0.00    -0.099 C 
ATOM     21  N   UNL     1       0.002  -0.004   0.002  0.00  0.00    +0.384 N 
ATOM     22  H   UNL     1       0.490  -0.338   0.820  0.00  0.00    -0.085 HD
ATOM     23  H   UNL     1      -0.945  -0.353   0.009  0.00  0.00    -0.085 HD
ENDBRANCH   1  21
TORSDOF 3
