REMARK  Name = ZINC13299855
REMARK  5 active torsions:
REMARK  status: ('A' for Active; 'I' for Inactive)
REMARK    1  A    between atoms: C_6  and  C_7
REMARK    2  A    between atoms: N_9  and  N_10
REMARK    3  A    between atoms: N_10  and  S_11
REMARK    4  A    between atoms: S_11  and  C_14
REMARK    5  A    between atoms: C_16  and  C_19
REMARK                            x       y       z     vdW  Elec       q    Type
REMARK                         _______ _______ _______ _____ _____    ______ ____
ROOT
ATOM      1  N   UNL     1       1.193   1.683  -0.000  0.00  0.00    -0.107 NA
ATOM      2  H   UNL     1       1.356   2.349  -0.686  0.00  0.00    +0.172 HD
ENDROOT
BRANCH   1   5
ATOM      3  C   UNL     1      -1.187   1.624   0.017  0.00  0.00    +0.259 C 
ATOM      4  O   UNL     1      -1.204   2.839   0.023  0.00  0.00    -0.269 OA
ATOM      5  N   UNL     1      -0.011   0.966   0.007  0.00  0.00    -0.228 N 
ATOM      6  H   UNL     1       0.002  -0.004   0.002  0.00  0.00    +0.171 HD
BRANCH   3  12
ATOM      7  C   UNL     1      -2.442  -0.528   0.005  0.00  0.00    +0.014 A 
ATOM      8  C   UNL     1      -3.630  -1.229   0.013  0.00  0.00    +0.016 A 
ATOM      9  C   UNL     1      -4.837  -0.550   0.022  0.00  0.00    +0.018 A 
ATOM     10  C   UNL     1      -4.859   0.835   0.030  0.00  0.00    +0.016 A 
ATOM     11  C   UNL     1      -3.677   1.546   0.028  0.00  0.00    +0.014 A 
ATOM     12  C   UNL     1      -2.457   0.868   0.018  0.00  0.00    +0.038 A 
ATOM     13 BR   UNL     1      -6.461  -1.517   0.025  0.00  0.00    -0.050 Br
ENDBRANCH   3  12
ENDBRANCH   1   5
BRANCH   1  14
ATOM     14  S   UNL     1       2.336   1.393   1.162  0.00  0.00    +0.080 S 
ATOM     15  O   UNL     1       3.480   2.157   0.805  0.00  0.00    -0.151 OA
ATOM     16  O   UNL     1       1.685   1.538   2.417  0.00  0.00    -0.151 OA
BRANCH  14  17
ATOM     17  C   UNL     1       2.799  -0.301   1.027  0.00  0.00    +0.145 A 
ATOM     18  C   UNL     1       3.776  -0.845   0.275  0.00  0.00    +0.051 A 
ATOM     19  C   UNL     1       3.946  -2.274   0.354  0.00  0.00    +0.072 A 
ATOM     20  C   UNL     1       3.086  -2.963   1.185  0.00  0.00    +0.062 A 
ATOM     21  S   UNL     1       2.085  -1.713   1.844  0.00  0.00    -0.076 S 
BRANCH  19  22
ATOM     22  C   UNL     1       4.986  -2.968  -0.420  0.00  0.00    +0.387 C 
ATOM     23  O   UNL     1       5.729  -2.335  -1.144  0.00  0.00    -0.241 OA
ATOM     24  O   UNL     1       5.114  -4.307  -0.328  0.00  0.00    -0.241 OA
ENDBRANCH  19  22
ENDBRANCH  14  17
ENDBRANCH   1  14
TORSDOF 5
