REMARK  Name = ZINC03444651
REMARK  2 active torsions:
REMARK  status: ('A' for Active; 'I' for Inactive)
REMARK    1  A    between atoms: C_1  and  C_2
REMARK    2  A    between atoms: C_2  and  N_3
REMARK                            x       y       z     vdW  Elec       q    Type
REMARK                         _______ _______ _______ _____ _____    ______ ____
ROOT
ATOM      1  N   UNL     1      -1.054  -0.897   0.007  0.00  0.00    -0.266 N 
ATOM      2  C   UNL     1       0.002  -0.004   0.002  0.00  0.00    +0.045 A 
ATOM      3  C   UNL     1      -0.017   1.392   0.010  0.00  0.00    +0.024 A 
ATOM      4  C   UNL     1       1.207   2.042   0.002  0.00  0.00    +0.002 A 
ATOM      5  C   UNL     1       2.402   1.351  -0.014  0.00  0.00    +0.001 A 
ATOM      6  C   UNL     1       2.434  -0.039  -0.023  0.00  0.00    +0.011 A 
ATOM      7  C   UNL     1       1.221  -0.693  -0.014  0.00  0.00    +0.043 A 
ATOM      8  C   UNL     1       0.880  -2.150  -0.019  0.00  0.00    +0.282 C 
ATOM      9  C   UNL     1      -0.633  -2.179  -0.003  0.00  0.00    +0.286 C 
ATOM     10  O   UNL     1      -1.335  -3.169   0.001  0.00  0.00    -0.269 OA
ATOM     11  N   UNL     1       1.381  -2.801  -1.236  0.00  0.00    -0.190 NA
ATOM     12  N   UNL     1       1.020  -4.126  -1.241  0.00  0.00    -0.273 N 
ATOM     13  C   UNL     1       1.166  -4.851  -0.049  0.00  0.00    +0.083 A 
ATOM     14  C   UNL     1       1.123  -6.235  -0.052  0.00  0.00    +0.028 A 
ATOM     15  C   UNL     1       1.265  -6.930   1.135  0.00  0.00    +0.002 A 
ATOM     16  C   UNL     1       1.448  -6.246   2.322  0.00  0.00    +0.004 A 
ATOM     17  C   UNL     1       1.492  -4.864   2.332  0.00  0.00    +0.048 A 
ATOM     18  C   UNL     1       1.352  -4.162   1.148  0.00  0.00    +0.146 A 
ATOM     19  O   UNL     1       1.396  -2.801   1.140  0.00  0.00    -0.455 OA
ATOM     20  H   UNL     1       1.044  -2.331  -2.062  0.00  0.00    +0.149 HD
ATOM     21  H   UNL     1       0.675  -4.548  -2.044  0.00  0.00    +0.166 HD
ENDROOT
BRANCH   1  23
ATOM     22  C   UNL     1      -2.968  -0.352  -1.414  0.00  0.00    +0.025 C 
ATOM     23  C   UNL     1      -2.464  -0.498   0.023  0.00  0.00    +0.110 C 
ENDBRANCH   1  23
TORSDOF 1
