REMARK  Name = ZINC67332073
REMARK  8 active torsions:
REMARK  status: ('A' for Active; 'I' for Inactive)
REMARK    1  A    between atoms: C_1  and  C_2
REMARK    2  A    between atoms: C_4  and  S_24
REMARK    3  A    between atoms: C_6  and  C_7
REMARK    4  A    between atoms: N_9  and  C_10
REMARK    5  A    between atoms: C_10  and  C_11
REMARK    6  A    between atoms: N_16  and  C_17
REMARK    7  A    between atoms: C_17  and  C_18
REMARK    8  A    between atoms: S_24  and  N_27
REMARK                            x       y       z     vdW  Elec       q    Type
REMARK                         _______ _______ _______ _____ _____    ______ ____
ROOT
ATOM      1  C   UNL     1       0.030  -0.283   2.562  0.00  0.00    +0.251 C 
ATOM      2  O   UNL     1       0.015   0.910   2.805  0.00  0.00    -0.270 OA
ATOM      3  N   UNL     1       0.051  -1.176   3.571  0.00  0.00    -0.312 N 
ATOM      4  H   UNL     1       0.063  -2.126   3.378  0.00  0.00    +0.149 HD
ENDROOT
BRANCH   1  10
ATOM      5  C   UNL     1      -0.018   1.503   0.010  0.00  0.00    +0.045 C 
ATOM      6  C   UNL     1       0.002  -0.004   0.002  0.00  0.00    -0.029 A 
ATOM      7  C   UNL     1       0.007  -0.729  -1.166  0.00  0.00    +0.040 A 
ATOM      8  C   UNL     1       0.026  -2.083  -1.101  0.00  0.00    +0.143 A 
ATOM      9  S   UNL     1       0.038  -2.416   0.545  0.00  0.00    -0.064 S 
ATOM     10  C   UNL     1       0.023  -0.748   1.172  0.00  0.00    +0.079 A 
BRANCH   8  11
ATOM     11  S   UNL     1       0.035  -3.230  -2.438  0.00  0.00    +0.062 S 
ATOM     12  O   UNL     1      -0.496  -4.447  -1.933  0.00  0.00    -0.153 OA
ATOM     13  O   UNL     1      -0.531  -2.557  -3.555  0.00  0.00    -0.153 OA
BRANCH  11  14
ATOM     14  N   UNL     1       1.619  -3.527  -2.818  0.00  0.00    -0.203 NA
ATOM     15  H   UNL     1       2.328  -3.088  -2.321  0.00  0.00    +0.144 HD
ATOM     16  H   UNL     1       1.839  -4.140  -3.537  0.00  0.00    +0.144 HD
ENDBRANCH  11  14
ENDBRANCH   8  11
ENDBRANCH   1  10
BRANCH   3  17
ATOM     17  C   UNL     1       0.058  -0.711   4.961  0.00  0.00    +0.089 C 
BRANCH  17  18
ATOM     18  C   UNL     1       0.084  -1.918   5.902  0.00  0.00    -0.051 C 
ATOM     19  C   UNL     1       0.261  -1.443   7.359  0.00  0.00    -0.016 C 
ATOM     20  C   UNL     1       1.203  -2.516   7.965  0.00  0.00    -0.020 C 
ATOM     21  C   UNL     1       2.123  -2.839   6.761  0.00  0.00    -0.078 C 
ATOM     22  N   UNL     1       1.233  -2.782   5.578  0.00  0.00    +0.383 N 
ATOM     23  H   UNL     1       1.736  -2.398   4.792  0.00  0.00    -0.081 HD
BRANCH  22  24
ATOM     24  C   UNL     1       0.758  -4.133   5.247  0.00  0.00    -0.075 C 
BRANCH  24  25
ATOM     25  C   UNL     1       1.940  -4.991   4.792  0.00  0.00    -0.028 C 
ATOM     26  C   UNL     1       2.505  -4.430   3.485  0.00  0.00    +0.002 C 
ATOM     27  C   UNL     1       3.686  -5.288   3.030  0.00  0.00    +0.000 C 
ATOM     28  C   UNL     1       3.215  -6.727   2.805  0.00  0.00    +0.000 C 
ATOM     29  C   UNL     1       2.650  -7.288   4.112  0.00  0.00    +0.000 C 
ATOM     30  C   UNL     1       1.468  -6.429   4.567  0.00  0.00    +0.002 C 
ENDBRANCH  24  25
ENDBRANCH  22  24
ENDBRANCH  17  18
ENDBRANCH   3  17
TORSDOF 7
