REMARK  Name = ZINC23667569
REMARK  12 active torsions:
REMARK  status: ('A' for Active; 'I' for Inactive)
REMARK    1  A    between atoms: C_1  and  C_2
REMARK    2  A    between atoms: C_2  and  N_3
REMARK    3  A    between atoms: N_3  and  C_4
REMARK    4  A    between atoms: C_5  and  N_20
REMARK    5  A    between atoms: N_6  and  C_13
REMARK    6  A    between atoms: C_13  and  C_14
REMARK    7  A    between atoms: C_21  and  C_23
REMARK    8  A    between atoms: C_23  and  N_24
REMARK    9  A    between atoms: N_24  and  C_25
REMARK   10  A    between atoms: N_24  and  C_26
REMARK   11  A    between atoms: C_26  and  C_28
REMARK   12  A    between atoms: C_26  and  C_29
REMARK                            x       y       z     vdW  Elec       q    Type
REMARK                         _______ _______ _______ _____ _____    ______ ____
ROOT
ATOM      1  N   UNL     1       2.359   3.682   0.046  0.00  0.00    -0.266 N 
ATOM      2  C   UNL     1       2.319   5.023  -0.094  0.00  0.00    +0.203 C 
ATOM      3  O   UNL     1       1.251   5.598  -0.129  0.00  0.00    -0.277 OA
ENDROOT
BRANCH   1   4
ATOM      4  C   UNL     1       1.160   2.937   0.045  0.00  0.00    +0.140 A 
ATOM      5  C   UNL     1       0.749   2.269   1.181  0.00  0.00    +0.128 A 
ATOM      6  N   UNL     1      -0.424   1.551   1.150  0.00  0.00    -0.276 N 
ATOM      7  C   UNL     1      -1.165   1.505   0.027  0.00  0.00    +0.331 A 
ATOM      8  O   UNL     1      -2.201   0.869   0.021  0.00  0.00    -0.246 OA
ATOM      9  N   UNL     1      -0.777   2.146  -1.090  0.00  0.00    -0.273 N 
ATOM     10  H   UNL     1      -1.393   2.088  -1.999  0.00  0.00    +0.173 HD
ATOM     11  C   UNL     1       0.364   2.862  -1.113  0.00  0.00    +0.277 A 
ATOM     12  O   UNL     1       0.704   3.443  -2.130  0.00  0.00    -0.266 OA
BRANCH   5  13
ATOM     13  N   UNL     1       1.503   2.319   2.329  0.00  0.00    -0.343 N 
ATOM     14  H   UNL     1       1.169   1.784   3.230  0.00  0.00    +0.144 HD
ATOM     15  H   UNL     1       2.440   2.895   2.346  0.00  0.00    +0.144 HD
ENDBRANCH   5  13
BRANCH   6  16
ATOM     16  C   UNL     1      -0.873   0.837   2.348  0.00  0.00    +0.163 C 
BRANCH  16  17
ATOM     17  C   UNL     1      -1.743   1.746   3.177  0.00  0.00    -0.028 A 
ATOM     18  C   UNL     1      -1.177   2.544   4.153  0.00  0.00    +0.005 A 
ATOM     19  C   UNL     1      -1.974   3.381   4.911  0.00  0.00    +0.000 A 
ATOM     20  C   UNL     1      -3.340   3.412   4.700  0.00  0.00    +0.000 A 
ATOM     21  C   UNL     1      -3.908   2.610   3.727  0.00  0.00    +0.000 A 
ATOM     22  C   UNL     1      -3.109   1.777   2.966  0.00  0.00    +0.005 A 
ENDBRANCH  16  17
ENDBRANCH   6  16
ENDBRANCH   1   4
BRANCH   1  24
ATOM     23  C   UNL     1       4.247   2.732  -1.184  0.00  0.00    +0.025 C 
ATOM     24  C   UNL     1       3.646   2.998   0.197  0.00  0.00    +0.110 C 
ENDBRANCH   1  24
BRANCH   2  25
ATOM     25  C   UNL     1       3.601   5.807  -0.205  0.00  0.00    +0.020 C 
BRANCH  25  26
ATOM     26  N   UNL     1       3.291   7.236  -0.348  0.00  0.00    +0.388 N 
ATOM     27  C   UNL     1       2.607   7.502  -1.620  0.00  0.00    -0.095 C 
ATOM     28  H   UNL     1       2.608   7.516   0.468  0.00  0.00    -0.081 HD
BRANCH  26  29
ATOM     29  C   UNL     1       4.505   8.053  -0.222  0.00  0.00    -0.040 C 
ATOM     30  C   UNL     1       5.135   7.823   1.153  0.00  0.00    -0.008 C 
BRANCH  29  31
ATOM     31  C   UNL     1       4.147   9.510  -0.373  0.00  0.00    -0.058 A 
ATOM     32  C   UNL     1       4.978  10.354  -1.086  0.00  0.00    +0.005 A 
ATOM     33  C   UNL     1       4.652  11.690  -1.227  0.00  0.00    +0.041 A 
ATOM     34  C   UNL     1       3.493  12.184  -0.653  0.00  0.00    +0.158 A 
ATOM     35  C   UNL     1       2.661  11.337   0.062  0.00  0.00    +0.159 A 
ATOM     36  C   UNL     1       2.987   9.998   0.197  0.00  0.00    +0.043 A 
ATOM     37  F   UNL     1       1.529  11.816   0.623  0.00  0.00    -0.202 F 
ATOM     38  F   UNL     1       3.174  13.489  -0.790  0.00  0.00    -0.202 F 
ENDBRANCH  29  31
ENDBRANCH  26  29
ENDBRANCH  25  26
ENDBRANCH   2  25
TORSDOF 9
