REMARK  Name = ZINC20573664
REMARK  8 active torsions:
REMARK  status: ('A' for Active; 'I' for Inactive)
REMARK    1  A    between atoms: C_1  and  C_2
REMARK    2  A    between atoms: C_2  and  O_3
REMARK    3  A    between atoms: O_3  and  C_4
REMARK    4  A    between atoms: C_7  and  N_10
REMARK    5  A    between atoms: C_14  and  N_18
REMARK    6  A    between atoms: C_23  and  C_25
REMARK    7  A    between atoms: C_25  and  C_26
REMARK    8  A    between atoms: C_26  and  O_27
REMARK                            x       y       z     vdW  Elec       q    Type
REMARK                         _______ _______ _______ _____ _____    ______ ____
ROOT
ATOM      1  N   UNL     1      -0.706  -1.976  -0.536  0.00  0.00    -0.212 N 
ATOM      2  C   UNL     1      -0.221  -3.095   0.017  0.00  0.00    +0.225 C 
ATOM      3  O   UNL     1      -0.408  -4.219  -0.395  0.00  0.00    -0.275 OA
ATOM      4  C   UNL     1       0.595  -2.732   1.239  0.00  0.00    +0.091 C 
ATOM      5  C   UNL     1       0.497  -1.194   1.296  0.00  0.00    +0.029 C 
ATOM      6  C   UNL     1      -0.364  -0.849   0.101  0.00  0.00    +0.213 C 
ATOM      7  O   UNL     1      -0.692   0.271  -0.229  0.00  0.00    -0.277 OA
ENDROOT
BRANCH   5   8
ATOM      8  N   UNL     1      -0.151  -0.763   2.542  0.00  0.00    +0.390 N 
ATOM      9  C   UNL     1      -1.529  -1.266   2.619  0.00  0.00    -0.077 C 
ATOM     10  C   UNL     1      -2.218  -0.680   3.854  0.00  0.00    -0.019 C 
ATOM     11  C   UNL     1      -1.437  -1.082   5.108  0.00  0.00    -0.003 C 
ATOM     12  C   UNL     1       0.007  -0.588   4.980  0.00  0.00    -0.015 C 
ATOM     13  C   UNL     1       0.632  -1.177   3.713  0.00  0.00    -0.065 C 
ATOM     14  H   UNL     1      -0.195   0.336   2.539  0.00  0.00    -0.080 HD
BRANCH  13  15
ATOM     15  C   UNL     1       2.068  -0.670   3.571  0.00  0.00    +0.013 C 
BRANCH  15  16
ATOM     16  C   UNL     1       2.902  -1.160   4.756  0.00  0.00    +0.154 C 
BRANCH  16  17
ATOM     17  O   UNL     1       4.267  -0.782   4.567  0.00  0.00    -0.395 OA
ATOM     18  H   UNL     1       5.021  -1.050   5.322  0.00  0.00    +0.209 HD
ENDBRANCH  16  17
ENDBRANCH  15  16
ENDBRANCH  13  15
ENDBRANCH   5   8
BRANCH   1  22
ATOM     19  C   UNL     1      -3.083  -2.001  -3.965  0.00  0.00    +0.121 A 
ATOM     20  C   UNL     1      -1.849  -1.365  -3.981  0.00  0.00    +0.047 A 
ATOM     21  C   UNL     1      -1.062  -1.357  -2.846  0.00  0.00    +0.027 A 
ATOM     22  C   UNL     1      -1.505  -1.984  -1.690  0.00  0.00    +0.044 A 
ATOM     23  C   UNL     1      -2.737  -2.624  -1.676  0.00  0.00    +0.027 A 
ATOM     24  C   UNL     1      -3.526  -2.627  -2.809  0.00  0.00    +0.047 A 
BRANCH  19  25
ATOM     25  O   UNL     1      -3.857  -2.009  -5.082  0.00  0.00    -0.492 OA
BRANCH  25  27
ATOM     26  C   UNL     1      -5.840  -2.585  -6.338  0.00  0.00    +0.048 C 
ATOM     27  C   UNL     1      -5.115  -2.681  -4.994  0.00  0.00    +0.225 C 
ENDBRANCH  25  27
ENDBRANCH  19  25
ENDBRANCH   1  22
TORSDOF 7
