REMARK  Name = ZINC61698501
REMARK  5 active torsions:
REMARK  status: ('A' for Active; 'I' for Inactive)
REMARK    1  A    between atoms: C_1  and  C_2
REMARK    2  A    between atoms: C_2  and  C_4
REMARK    3  A    between atoms: C_2  and  N_20
REMARK    4  A    between atoms: C_7  and  N_11
REMARK    5  A    between atoms: N_20  and  C_21
REMARK                            x       y       z     vdW  Elec       q    Type
REMARK                         _______ _______ _______ _____ _____    ______ ____
ROOT
ATOM      1  C   UNL     1       0.707  -0.490  -1.238  0.00  0.00    -0.060 A 
ATOM      2  C   UNL     1       2.079  -0.352  -1.350  0.00  0.00    +0.004 A 
ATOM      3  C   UNL     1       2.729  -0.797  -2.485  0.00  0.00    +0.029 A 
ATOM      4  C   UNL     1       2.004  -1.383  -3.514  0.00  0.00    +0.080 A 
ATOM      5  C   UNL     1       0.626  -1.520  -3.398  0.00  0.00    +0.043 A 
ATOM      6  C   UNL     1      -0.017  -1.078  -2.258  0.00  0.00    +0.019 A 
ATOM      7 BR   UNL     1      -0.367  -2.317  -4.797  0.00  0.00    -0.048 Br
ENDROOT
BRANCH   4   8
ATOM      8  N   UNL     1       2.660  -1.835  -4.666  0.00  0.00    -0.231 N 
ATOM      9  C   UNL     1       3.785  -2.621  -4.685  0.00  0.00    +0.075 A 
ATOM     10  C   UNL     1       4.585  -3.185  -3.696  0.00  0.00    +0.028 A 
ATOM     11  C   UNL     1       5.669  -3.940  -4.045  0.00  0.00    +0.002 A 
ATOM     12  C   UNL     1       5.987  -4.154  -5.381  0.00  0.00    +0.001 A 
ATOM     13  C   UNL     1       5.221  -3.612  -6.373  0.00  0.00    +0.011 A 
ATOM     14  C   UNL     1       4.105  -2.836  -6.040  0.00  0.00    +0.020 A 
ATOM     15  C   UNL     1       3.095  -2.126  -6.818  0.00  0.00    +0.143 A 
ATOM     16  N   UNL     1       2.271  -1.562  -5.981  0.00  0.00    -0.174 NA
ENDBRANCH   4   8
BRANCH   1  18
ATOM     17  C   UNL     1      -0.201   1.510  -0.087  0.00  0.00    -0.009 C 
ATOM     18  C   UNL     1       0.002  -0.004   0.002  0.00  0.00    -0.044 C 
BRANCH  18  19
ATOM     19  N   UNL     1       0.815  -0.320   1.184  0.00  0.00    +0.382 N 
ATOM     20  C   UNL     1       0.075   0.045   2.399  0.00  0.00    -0.100 C 
ATOM     21  H   UNL     1       1.018  -1.308   1.198  0.00  0.00    -0.085 HD
ATOM     22  H   UNL     1       1.679   0.200   1.147  0.00  0.00    -0.085 HD
ENDBRANCH  18  19
ENDBRANCH   1  18
TORSDOF 3
