REMARK  Name = ZINC36988639
REMARK  5 active torsions:
REMARK  status: ('A' for Active; 'I' for Inactive)
REMARK    1  A    between atoms: C_1  and  C_2
REMARK    2  A    between atoms: C_5  and  C_7
REMARK    3  A    between atoms: C_7  and  C_9
REMARK    4  A    between atoms: C_7  and  N_10
REMARK    5  A    between atoms: N_10  and  C_11
REMARK                            x       y       z     vdW  Elec       q    Type
REMARK                         _______ _______ _______ _____ _____    ______ ____
ROOT
ATOM      1  C   UNL     1       2.553  -5.357  -1.510  0.00  0.00    +0.044 A 
ATOM      2  C   UNL     1       1.787  -6.499  -1.279  0.00  0.00    +0.027 A 
ATOM      3  C   UNL     1       2.170  -7.683  -1.884  0.00  0.00    +0.043 A 
ATOM      4  C   UNL     1       3.298  -7.694  -2.696  0.00  0.00    +0.099 A 
ATOM      5  N   UNL     1       4.002  -6.591  -2.893  0.00  0.00    -0.348 N 
ATOM      6  C   UNL     1       3.662  -5.444  -2.337  0.00  0.00    +0.107 A 
ATOM      7  N   UNL     1       3.693  -8.882  -3.310  0.00  0.00    -0.317 N 
ATOM      8  C   UNL     1       4.801  -8.893  -4.274  0.00  0.00    +0.106 C 
ATOM      9  C   UNL     1       5.825  -9.944  -3.835  0.00  0.00    +0.019 C 
ATOM     10  C   UNL     1       5.125 -11.294  -3.666  0.00  0.00    +0.003 C 
ATOM     11  C   UNL     1       4.052 -11.182  -2.580  0.00  0.00    +0.019 C 
ATOM     12  C   UNL     1       3.012 -10.146  -3.001  0.00  0.00    +0.106 C 
ATOM     13  H   UNL     1       4.786  -6.626  -3.464  0.00  0.00    +0.167 HD
ENDROOT
BRANCH   1  14
ATOM     14  N   UNL     1       2.203  -4.137  -0.919  0.00  0.00    -0.336 N 
ATOM     15  H   UNL     1       2.737  -3.346  -1.087  0.00  0.00    +0.147 HD
BRANCH  14  16
ATOM     16  C   UNL     1       1.028  -4.056  -0.047  0.00  0.00    +0.104 C 
ATOM     17  C   UNL     1       1.420  -4.465   1.375  0.00  0.00    +0.033 C 
BRANCH  16  22
ATOM     18  C   UNL     1       0.020   1.518   0.006  0.00  0.00    +0.051 C 
ATOM     19  C   UNL     1       0.026   0.011  -0.012  0.00  0.00    -0.013 A 
ATOM     20  C   UNL     1      -1.023  -0.847  -0.037  0.00  0.00    +0.011 A 
ATOM     21  C   UNL     1      -0.777  -2.207  -0.050  0.00  0.00    +0.013 A 
ATOM     22  C   UNL     1       0.506  -2.643  -0.037  0.00  0.00    +0.010 A 
ATOM     23  S   UNL     1       1.417  -1.108  -0.012  0.00  0.00    -0.097 S 
ENDBRANCH  16  22
ENDBRANCH  14  16
ENDBRANCH   1  14
TORSDOF 3
