REMARK  Name = ZINC13453551
REMARK  7 active torsions:
REMARK  status: ('A' for Active; 'I' for Inactive)
REMARK    1  A    between atoms: C_1  and  C_2
REMARK    2  A    between atoms: C_3  and  N_15
REMARK    3  A    between atoms: C_4  and  C_7
REMARK    4  A    between atoms: N_15  and  CA_16
REMARK    5  A    between atoms: CA_23  and  C_29
REMARK    6  A    between atoms: C_25  and  C_27
REMARK    7  A    between atoms: C_25  and  C_28
REMARK                            x       y       z     vdW  Elec       q    Type
REMARK                         _______ _______ _______ _____ _____    ______ ____
ROOT
ATOM      1  N   UNL     1       1.018   1.848   2.369  0.00  0.00    -0.326 N 
ATOM      2  H   UNL     1       1.316   0.885   2.333  0.00  0.00    +0.147 HD
ENDROOT
BRANCH   1   3
ATOM      3  CA  UNL     1       1.958   2.718   1.650  0.00  0.00    +0.188 C 
ATOM      4  C   UNL     1       3.405   2.225   1.711  0.00  0.00    +0.164 C 
ATOM      5  N   UNL     1       3.646   3.501   2.417  0.00  0.00    -0.271 N 
ATOM      6  C   UNL     1       2.365   3.937   2.440  0.00  0.00    +0.240 C 
ATOM      7  O   UNL     1       1.788   4.900   2.901  0.00  0.00    -0.273 OA
ATOM      8  CA  UNL     1       4.673   4.359   1.820  0.00  0.00    +0.206 C 
ATOM      9  C   UNL     1       4.601   4.267   0.266  0.00  0.00    +0.042 C 
ATOM     10  S   UNL     1       4.312   2.446   0.123  0.00  0.00    -0.127 S 
ATOM     11  C   UNL     1       3.426   5.070  -0.293  0.00  0.00    +0.025 C 
ATOM     12  C   UNL     1       5.922   4.682  -0.385  0.00  0.00    +0.025 C 
BRANCH   8  13
ATOM     13  C   UNL     1       4.444   5.785   2.248  0.00  0.00    +0.377 C 
ATOM     14  O   UNL     1       3.342   6.272   2.165  0.00  0.00    -0.244 OA
ATOM     15  OXT UNL     1       5.466   6.515   2.723  0.00  0.00    -0.244 OA
ENDBRANCH   8  13
ENDBRANCH   1   3
BRANCH   1  18
ATOM     16  C   UNL     1       0.089   1.287  -0.568  0.00  0.00    +0.091 C 
ATOM     17  C   UNL     1      -0.733   1.759   0.604  0.00  0.00    +0.156 A 
ATOM     18  C   UNL     1      -0.286   1.991   1.865  0.00  0.00    +0.098 A 
ATOM     19  C   UNL     1      -1.498   2.427   2.575  0.00  0.00    +0.137 A 
ATOM     20  N   UNL     1      -2.455   2.395   1.679  0.00  0.00    -0.076 NA
ATOM     21  O   UNL     1      -2.046   2.037   0.600  0.00  0.00    -0.357 OA
BRANCH  19  22
ATOM     22  C   UNL     1      -1.614   2.818   4.001  0.00  0.00    +0.042 A 
ATOM     23  C   UNL     1      -1.111   1.983   4.999  0.00  0.00    +0.052 A 
ATOM     24  C   UNL     1      -1.218   2.355   6.325  0.00  0.00    +0.021 A 
ATOM     25  C   UNL     1      -1.831   3.547   6.665  0.00  0.00    +0.003 A 
ATOM     26  C   UNL     1      -2.336   4.377   5.680  0.00  0.00    +0.021 A 
ATOM     27  C   UNL     1      -2.231   4.019   4.350  0.00  0.00    +0.052 A 
ATOM     28 CL   UNL     1      -2.865   5.061   3.116  0.00  0.00    -0.083 Cl
ATOM     29 CL   UNL     1      -0.347   0.483   4.575  0.00  0.00    -0.083 Cl
ENDBRANCH  19  22
ENDBRANCH   1  18
TORSDOF 4
