REMARK  Name = ZINC62888703
REMARK  4 active torsions:
REMARK  status: ('A' for Active; 'I' for Inactive)
REMARK    1  A    between atoms: C_1  and  C_2
REMARK    2  A    between atoms: C_2  and  C_7
REMARK    3  A    between atoms: N_9  and  C_10
REMARK    4  A    between atoms: N_9  and  C_16
REMARK                            x       y       z     vdW  Elec       q    Type
REMARK                         _______ _______ _______ _____ _____    ______ ____
ROOT
ATOM      1  C   UNL     1       0.604  -0.561  -1.351  0.00  0.00    +0.220 C 
ATOM      2  O   UNL     1      -0.208  -0.523  -0.451  0.00  0.00    -0.275 OA
ATOM      3  N   UNL     1       0.238  -0.222  -2.603  0.00  0.00    -0.295 N 
ENDROOT
BRANCH   1   5
ATOM      4  C   UNL     1       2.291  -2.365  -1.681  0.00  0.00    +0.019 C 
ATOM      5  C   UNL     1       2.021  -0.989  -1.070  0.00  0.00    +0.028 C 
ATOM      6  C   UNL     1       3.018   0.052  -1.630  0.00  0.00    -0.005 C 
ATOM      7  C   UNL     1       3.346   0.920  -0.390  0.00  0.00    -0.082 C 
ATOM      8  N   UNL     1       3.382  -0.069   0.718  0.00  0.00    +0.380 N 
ATOM      9  C   UNL     1       2.280  -1.017   0.448  0.00  0.00    -0.067 C 
ATOM     10  H   UNL     1       4.267  -0.555   0.722  0.00  0.00    -0.086 HD
ATOM     11  H   UNL     1       3.234   0.394   1.602  0.00  0.00    -0.086 HD
ENDBRANCH   1   5
BRANCH   3  12
ATOM     12  C   UNL     1      -0.718   0.868  -2.817  0.00  0.00    +0.076 C 
ATOM     13  C   UNL     1      -2.082   0.468  -2.252  0.00  0.00    +0.022 C 
ATOM     14  C   UNL     1      -3.080   1.606  -2.475  0.00  0.00    +0.002 C 
ATOM     15  C   UNL     1      -2.583   2.867  -1.765  0.00  0.00    +0.000 C 
ATOM     16  C   UNL     1      -1.219   3.266  -2.330  0.00  0.00    +0.002 C 
ATOM     17  C   UNL     1      -0.221   2.128  -2.107  0.00  0.00    +0.022 C 
ENDBRANCH   3  12
BRANCH   3  18
ATOM     18  C   UNL     1       0.795  -0.943  -3.750  0.00  0.00    +0.076 C 
ATOM     19  C   UNL     1       0.488  -2.436  -3.613  0.00  0.00    +0.022 C 
ATOM     20  C   UNL     1       1.070  -3.189  -4.811  0.00  0.00    +0.002 C 
ATOM     21  C   UNL     1       2.586  -2.982  -4.855  0.00  0.00    +0.000 C 
ATOM     22  C   UNL     1       2.893  -1.490  -4.992  0.00  0.00    +0.002 C 
ATOM     23  C   UNL     1       2.311  -0.737  -3.795  0.00  0.00    +0.022 C 
ENDBRANCH   3  18
TORSDOF 3
