REMARK  Name = ZINC41638067
REMARK  9 active torsions:
REMARK  status: ('A' for Active; 'I' for Inactive)
REMARK    1  A    between atoms: C_1  and  C_2
REMARK    2  A    between atoms: C_4  and  C_24
REMARK    3  A    between atoms: C_7  and  N_8
REMARK    4  A    between atoms: C_9  and  C_11
REMARK    5  A    between atoms: N_13  and  C_14
REMARK    6  A    between atoms: C_14  and  C_15
REMARK    7  A    between atoms: N_21  and  C_22
REMARK    8  A    between atoms: N_21  and  C_23
REMARK    9  A    between atoms: N_26  and  C_27
REMARK                            x       y       z     vdW  Elec       q    Type
REMARK                         _______ _______ _______ _____ _____    ______ ____
ROOT
ATOM      1  N   UNL     1       0.024  -0.009   2.414  0.00  0.00    -0.278 N 
ATOM      2  C   UNL     1      -0.058  -0.685   3.577  0.00  0.00    +0.303 C 
ATOM      3  O   UNL     1      -0.041  -1.899   3.576  0.00  0.00    -0.265 OA
ATOM      4  H   UNL     1       0.077   0.959   2.419  0.00  0.00    +0.155 HD
ENDROOT
BRANCH   1  11
ATOM      5  C   UNL     1      -1.271   1.188   0.186  0.00  0.00    +0.045 C 
ATOM      6  C   UNL     1      -0.590  -0.153   0.087  0.00  0.00    -0.029 A 
ATOM      7  C   UNL     1      -0.580  -0.833  -1.110  0.00  0.00    +0.018 A 
ATOM      8  C   UNL     1       0.052  -2.076  -1.201  0.00  0.00    +0.037 A 
ATOM      9  C   UNL     1       0.671  -2.626  -0.075  0.00  0.00    +0.015 A 
ATOM     10  C   UNL     1       0.657  -1.942   1.119  0.00  0.00    +0.024 A 
ATOM     11  C   UNL     1       0.032  -0.701   1.205  0.00  0.00    +0.037 A 
BRANCH   8  12
ATOM     12  C   UNL     1       0.065  -2.807  -2.483  0.00  0.00    +0.244 C 
ATOM     13  O   UNL     1      -0.474  -2.327  -3.462  0.00  0.00    -0.270 OA
ATOM     14  N   UNL     1       0.675  -4.006  -2.569  0.00  0.00    -0.314 N 
ATOM     15  C   UNL     1       0.687  -4.731  -3.842  0.00  0.00    +0.128 C 
ATOM     16  H   UNL     1       1.105  -4.388  -1.789  0.00  0.00    +0.149 HD
ENDBRANCH   8  12
ENDBRANCH   1  11
BRANCH   2  17
ATOM     17  C   UNL     1      -0.169   0.059   4.867  0.00  0.00    +0.300 C 
ATOM     18  O   UNL     1      -0.185   1.272   4.868  0.00  0.00    -0.265 OA
ATOM     19  N   UNL     1      -0.250  -0.617   6.030  0.00  0.00    -0.303 N 
ATOM     20  H   UNL     1      -0.236  -1.587   6.029  0.00  0.00    +0.149 HD
BRANCH  19  21
ATOM     21  C   UNL     1      -0.359   0.113   7.296  0.00  0.00    +0.141 C 
BRANCH  21  22
ATOM     22  C   UNL     1      -0.434  -0.869   8.437  0.00  0.00    -0.014 A 
ATOM     23  C   UNL     1      -1.664  -1.346   8.871  0.00  0.00    +0.010 A 
ATOM     24  C   UNL     1      -1.689  -2.246   9.921  0.00  0.00    +0.042 A 
ATOM     25  C   UNL     1      -0.489  -2.639  10.504  0.00  0.00    +0.098 A 
ATOM     26  N   UNL     1       0.664  -2.161  10.062  0.00  0.00    -0.349 N 
ATOM     27  C   UNL     1       0.718  -1.306   9.057  0.00  0.00    +0.089 A 
ATOM     28  N   UNL     1      -0.499  -3.542  11.561  0.00  0.00    -0.323 N 
ATOM     29  C   UNL     1      -1.759  -4.159  11.985  0.00  0.00    +0.130 C 
ATOM     30  C   UNL     1       0.749  -3.877  12.251  0.00  0.00    +0.130 C 
ATOM     31  H   UNL     1       1.489  -2.449  10.483  0.00  0.00    +0.167 HD
ENDBRANCH  21  22
ENDBRANCH  19  21
ENDBRANCH   2  17
TORSDOF 5
