REMARK  Name = ZINC50830576
REMARK  9 active torsions:
REMARK  status: ('A' for Active; 'I' for Inactive)
REMARK    1  A    between atoms: C_1  and  C_2
REMARK    2  A    between atoms: C_6  and  C_19
REMARK    3  A    between atoms: C_7  and  O_8
REMARK    4  A    between atoms: O_8  and  C_9
REMARK    5  A    between atoms: C_9  and  C_10
REMARK    6  A    between atoms: C_11  and  C_18
REMARK    7  A    between atoms: N_13  and  C_17
REMARK    8  A    between atoms: C_14  and  N_15
REMARK    9  A    between atoms: N_15  and  C_16
REMARK                            x       y       z     vdW  Elec       q    Type
REMARK                         _______ _______ _______ _____ _____    ______ ____
ROOT
ATOM      1  C   UNL     1      -1.200   0.357   2.878  0.00  0.00    +0.269 C 
ENDROOT
BRANCH   1   2
ATOM      2  C   UNL     1      -0.827   1.028   4.175  0.00  0.00    +0.049 A 
ATOM      3  C   UNL     1      -0.737   0.410   5.426  0.00  0.00    +0.039 A 
ATOM      4  N   UNL     1      -0.388   1.313   6.306  0.00  0.00    -0.300 N 
ATOM      5  N   UNL     1      -0.242   2.540   5.647  0.00  0.00    -0.276 N 
ATOM      6  C   UNL     1      -0.512   2.342   4.336  0.00  0.00    +0.121 A 
ATOM      7  C   UNL     1       0.140   3.811   6.266  0.00  0.00    +0.172 C 
ATOM      8  C   UNL     1      -0.999  -1.046   5.711  0.00  0.00    +0.065 C 
ATOM      9  H   UNL     1      -0.253   1.158   7.254  0.00  0.00    +0.187 HD
BRANCH   6  10
ATOM     10  N   UNL     1      -0.476   3.309   3.335  0.00  0.00    -0.332 N 
ATOM     11  C   UNL     1      -0.175   4.702   3.671  0.00  0.00    +0.127 C 
ATOM     12  H   UNL     1      -0.651   3.059   2.414  0.00  0.00    +0.147 HD
ENDBRANCH   6  10
ENDBRANCH   1   2
BRANCH   1  13
ATOM     13  O   UNL     1      -0.021  -0.139   2.242  0.00  0.00    -0.487 OA
BRANCH  13  20
ATOM     14  C   UNL     1       0.090   1.433  -0.103  0.00  0.00    +0.047 C 
ATOM     15  C   UNL     1      -0.138  -0.057  -0.133  0.00  0.00    -0.007 A 
ATOM     16  C   UNL     1      -0.297  -0.707  -1.341  0.00  0.00    +0.027 A 
ATOM     17  C   UNL     1      -0.506  -2.075  -1.369  0.00  0.00    +0.042 A 
ATOM     18  C   UNL     1      -0.557  -2.793  -0.188  0.00  0.00    +0.027 A 
ATOM     19  C   UNL     1      -0.399  -2.146   1.022  0.00  0.00    -0.007 A 
ATOM     20  C   UNL     1      -0.183  -0.776   1.052  0.00  0.00    +0.127 A 
ATOM     21  C   UNL     1      -0.455  -2.929   2.309  0.00  0.00    +0.047 C 
ATOM     22 CL   UNL     1      -0.707  -2.890  -2.889  0.00  0.00    -0.084 Cl
ENDBRANCH  13  20
ENDBRANCH   1  13
TORSDOF 4
