REMARK  Name = ZINC16808503
REMARK  1 active torsions:
REMARK  status: ('A' for Active; 'I' for Inactive)
REMARK    1  A    between atoms: C_1  and  C_2
REMARK                            x       y       z     vdW  Elec       q    Type
REMARK                         _______ _______ _______ _____ _____    ______ ____
ROOT
ATOM      1  C   UNL     1      -5.079   0.030   0.049  0.00  0.00    +0.066 C 
ATOM      2  C   UNL     1      -4.928   1.530   0.056  0.00  0.00    +0.047 A 
ATOM      3  C   UNL     1      -6.037   2.326   0.071  0.00  0.00    +0.093 A 
ATOM      4  C   UNL     1      -5.871   3.722   0.077  0.00  0.00    +0.253 A 
ATOM      5  O   UNL     1      -6.840   4.463   0.091  0.00  0.00    -0.268 OA
ATOM      6  N   UNL     1      -4.618   4.227   0.073  0.00  0.00    -0.295 N 
ATOM      7  H   UNL     1      -4.480   5.187   0.081  0.00  0.00    +0.172 HD
ATOM      8  C   UNL     1      -3.550   3.383   0.053  0.00  0.00    +0.202 A 
ATOM      9  N   UNL     1      -3.714   2.076   0.047  0.00  0.00    -0.221 NA
ATOM     10  N   UNL     1      -2.281   3.903   0.044  0.00  0.00    -0.264 N 
ATOM     11  C   UNL     1      -1.183   3.054   0.029  0.00  0.00    +0.164 A 
ATOM     12  N   UNL     1      -1.155   1.735   0.017  0.00  0.00    -0.233 NA
ATOM     13  C   UNL     1      -0.013   1.076   0.008  0.00  0.00    +0.120 A 
ATOM     14  C   UNL     1       1.142   1.785   0.001  0.00  0.00    +0.068 A 
ATOM     15  S   UNL     1       0.507   3.455   0.015  0.00  0.00    -0.061 S 
ATOM     16  H   UNL     1      -2.151   4.865   0.048  0.00  0.00    +0.157 HD
ENDROOT
TORSDOF 0
