REMARK  Name = ZINC43209738
REMARK  12 active torsions:
REMARK  status: ('A' for Active; 'I' for Inactive)
REMARK    1  A    between atoms: C_1  and  C_2
REMARK    2  A    between atoms: C_2  and  C_4
REMARK    3  A    between atoms: C_2  and  O_29
REMARK    4  A    between atoms: C_4  and  C_6
REMARK    5  A    between atoms: C_4  and  N_28
REMARK    6  A    between atoms: C_8  and  C_11
REMARK    7  A    between atoms: N_13  and  C_14
REMARK    8  A    between atoms: C_14  and  C_16
REMARK    9  A    between atoms: C_14  and  C_24
REMARK   10  A    between atoms: C_16  and  C_17
REMARK   11  A    between atoms: C_24  and  O_26
REMARK   12  A    between atoms: O_26  and  C_27
REMARK                            x       y       z     vdW  Elec       q    Type
REMARK                         _______ _______ _______ _____ _____    ______ ____
ROOT
ATOM      1  C   UNL     1      -0.281  -5.275   2.312  0.00  0.00    +0.266 C 
ATOM      2  O   UNL     1       0.073  -6.385   1.962  0.00  0.00    -0.268 OA
ATOM      3  N   UNL     1      -1.224  -5.137   3.264  0.00  0.00    -0.297 N 
ATOM      4  H   UNL     1      -1.506  -4.252   3.542  0.00  0.00    +0.150 HD
ENDROOT
BRANCH   1   7
ATOM      5  C   UNL     1       0.762  -2.018   1.233  0.00  0.00    +0.184 A 
ATOM      6  N   UNL     1       0.027  -2.784   1.982  0.00  0.00    -0.210 NA
ATOM      7  C   UNL     1       0.323  -4.081   1.693  0.00  0.00    +0.163 A 
ATOM      8  C   UNL     1       1.280  -4.067   0.726  0.00  0.00    +0.230 A 
ATOM      9  O   UNL     1       1.538  -2.779   0.449  0.00  0.00    -0.449 OA
BRANCH   5  10
ATOM     10  C   UNL     1       0.742  -0.511   1.242  0.00  0.00    +0.042 C 
BRANCH  10  11
ATOM     11  N   UNL     1       2.120  -0.002   1.231  0.00  0.00    +0.387 N 
ATOM     12  H   UNL     1       2.107   1.006   1.237  0.00  0.00    -0.089 HD
ATOM     13  H   UNL     1       2.608  -0.337   2.049  0.00  0.00    -0.089 HD
ATOM     14  H   UNL     1       2.592  -0.328   0.401  0.00  0.00    -0.089 HD
ENDBRANCH  10  11
BRANCH  10  16
ATOM     15  C   UNL     1      -0.019   1.526   0.010  0.00  0.00    +0.036 C 
ATOM     16  C   UNL     1       0.002  -0.004   0.002  0.00  0.00    +0.106 C 
BRANCH  16  17
ATOM     17  O   UNL     1      -1.339  -0.499   0.012  0.00  0.00    -0.393 OA
ATOM     18  H   UNL     1      -1.868  -0.216  -0.746  0.00  0.00    +0.210 HD
ENDBRANCH  16  17
ENDBRANCH  10  16
ENDBRANCH   5  10
ENDBRANCH   1   7
BRANCH   3  19
ATOM     19  C   UNL     1      -1.823  -6.324   3.879  0.00  0.00    +0.186 C 
BRANCH  19  20
ATOM     20  C   UNL     1      -0.952  -6.796   5.014  0.00  0.00    +0.328 C 
ATOM     21  O   UNL     1       0.065  -6.202   5.282  0.00  0.00    -0.249 OA
BRANCH  20  22
ATOM     22  O   UNL     1      -1.306  -7.877   5.728  0.00  0.00    -0.467 OA
ATOM     23  C   UNL     1      -0.433  -8.267   6.789  0.00  0.00    +0.280 C 
ENDBRANCH  20  22
ENDBRANCH  19  20
BRANCH  19  24
ATOM     24  C   UNL     1      -3.213  -5.974   4.414  0.00  0.00    +0.069 C 
BRANCH  24  25
ATOM     25  C   UNL     1      -4.120  -5.620   3.264  0.00  0.00    -0.045 A 
ATOM     26  C   UNL     1      -4.206  -4.311   2.829  0.00  0.00    +0.005 A 
ATOM     27  C   UNL     1      -5.037  -3.985   1.774  0.00  0.00    +0.020 A 
ATOM     28  C   UNL     1      -5.784  -4.970   1.153  0.00  0.00    +0.041 A 
ATOM     29  C   UNL     1      -5.698  -6.281   1.589  0.00  0.00    +0.020 A 
ATOM     30  C   UNL     1      -4.862  -6.606   2.640  0.00  0.00    +0.005 A 
ATOM     31 CL   UNL     1      -6.829  -4.562  -0.172  0.00  0.00    -0.084 Cl
ENDBRANCH  24  25
ENDBRANCH  19  24
ENDBRANCH   3  19
TORSDOF 10
