REMARK  Name = ZINC52517710
REMARK  11 active torsions:
REMARK  status: ('A' for Active; 'I' for Inactive)
REMARK    1  A    between atoms: C_1  and  C_2
REMARK    2  A    between atoms: C_2  and  C_4
REMARK    3  A    between atoms: C_2  and  N_12
REMARK    4  A    between atoms: C_4  and  C_5
REMARK    5  A    between atoms: C_5  and  C_6
REMARK    6  A    between atoms: C_6  and  N_7
REMARK    7  A    between atoms: N_7  and  C_8
REMARK    8  A    between atoms: C_8  and  C_9
REMARK    9  A    between atoms: C_8  and  C_10
REMARK   10  A    between atoms: C_8  and  C_11
REMARK   11  A    between atoms: C_16  and  C_18
REMARK                            x       y       z     vdW  Elec       q    Type
REMARK                         _______ _______ _______ _____ _____    ______ ____
ROOT
ATOM      1  C   UNL     1      -0.176   2.278   0.950  0.00  0.00    -0.013 C 
ATOM      2  C   UNL     1      -0.105   0.790   0.601  0.00  0.00    -0.071 C 
ENDROOT
BRANCH   2   3
ATOM      3  N   UNL     1       0.724   0.093   1.593  0.00  0.00    +0.383 N 
ATOM      4  C   UNL     1       0.545   0.720   2.920  0.00  0.00    -0.078 C 
ATOM      5  C   UNL     1       1.942   0.646   3.584  0.00  0.00    -0.020 C 
ATOM      6  C   UNL     1       2.879   0.900   2.374  0.00  0.00    -0.017 C 
ATOM      7  C   UNL     1       2.145   0.196   1.213  0.00  0.00    -0.065 C 
ATOM      8  H   UNL     1       0.455  -0.878   1.639  0.00  0.00    -0.081 HD
BRANCH   7   9
ATOM      9  C   UNL     1       2.283   1.023  -0.067  0.00  0.00    -0.025 C 
ATOM     10  C   UNL     1       2.015   0.136  -1.300  0.00  0.00    +0.002 C 
ATOM     11  C   UNL     1       3.021   0.648  -2.362  0.00  0.00    +0.000 C 
ATOM     12  C   UNL     1       4.282   0.956  -1.518  0.00  0.00    +0.000 C 
ATOM     13  C   UNL     1       3.724   1.544  -0.205  0.00  0.00    +0.002 C 
ENDBRANCH   7   9
ENDBRANCH   2   3
BRANCH   2  14
ATOM     14  C   UNL     1      -1.515   0.197   0.607  0.00  0.00    -0.017 C 
BRANCH  14  15
ATOM     15  C   UNL     1      -1.462  -1.249   0.109  0.00  0.00    -0.021 C 
BRANCH  15  16
ATOM     16  C   UNL     1      -2.855  -1.874   0.209  0.00  0.00    -0.082 C 
BRANCH  16  17
ATOM     17  N   UNL     1      -2.782  -3.295  -0.155  0.00  0.00    +0.382 N 
ATOM     18  H   UNL     1      -2.374  -3.386  -1.074  0.00  0.00    -0.085 HD
ATOM     19  H   UNL     1      -2.210  -3.786   0.516  0.00  0.00    -0.085 HD
BRANCH  17  20
ATOM     20  C   UNL     1      -4.134  -3.870  -0.160  0.00  0.00    -0.077 C 
ATOM     21  C   UNL     1      -5.000  -3.126  -1.178  0.00  0.00    -0.011 C 
ATOM     22  C   UNL     1      -4.057  -5.350  -0.540  0.00  0.00    -0.011 C 
ATOM     23  C   UNL     1      -4.751  -3.732   1.233  0.00  0.00    -0.011 C 
ENDBRANCH  17  20
ENDBRANCH  16  17
ENDBRANCH  15  16
ENDBRANCH  14  15
ENDBRANCH   2  14
TORSDOF 7
