REMARK  Name = ZINC02366191
REMARK  7 active torsions:
REMARK  status: ('A' for Active; 'I' for Inactive)
REMARK    1  A    between atoms: C_1  and  C_2
REMARK    2  A    between atoms: C_5  and  N_9
REMARK    3  A    between atoms: C_10  and  C_12
REMARK    4  A    between atoms: C_12  and  S_13
REMARK    5  A    between atoms: S_13  and  C_14
REMARK    6  A    between atoms: C_17  and  C_20
REMARK    7  A    between atoms: N_18  and  N_19
REMARK                            x       y       z     vdW  Elec       q    Type
REMARK                         _______ _______ _______ _____ _____    ______ ____
ROOT
ATOM      1  C   UNL     1       1.677   2.222  -0.155  0.00  0.00    +0.209 A 
ATOM      2  N   UNL     1       2.592   1.296   0.027  0.00  0.00    -0.121 NA
ATOM      3  N   UNL     1       3.759   1.833   0.072  0.00  0.00    -0.127 NA
ATOM      4  C   UNL     1       3.660   3.134  -0.071  0.00  0.00    +0.182 A 
ATOM      5  N   UNL     1       2.323   3.423  -0.221  0.00  0.00    -0.224 N 
ENDROOT
BRANCH   4   6
ATOM      6  C   UNL     1       4.774   4.106  -0.070  0.00  0.00    +0.021 A 
ATOM      7  C   UNL     1       6.086   3.667  -0.260  0.00  0.00    +0.013 A 
ATOM      8  C   UNL     1       7.121   4.579  -0.265  0.00  0.00    +0.021 A 
ATOM      9  C   UNL     1       6.862   5.925  -0.069  0.00  0.00    +0.041 A 
ATOM     10  C   UNL     1       5.563   6.365   0.126  0.00  0.00    +0.021 A 
ATOM     11  C   UNL     1       4.519   5.464   0.127  0.00  0.00    +0.013 A 
ATOM     12 CL   UNL     1       8.171   7.066  -0.068  0.00  0.00    -0.084 Cl
ENDBRANCH   4   6
BRANCH   5  13
ATOM     13  N   UNL     1       1.760   4.655  -0.398  0.00  0.00    -0.295 N 
ATOM     14  H   UNL     1       1.611   5.115   0.488  0.00  0.00    +0.163 HD
ATOM     15  H   UNL     1       2.322   5.225  -1.012  0.00  0.00    +0.163 HD
ENDBRANCH   5  13
BRANCH   1  16
ATOM     16  S   UNL     1      -0.061   1.962  -0.285  0.00  0.00    -0.075 S 
BRANCH  16  17
ATOM     17  C   UNL     1      -0.124   0.162  -0.106  0.00  0.00    +0.173 C 
BRANCH  17  19
ATOM     18  N   UNL     1      -1.847  -1.613  -0.078  0.00  0.00    -0.284 N 
ATOM     19  C   UNL     1      -1.556  -0.302  -0.187  0.00  0.00    +0.228 C 
ATOM     20  O   UNL     1      -2.446   0.506  -0.349  0.00  0.00    -0.275 OA
ATOM     21  H   UNL     1      -1.131  -2.266  -0.021  0.00  0.00    +0.155 HD
BRANCH  18  26
ATOM     22  C   UNL     1      -7.257  -3.318   0.040  0.00  0.00    +0.044 C 
ATOM     23  C   UNL     1      -5.820  -2.866   0.009  0.00  0.00    -0.049 A 
ATOM     24  C   UNL     1      -5.459  -1.768  -0.751  0.00  0.00    +0.005 A 
ATOM     25  C   UNL     1      -4.143  -1.350  -0.782  0.00  0.00    +0.024 A 
ATOM     26  C   UNL     1      -3.181  -2.034  -0.049  0.00  0.00    +0.047 A 
ATOM     27  C   UNL     1      -3.546  -3.140   0.709  0.00  0.00    +0.039 A 
ATOM     28  C   UNL     1      -4.866  -3.549   0.739  0.00  0.00    +0.020 A 
ATOM     29 BR   UNL     1      -2.240  -4.079   1.703  0.00  0.00    -0.048 Br
ENDBRANCH  18  26
ENDBRANCH  17  19
ENDBRANCH  16  17
ENDBRANCH   1  16
TORSDOF 6
