REMARK  Name = ZINC04410283
REMARK  8 active torsions:
REMARK  status: ('A' for Active; 'I' for Inactive)
REMARK    1  A    between atoms: C_1  and  O_2
REMARK    2  A    between atoms: O_2  and  C_3
REMARK    3  A    between atoms: C_6  and  C_13
REMARK    4  A    between atoms: C_7  and  O_11
REMARK    5  A    between atoms: C_8  and  O_9
REMARK    6  A    between atoms: O_9  and  C_10
REMARK    7  A    between atoms: O_11  and  C_12
REMARK    8  A    between atoms: C_21  and  O_24
REMARK                            x       y       z     vdW  Elec       q    Type
REMARK                         _______ _______ _______ _____ _____    ______ ____
ROOT
ATOM      1  C   UNL     1      -2.622   1.456   2.324  0.00  0.00    -0.031 C 
ATOM      2  C   UNL     1      -1.947   0.657   1.204  0.00  0.00    +0.011 C 
ATOM      3  C   UNL     1      -0.451   0.961   1.202  0.00  0.00    +0.005 C 
ATOM      4  C   UNL     1       0.229   0.191   0.069  0.00  0.00    +0.000 C 
ATOM      5  C   UNL     1      -0.376   0.617  -1.270  0.00  0.00    +0.003 C 
ATOM      6  C   UNL     1      -1.874   0.306  -1.272  0.00  0.00    +0.035 C 
ATOM      7  C   UNL     1      -2.558   1.068  -0.138  0.00  0.00    +0.066 C 
ATOM      8  C   UNL     1      -2.364   2.573  -0.335  0.00  0.00    +0.016 C 
ATOM      9  C   UNL     1      -3.020   3.322   0.827  0.00  0.00    -0.079 C 
ATOM     10  N   UNL     1      -2.405   2.899   2.100  0.00  0.00    +0.384 N 
ATOM     11  H   UNL     1      -1.396   3.088   2.068  0.00  0.00    -0.085 HD
ATOM     12  H   UNL     1      -2.828   3.428   2.872  0.00  0.00    -0.085 HD
ENDROOT
BRANCH   1  16
ATOM     13  C   UNL     1      -0.914   0.357   6.091  0.00  0.00    +0.165 A 
ATOM     14  C   UNL     1      -0.486   1.503   5.438  0.00  0.00    +0.050 A 
ATOM     15  C   UNL     1      -1.036   1.853   4.219  0.00  0.00    +0.009 A 
ATOM     16  C   UNL     1      -2.022   1.068   3.651  0.00  0.00    -0.015 A 
ATOM     17  C   UNL     1      -2.455  -0.080   4.297  0.00  0.00    +0.167 A 
ATOM     18  C   UNL     1      -1.901  -0.438   5.520  0.00  0.00    +0.204 A 
BRANCH  13  20
ATOM     19  C   UNL     1       0.641   0.874   7.814  0.00  0.00    +0.277 C 
ATOM     20  O   UNL     1      -0.368   0.010   7.287  0.00  0.00    -0.491 OA
ENDBRANCH  13  20
BRANCH  18  21
ATOM     21  O   UNL     1      -2.323  -1.564   6.157  0.00  0.00    -0.488 OA
ATOM     22  C   UNL     1      -1.657  -2.784   5.828  0.00  0.00    +0.277 C 
ENDBRANCH  18  21
BRANCH  17  23
ATOM     23  O   UNL     1      -3.421  -0.855   3.734  0.00  0.00    -0.491 OA
ATOM     24  C   UNL     1      -4.767  -0.621   4.153  0.00  0.00    +0.277 C 
ENDBRANCH  17  23
ENDBRANCH   1  16
BRANCH   7  25
ATOM     25  O   UNL     1      -3.955   0.765  -0.137  0.00  0.00    -0.388 OA
ATOM     26  H   UNL     1      -4.409   1.004  -0.956  0.00  0.00    +0.210 HD
ENDBRANCH   7  25
TORSDOF 5
