REMARK  Name = ZINC21263357
REMARK  11 active torsions:
REMARK  status: ('A' for Active; 'I' for Inactive)
REMARK    1  A    between atoms: C_1  and  C_2
REMARK    2  A    between atoms: C_2  and  C_28
REMARK    3  A    between atoms: C_4  and  N_10
REMARK    4  A    between atoms: C_6  and  C_8
REMARK    5  A    between atoms: C_6  and  C_9
REMARK    6  A    between atoms: N_10  and  C_11
REMARK    7  A    between atoms: C_11  and  N_13
REMARK    8  A    between atoms: N_13  and  C_14
REMARK    9  A    between atoms: N_13  and  C_21
REMARK   10  A    between atoms: C_14  and  C_15
REMARK   11  A    between atoms: N_24  and  C_27
REMARK                            x       y       z     vdW  Elec       q    Type
REMARK                         _______ _______ _______ _____ _____    ______ ____
ROOT
ATOM      1  C   UNL     1       0.881   4.318  -4.048  0.00  0.00    +0.133 C 
ATOM      2  S   UNL     1      -0.076   5.471  -3.220  0.00  0.00    -0.019 S 
ENDROOT
BRANCH   1   3
ATOM      3  N   UNL     1       1.361   3.244  -3.390  0.00  0.00    -0.324 N 
ATOM      4  H   UNL     1       1.976   2.503  -3.922  0.00  0.00    +0.148 HD
BRANCH   3   8
ATOM      5  C   UNL     1      -1.794   1.140  -0.270  0.00  0.00    -0.010 C 
ATOM      6  C   UNL     1      -0.598   2.116  -0.341  0.00  0.00    -0.072 C 
ATOM      7  C   UNL     1      -0.273   2.337  -1.817  0.00  0.00    +0.009 C 
ATOM      8  C   UNL     1       1.064   3.063  -1.964  0.00  0.00    +0.069 C 
ATOM      9  C   UNL     1       2.156   2.204  -1.326  0.00  0.00    +0.009 C 
ATOM     10  C   UNL     1       1.860   1.980   0.154  0.00  0.00    -0.072 C 
ATOM     11  N   UNL     1       0.503   1.538   0.400  0.00  0.00    +0.386 N 
ATOM     12  C   UNL     1       2.175   3.260   0.939  0.00  0.00    -0.010 C 
ATOM     13  C   UNL     1       2.824   0.884   0.661  0.00  0.00    -0.010 C 
ATOM     14  C   UNL     1      -1.055   3.439   0.286  0.00  0.00    -0.010 C 
ATOM     15  H   UNL     1       0.357   1.719   1.475  0.00  0.00    -0.084 HD
ATOM     16  H   UNL     1       0.542   0.455   0.213  0.00  0.00    -0.084 HD
ENDBRANCH   3   8
ENDBRANCH   1   3
BRANCH   1  17
ATOM     17  N   UNL     1       1.154   4.484  -5.357  0.00  0.00    -0.307 N 
BRANCH  17  18
ATOM     18  C   UNL     1       0.550   5.595  -6.096  0.00  0.00    +0.072 C 
ATOM     19  C   UNL     1      -0.165   5.056  -7.338  0.00  0.00    +0.004 C 
ATOM     20  C   UNL     1      -0.740   6.227  -8.138  0.00  0.00    -0.077 C 
ATOM     21  N   UNL     1       0.346   7.134  -8.531  0.00  0.00    +0.378 N 
ATOM     22  C   UNL     1       1.016   7.702  -7.354  0.00  0.00    -0.077 C 
ATOM     23  C   UNL     1       1.644   6.575  -6.531  0.00  0.00    +0.004 C 
ATOM     24  C   UNL     1      -0.150   8.196  -9.417  0.00  0.00    -0.096 C 
ATOM     25  H   UNL     1       1.089   6.546  -9.089  0.00  0.00    -0.082 HD
ENDBRANCH  17  18
BRANCH  17  26
ATOM     26  C   UNL     1       2.055   3.553  -6.041  0.00  0.00    +0.138 C 
BRANCH  26  27
ATOM     27  C   UNL     1       1.244   2.392  -6.620  0.00  0.00    +0.136 C 
ATOM     28  C   UNL     1       2.186   1.358  -7.287  0.00  0.00    +0.035 C 
ATOM     29  C   UNL     1       1.321   0.071  -7.200  0.00  0.00    +0.031 C 
ATOM     30  C   UNL     1       0.570   0.271  -5.866  0.00  0.00    +0.160 C 
ATOM     31  O   UNL     1       0.583   1.672  -5.568  0.00  0.00    -0.375 OA
ENDBRANCH  26  27
ENDBRANCH  17  26
ENDBRANCH   1  17
TORSDOF 6
