REMARK  Name = ZINC40725520
REMARK  5 active torsions:
REMARK  status: ('A' for Active; 'I' for Inactive)
REMARK    1  A    between atoms: C_1  and  C_2
REMARK    2  A    between atoms: N_6  and  S_8
REMARK    3  A    between atoms: S_8  and  C_11
REMARK    4  A    between atoms: C_14  and  N_20
REMARK    5  A    between atoms: C_15  and  N_17
REMARK                            x       y       z     vdW  Elec       q    Type
REMARK                         _______ _______ _______ _____ _____    ______ ____
ROOT
ATOM      1  C   UNL     1       1.937  -4.215   1.313  0.00  0.00    +0.108 A 
ATOM      2  C   UNL     1       1.234  -5.002   0.419  0.00  0.00    +0.030 A 
ATOM      3  C   UNL     1       1.870  -5.534  -0.685  0.00  0.00    +0.027 A 
ATOM      4  C   UNL     1       3.219  -5.277  -0.897  0.00  0.00    +0.055 A 
ATOM      5  C   UNL     1       3.923  -4.487   0.002  0.00  0.00    +0.149 A 
ATOM      6  C   UNL     1       3.279  -3.954   1.102  0.00  0.00    +0.063 A 
ENDROOT
BRANCH   1   7
ATOM      7  S   UNL     1       1.121  -3.539   2.720  0.00  0.00    +0.061 S 
ATOM      8  O   UNL     1       2.128  -3.283   3.690  0.00  0.00    -0.153 OA
ATOM      9  O   UNL     1       0.004  -4.377   2.984  0.00  0.00    -0.153 OA
BRANCH   7  14
ATOM     10  C   UNL     1       0.698   1.610   1.686  0.00  0.00    +0.009 C 
ATOM     11  C   UNL     1       0.545   0.133   1.319  0.00  0.00    +0.003 C 
ATOM     12  C   UNL     1      -0.937  -0.315   1.418  0.00  0.00    +0.021 C 
ATOM     13  C   UNL     1      -0.822  -1.828   1.701  0.00  0.00    +0.110 C 
ATOM     14  N   UNL     1       0.512  -2.066   2.272  0.00  0.00    -0.176 NA
ATOM     15  C   UNL     1       1.218  -0.775   2.378  0.00  0.00    +0.112 C 
ENDBRANCH   7  14
ENDBRANCH   1   7
BRANCH   5  16
ATOM     16  N   UNL     1       5.360  -4.212  -0.220  0.00  0.00    +0.058 N 
ATOM     17  O   UNL     1       6.080  -5.078  -0.659  0.00  0.00    -0.126 OA
ATOM     18  O   UNL     1       5.813  -3.121   0.038  0.00  0.00    -0.126 OA
ENDBRANCH   5  16
BRANCH   4  19
ATOM     19  N   UNL     1       3.866  -5.814  -2.013  0.00  0.00    -0.356 N 
ATOM     20  H   UNL     1       3.411  -6.463  -2.572  0.00  0.00    +0.142 HD
ATOM     21  H   UNL     1       4.770  -5.537  -2.229  0.00  0.00    +0.142 HD
ENDBRANCH   4  19
TORSDOF 4
