REMARK  Name = ZINC52529601
REMARK  11 active torsions:
REMARK  status: ('A' for Active; 'I' for Inactive)
REMARK    1  A    between atoms: C_1  and  C_2
REMARK    2  A    between atoms: C_3  and  C_8
REMARK    3  A    between atoms: N_6  and  C_7
REMARK    4  A    between atoms: C_8  and  C_10
REMARK    5  A    between atoms: C_8  and  N_11
REMARK    6  A    between atoms: N_14  and  C_15
REMARK    7  A    between atoms: C_15  and  C_16
REMARK    8  A    between atoms: C_16  and  N_24
REMARK    9  A    between atoms: C_20  and  C_23
REMARK   10  A    between atoms: N_24  and  C_25
REMARK   11  A    between atoms: N_24  and  C_26
REMARK                            x       y       z     vdW  Elec       q    Type
REMARK                         _______ _______ _______ _____ _____    ______ ____
ROOT
ATOM      1  N   UNL     1       4.527   0.820  -5.638  0.00  0.00    -0.293 N 
ATOM      2  C   UNL     1       3.384   0.158  -5.906  0.00  0.00    +0.300 C 
ATOM      3  O   UNL     1       2.312   0.668  -5.645  0.00  0.00    -0.253 OA
ATOM      4  N   UNL     1       3.431  -1.068  -6.463  0.00  0.00    -0.301 N 
ATOM      5  H   UNL     1       5.383   0.414  -5.846  0.00  0.00    +0.151 HD
ATOM      6  H   UNL     1       4.287  -1.474  -6.671  0.00  0.00    +0.150 HD
ENDROOT
BRANCH   1   7
ATOM      7  C   UNL     1       4.477   2.154  -5.033  0.00  0.00    +0.105 C 
ATOM      8  C   UNL     1       4.371   2.020  -3.513  0.00  0.00    +0.033 C 
BRANCH   7  11
ATOM      9  C   UNL     1       4.839   5.259  -4.936  0.00  0.00    +0.065 C 
ATOM     10  C   UNL     1       5.887   4.256  -5.342  0.00  0.00    +0.041 A 
ATOM     11  C   UNL     1       5.731   2.912  -5.384  0.00  0.00    +0.013 A 
ATOM     12  C   UNL     1       6.940   2.352  -5.811  0.00  0.00    +0.140 A 
ATOM     13  N   UNL     1       7.791   3.324  -6.017  0.00  0.00    -0.179 NA
ATOM     14  N   UNL     1       7.148   4.536  -5.733  0.00  0.00    -0.271 N 
ATOM     15  C   UNL     1       7.741   5.872  -5.839  0.00  0.00    +0.172 C 
ENDBRANCH   7  11
ENDBRANCH   1   7
BRANCH   4  16
ATOM     16  C   UNL     1       2.188  -1.788  -6.754  0.00  0.00    +0.094 C 
BRANCH  16  17
ATOM     17  C   UNL     1       2.512  -3.085  -7.498  0.00  0.00    -0.050 C 
ATOM     18  C   UNL     1       3.398  -3.969  -6.619  0.00  0.00    -0.010 C 
ATOM     19  C   UNL     1       3.722  -5.266  -7.363  0.00  0.00    -0.001 C 
ATOM     20  C   UNL     1       4.460  -4.938  -8.663  0.00  0.00    +0.003 C 
ATOM     21  C   UNL     1       3.574  -4.053  -9.542  0.00  0.00    -0.015 C 
ATOM     22  C   UNL     1       3.249  -2.756  -8.798  0.00  0.00    -0.007 C 
ATOM     23  C   UNL     1       4.311  -3.725 -10.842  0.00  0.00    +0.007 C 
BRANCH  17  24
ATOM     24  N   UNL     1       1.265  -3.796  -7.809  0.00  0.00    +0.381 N 
ATOM     25  C   UNL     1       0.560  -4.117  -6.560  0.00  0.00    -0.096 C 
ATOM     26  C   UNL     1       0.411  -2.943  -8.647  0.00  0.00    -0.096 C 
ATOM     27  H   UNL     1       1.478  -4.649  -8.304  0.00  0.00    -0.082 HD
ENDBRANCH  17  24
ENDBRANCH  16  17
ENDBRANCH   4  16
TORSDOF 5
