REMARK  Name = ZINC36828636
REMARK  7 active torsions:
REMARK  status: ('A' for Active; 'I' for Inactive)
REMARK    1  A    between atoms: C_1  and  C_2
REMARK    2  A    between atoms: C_2  and  C_4
REMARK    3  A    between atoms: C_2  and  N_11
REMARK    4  A    between atoms: N_9  and  C_10
REMARK    5  A    between atoms: N_11  and  C_12
REMARK    6  A    between atoms: N_15  and  S_18
REMARK    7  A    between atoms: S_18  and  C_21
REMARK                            x       y       z     vdW  Elec       q    Type
REMARK                         _______ _______ _______ _____ _____    ______ ____
ROOT
ATOM      1  N   UNL     1       0.690  -0.478  -1.207  0.00  0.00    +0.388 N 
ATOM      2  H   UNL     1       1.608  -0.063  -1.256  0.00  0.00    -0.084 HD
ATOM      3  H   UNL     1       0.776  -1.482  -1.172  0.00  0.00    -0.084 HD
ENDROOT
BRANCH   1   4
ATOM      4  C   UNL     1      -0.086  -0.093  -2.394  0.00  0.00    -0.068 C 
ATOM      5  C   UNL     1      -1.432  -0.820  -2.381  0.00  0.00    +0.001 C 
ATOM      6  C   UNL     1      -2.252  -0.390  -3.602  0.00  0.00    +0.107 C 
ATOM      7  N   UNL     1      -1.453  -0.622  -4.813  0.00  0.00    -0.182 NA
ATOM      8  C   UNL     1      -0.105  -0.042  -4.891  0.00  0.00    +0.107 C 
ATOM      9  C   UNL     1       0.691  -0.476  -3.656  0.00  0.00    +0.001 C 
BRANCH   7  10
ATOM     10  S   UNL     1      -2.060  -1.518  -6.066  0.00  0.00    +0.029 S 
ATOM     11  O   UNL     1      -0.915  -2.044  -6.723  0.00  0.00    -0.158 OA
ATOM     12  O   UNL     1      -3.012  -2.385  -5.463  0.00  0.00    -0.158 OA
ATOM     13  C   UNL     1      -2.898  -0.317  -7.136  0.00  0.00    +0.215 C 
ENDBRANCH   7  10
ENDBRANCH   1   4
BRANCH   1  15
ATOM     14  C   UNL     1      -0.019   1.526   0.010  0.00  0.00    -0.004 C 
ATOM     15  C   UNL     1       0.002  -0.004   0.002  0.00  0.00    +0.014 C 
BRANCH  15  16
ATOM     16  C   UNL     1       0.731  -0.503   1.223  0.00  0.00    +0.206 C 
ATOM     17  O   UNL     1       1.725  -1.186   1.099  0.00  0.00    -0.277 OA
ATOM     18  N   UNL     1       0.278  -0.191   2.453  0.00  0.00    -0.242 N 
ATOM     19  C   UNL     1       0.930  -0.637   3.545  0.00  0.00    +0.306 C 
ATOM     20  O   UNL     1       1.926  -1.322   3.420  0.00  0.00    -0.252 OA
ATOM     21  N   UNL     1       0.476  -0.324   4.775  0.00  0.00    -0.302 N 
ATOM     22  C   UNL     1       1.185  -0.810   5.962  0.00  0.00    +0.129 C 
ATOM     23  H   UNL     1      -0.517   0.356   2.553  0.00  0.00    +0.159 HD
ATOM     24  H   UNL     1      -0.319   0.222   4.875  0.00  0.00    +0.150 HD
ENDBRANCH  15  16
ENDBRANCH   1  15
TORSDOF 4
