REMARK  Name = ZINC04827176
REMARK  2 active torsions:
REMARK  status: ('A' for Active; 'I' for Inactive)
REMARK    1  A    between atoms: C_11  and  O_17
REMARK    2  A    between atoms: C_12  and  O_16
REMARK                            x       y       z     vdW  Elec       q    Type
REMARK                         _______ _______ _______ _____ _____    ______ ____
ROOT
ATOM      1  C   UNL     1      -0.017   1.374   0.010  0.00  0.00    +0.001 A 
ATOM      2  C   UNL     1       1.174   2.086   0.002  0.00  0.00    +0.004 A 
ATOM      3  C   UNL     1       2.388   1.433  -0.021  0.00  0.00    +0.047 A 
ATOM      4  C   UNL     1       2.435   0.044  -0.034  0.00  0.00    +0.143 A 
ATOM      5  C   UNL     1       1.222  -0.674  -0.011  0.00  0.00    +0.060 A 
ATOM      6  C   UNL     1       0.002  -0.004   0.002  0.00  0.00    +0.015 A 
ATOM      7  C   UNL     1       1.312  -2.139   0.022  0.00  0.00    +0.154 A 
ATOM      8  C   UNL     1       2.580  -2.719   0.237  0.00  0.00    +0.113 A 
ATOM      9  C   UNL     1       2.368  -4.147   0.225  0.00  0.00    +0.039 A 
ATOM     10  C   UNL     1       3.220  -5.243   0.380  0.00  0.00    +0.061 A 
ATOM     11  C   UNL     1       2.647  -6.503   0.307  0.00  0.00    +0.159 A 
ATOM     12  C   UNL     1       1.282  -6.673   0.088  0.00  0.00    +0.162 A 
ATOM     13  C   UNL     1       0.423  -5.593  -0.069  0.00  0.00    +0.096 A 
ATOM     14  C   UNL     1       0.978  -4.319   0.001  0.00  0.00    +0.140 A 
ATOM     15  O   UNL     1       0.410  -3.107  -0.112  0.00  0.00    -0.454 OA
ATOM     16  C   UNL     1       3.744  -1.853   0.411  0.00  0.00    +0.349 A 
ATOM     17  O   UNL     1       4.758  -2.240   0.963  0.00  0.00    -0.244 OA
ATOM     18  O   UNL     1       3.629  -0.592  -0.081  0.00  0.00    -0.422 OA
ENDROOT
BRANCH  12  19
ATOM     19  O   UNL     1       0.775  -7.933   0.026  0.00  0.00    -0.503 OA
ATOM     20  H   UNL     1       0.487  -8.284   0.880  0.00  0.00    +0.292 HD
ENDBRANCH  12  19
BRANCH  11  21
ATOM     21  O   UNL     1       3.437  -7.601   0.452  0.00  0.00    -0.503 OA
ATOM     22  H   UNL     1       3.524  -7.905   1.365  0.00  0.00    +0.292 HD
ENDBRANCH  11  21
TORSDOF 2
