REMARK  Name = ZINC28309018
REMARK  8 active torsions:
REMARK  status: ('A' for Active; 'I' for Inactive)
REMARK    1  A    between atoms: C_1  and  O_2
REMARK    2  A    between atoms: O_2  and  C_3
REMARK    3  A    between atoms: C_8  and  C_9
REMARK    4  A    between atoms: N_11  and  C_12
REMARK    5  A    between atoms: C_12  and  C_21
REMARK    6  A    between atoms: C_13  and  C_14
REMARK    7  A    between atoms: C_17  and  O_20
REMARK    8  A    between atoms: N_23  and  C_24
REMARK                            x       y       z     vdW  Elec       q    Type
REMARK                         _______ _______ _______ _____ _____    ______ ____
ROOT
ATOM      1  C   UNL     1      -4.364   1.762  -0.045  0.00  0.00    +0.097 C 
ATOM      2  C   UNL     1      -3.354   1.023   0.472  0.00  0.00    +0.036 C 
ENDROOT
BRANCH   2   3
ATOM      3  C   UNL     1      -2.404   1.633   1.414  0.00  0.00    -0.023 A 
ATOM      4  C   UNL     1      -1.053   1.268   1.384  0.00  0.00    +0.011 A 
ATOM      5  C   UNL     1      -0.167   1.847   2.264  0.00  0.00    +0.046 A 
ATOM      6  C   UNL     1      -0.613   2.788   3.186  0.00  0.00    +0.117 A 
ATOM      7  C   UNL     1      -1.954   3.150   3.223  0.00  0.00    +0.046 A 
ATOM      8  C   UNL     1      -2.849   2.577   2.346  0.00  0.00    +0.011 A 
BRANCH   6   9
ATOM      9  O   UNL     1       0.266   3.355   4.052  0.00  0.00    -0.507 OA
ATOM     10  H   UNL     1      -0.085   4.100   4.782  0.00  0.00    +0.292 HD
ENDBRANCH   6   9
ENDBRANCH   2   3
BRANCH   1  13
ATOM     11  C   UNL     1      -6.303   1.893  -1.416  0.00  0.00    +0.252 C 
ATOM     12  O   UNL     1      -6.225   3.106  -1.392  0.00  0.00    -0.270 OA
ATOM     13  N   UNL     1      -5.365   1.145  -0.803  0.00  0.00    -0.277 N 
ATOM     14  H   UNL     1      -5.386   0.049  -0.898  0.00  0.00    +0.155 HD
BRANCH  11  20
ATOM     15  C   UNL     1      -8.403   2.014  -2.757  0.00  0.00    +0.132 A 
ATOM     16  C   UNL     1      -9.453   1.389  -3.413  0.00  0.00    +0.046 A 
ATOM     17  C   UNL     1      -9.533   0.011  -3.436  0.00  0.00    +0.004 A 
ATOM     18  C   UNL     1      -8.568  -0.758  -2.805  0.00  0.00    +0.001 A 
ATOM     19  C   UNL     1      -7.515  -0.154  -2.153  0.00  0.00    +0.017 A 
ATOM     20  C   UNL     1      -7.425   1.240  -2.118  0.00  0.00    +0.079 A 
BRANCH  15  22
ATOM     21  C   UNL     1      -9.355   4.090  -3.407  0.00  0.00    +0.277 C 
ATOM     22  O   UNL     1      -8.323   3.368  -2.734  0.00  0.00    -0.494 OA
ENDBRANCH  15  22
ENDBRANCH  11  20
ENDBRANCH   1  13
BRANCH   1  23
ATOM     23  C   UNL     1      -4.408   3.211   0.190  0.00  0.00    +0.262 C 
ATOM     24  O   UNL     1      -5.197   3.673   0.993  0.00  0.00    -0.268 OA
ATOM     25  N   UNL     1      -3.575   4.028  -0.484  0.00  0.00    -0.280 N 
ATOM     26  H   UNL     1      -2.929   3.623  -1.277  0.00  0.00    +0.155 HD
BRANCH  25  27
ATOM     27  C   UNL     1      -3.533   5.391  -0.176  0.00  0.00    +0.034 A 
ATOM     28  C   UNL     1      -3.666   5.811   1.142  0.00  0.00    +0.023 A 
ATOM     29  C   UNL     1      -3.619   7.158   1.443  0.00  0.00    +0.002 A 
ATOM     30  C   UNL     1      -3.449   8.089   0.435  0.00  0.00    +0.000 A 
ATOM     31  C   UNL     1      -3.321   7.674  -0.878  0.00  0.00    +0.002 A 
ATOM     32  C   UNL     1      -3.363   6.329  -1.187  0.00  0.00    +0.023 A 
ENDBRANCH  25  27
ENDBRANCH   1  23
TORSDOF 7
