REMARK  Name = ZINC58298023
REMARK  4 active torsions:
REMARK  status: ('A' for Active; 'I' for Inactive)
REMARK    1  A    between atoms: C_1  and  C_2
REMARK    2  A    between atoms: C_8  and  C_12
REMARK    3  A    between atoms: C_12  and  N_13
REMARK    4  A    between atoms: N_13  and  C_14
REMARK                            x       y       z     vdW  Elec       q    Type
REMARK                         _______ _______ _______ _____ _____    ______ ____
ROOT
ATOM      1  C   UNL     1      -0.018   1.503   0.010  0.00  0.00    +0.065 C 
ATOM      2  C   UNL     1       0.002  -0.004   0.002  0.00  0.00    +0.033 A 
ATOM      3  C   UNL     1       0.008  -0.817  -1.139  0.00  0.00    +0.065 A 
ATOM      4  C   UNL     1       0.028  -2.103  -0.724  0.00  0.00    +0.115 A 
ATOM      5  N   UNL     1       0.032  -2.104   0.635  0.00  0.00    -0.273 N 
ATOM      6  N   UNL     1       0.023  -0.777   1.061  0.00  0.00    -0.300 N 
ATOM      7  C   UNL     1       0.048  -3.323   1.448  0.00  0.00    +0.146 C 
ATOM      8  C   UNL     1      -0.421  -4.501   0.587  0.00  0.00    +0.010 C 
ATOM      9  C   UNL     1       0.352  -4.519  -0.736  0.00  0.00    +0.106 C 
ATOM     10  N   UNL     1       0.044  -3.280  -1.476  0.00  0.00    -0.329 N 
ATOM     11  H   UNL     1      -0.138  -3.282  -2.429  0.00  0.00    +0.147 HD
ATOM     12  H   UNL     1       0.028  -0.476   1.984  0.00  0.00    +0.187 HD
ENDROOT
BRANCH   8  13
ATOM     13  C   UNL     1      -0.171  -5.811   1.338  0.00  0.00    -0.075 C 
BRANCH  13  14
ATOM     14  N   UNL     1      -0.728  -6.931   0.567  0.00  0.00    +0.382 N 
ATOM     15  H   UNL     1      -1.720  -6.796   0.447  0.00  0.00    -0.085 HD
ATOM     16  H   UNL     1      -0.282  -6.971  -0.337  0.00  0.00    -0.085 HD
BRANCH  14  17
ATOM     17  C   UNL     1      -0.488  -8.188   1.288  0.00  0.00    -0.049 C 
ATOM     18  C   UNL     1       1.021  -8.480   1.335  0.00  0.00    +0.008 C 
ATOM     19  C   UNL     1       1.263  -9.937   1.799  0.00  0.00    +0.164 C 
ATOM     20  S   UNL     1      -0.262 -10.798   1.237  0.00  0.00    -0.033 S 
ATOM     21  O   UNL     1       0.072 -11.687   0.181  0.00  0.00    -0.174 OA
ATOM     22  O   UNL     1      -0.959 -11.291   2.373  0.00  0.00    -0.174 OA
ATOM     23  C   UNL     1      -1.185  -9.362   0.543  0.00  0.00    +0.150 C 
ENDBRANCH  14  17
ENDBRANCH  13  14
ENDBRANCH   8  13
TORSDOF 3
