REMARK  Name = ZINC59039213
REMARK  14 active torsions:
REMARK  status: ('A' for Active; 'I' for Inactive)
REMARK    1  A    between atoms: C_1  and  C_2
REMARK    2  A    between atoms: C_2  and  N_3
REMARK    3  A    between atoms: N_3  and  C_4
REMARK    4  A    between atoms: N_3  and  C_6
REMARK    5  A    between atoms: C_4  and  C_5
REMARK    6  A    between atoms: C_9  and  C_13
REMARK    7  A    between atoms: C_10  and  O_12
REMARK    8  A    between atoms: N_14  and  N_15
REMARK    9  A    between atoms: C_18  and  S_21
REMARK   10  A    between atoms: S_21  and  C_22
REMARK   11  A    between atoms: C_22  and  C_23
REMARK   12  A    between atoms: C_29  and  S_31
REMARK   13  A    between atoms: S_31  and  C_32
REMARK   14  A    between atoms: C_32  and  C_33
REMARK                            x       y       z     vdW  Elec       q    Type
REMARK                         _______ _______ _______ _____ _____    ______ ____
ROOT
ATOM      1  N   UNL     1       8.299  -1.997   1.976  0.00  0.00    -0.205 N 
ATOM      2  C   UNL     1       8.970  -2.460   3.092  0.00  0.00    +0.232 A 
ATOM      3  N   UNL     1       8.429  -2.743   4.259  0.00  0.00    -0.186 NA
ATOM      4  C   UNL     1       9.377  -3.164   5.104  0.00  0.00    +0.211 A 
ATOM      5  N   UNL     1      10.534  -3.155   4.486  0.00  0.00    -0.144 NA
ATOM      6  N   UNL     1      10.295  -2.707   3.176  0.00  0.00    -0.245 N 
ATOM      7  H   UNL     1       8.786  -1.820   1.156  0.00  0.00    +0.177 HD
ATOM      8  H   UNL     1      10.952  -2.595   2.472  0.00  0.00    +0.192 HD
ENDROOT
BRANCH   1  10
ATOM      9  C   UNL     1       6.285  -1.349   0.980  0.00  0.00    +0.142 C 
ATOM     10  N   UNL     1       6.915  -1.784   2.029  0.00  0.00    -0.187 NA
BRANCH   9  14
ATOM     11  C   UNL     1       2.088  -0.703   1.140  0.00  0.00    +0.033 A 
ATOM     12  C   UNL     1       2.788  -0.449  -0.036  0.00  0.00    +0.024 A 
ATOM     13  C   UNL     1       4.149  -0.657  -0.091  0.00  0.00    +0.015 A 
ATOM     14  C   UNL     1       4.830  -1.125   1.036  0.00  0.00    +0.036 A 
ATOM     15  C   UNL     1       4.123  -1.381   2.220  0.00  0.00    +0.127 A 
ATOM     16  C   UNL     1       2.758  -1.163   2.267  0.00  0.00    +0.069 A 
BRANCH  15  17
ATOM     17  O   UNL     1       4.779  -1.835   3.320  0.00  0.00    -0.506 OA
ATOM     18  H   UNL     1       5.106  -1.135   3.900  0.00  0.00    +0.292 HD
ENDBRANCH  15  17
BRANCH  11  19
ATOM     19  N   UNL     1       0.711  -0.489   1.189  0.00  0.00    -0.330 N 
BRANCH  19  21
ATOM     20  C   UNL     1      -0.019   1.526   0.010  0.00  0.00    +0.024 C 
ATOM     21  C   UNL     1       0.002  -0.004   0.002  0.00  0.00    +0.102 C 
ENDBRANCH  19  21
BRANCH  19  22
ATOM     22  C   UNL     1      -0.028  -0.750   2.427  0.00  0.00    +0.102 C 
ATOM     23  C   UNL     1      -0.511  -2.202   2.437  0.00  0.00    +0.024 C 
ENDBRANCH  19  22
ENDBRANCH  11  19
ENDBRANCH   9  14
ENDBRANCH   1  10
BRANCH   4  24
ATOM     24  S   UNL     1       9.113  -3.653   6.776  0.00  0.00    -0.075 S 
BRANCH  24  25
ATOM     25  C   UNL     1      10.767  -4.107   7.366  0.00  0.00    +0.173 C 
BRANCH  25  26
ATOM     26  C   UNL     1      10.684  -4.550   8.804  0.00  0.00    +0.229 C 
ATOM     27  O   UNL     1       9.613  -4.558   9.375  0.00  0.00    -0.275 OA
ATOM     28  N   UNL     1      11.798  -4.937   9.456  0.00  0.00    -0.263 N 
ATOM     29  C   UNL     1      11.720  -5.346  10.785  0.00  0.00    +0.189 A 
ATOM     30  N   UNL     1      10.672  -5.438  11.587  0.00  0.00    -0.125 NA
ATOM     31  N   UNL     1      10.776  -5.832  12.780  0.00  0.00    -0.133 NA
ATOM     32  C   UNL     1      11.942  -6.180  13.304  0.00  0.00    +0.160 A 
ATOM     33  S   UNL     1      13.010  -5.906  11.894  0.00  0.00    -0.024 S 
ATOM     34  H   UNL     1      12.654  -4.930   9.000  0.00  0.00    +0.157 HD
BRANCH  32  35
ATOM     35  S   UNL     1      12.330  -6.754  14.925  0.00  0.00    -0.097 S 
BRANCH  35  36
ATOM     36  C   UNL     1      10.729  -6.775  15.778  0.00  0.00    +0.073 C 
ATOM     37  C   UNL     1      10.924  -7.261  17.215  0.00  0.00    +0.016 C 
ENDBRANCH  35  36
ENDBRANCH  32  35
ENDBRANCH  25  26
ENDBRANCH  24  25
ENDBRANCH   4  24
TORSDOF 11
