REMARK  Name = ZINC57762759
REMARK  7 active torsions:
REMARK  status: ('A' for Active; 'I' for Inactive)
REMARK    1  A    between atoms: C_1  and  O_2
REMARK    2  A    between atoms: O_2  and  C_3
REMARK    3  A    between atoms: C_8  and  C_9
REMARK    4  A    between atoms: C_9  and  C_10
REMARK    5  A    between atoms: C_10  and  C_12
REMARK    6  A    between atoms: C_10  and  C_14
REMARK    7  A    between atoms: C_12  and  N_13
REMARK                            x       y       z     vdW  Elec       q    Type
REMARK                         _______ _______ _______ _____ _____    ______ ____
ROOT
ATOM      1  C   UNL     1       1.038  -2.981  -1.153  0.00  0.00    +0.006 C 
ENDROOT
BRANCH   1   2
ATOM      2  C   UNL     1       0.366  -3.700  -2.294  0.00  0.00    -0.042 A 
ATOM      3  C   UNL     1      -0.138  -4.974  -2.106  0.00  0.00    +0.007 A 
ATOM      4  C   UNL     1      -0.756  -5.637  -3.150  0.00  0.00    +0.050 A 
ATOM      5  C   UNL     1      -0.872  -5.026  -4.388  0.00  0.00    +0.166 A 
ATOM      6  C   UNL     1      -0.365  -3.743  -4.577  0.00  0.00    +0.166 A 
ATOM      7  C   UNL     1       0.248  -3.082  -3.525  0.00  0.00    +0.053 A 
ATOM      8  O   UNL     1      -0.601  -3.367  -5.868  0.00  0.00    -0.453 OA
ATOM      9  C   UNL     1      -0.891  -4.586  -6.577  0.00  0.00    +0.466 C 
ATOM     10  O   UNL     1      -1.426  -5.454  -5.560  0.00  0.00    -0.453 OA
ENDBRANCH   1   2
BRANCH   1  11
ATOM     11  C   UNL     1       0.051  -2.828   0.005  0.00  0.00    +0.045 C 
BRANCH  11  17
ATOM     12  C   UNL     1       0.626  -0.619   1.042  0.00  0.00    +0.123 A 
ATOM     13  C   UNL     1       1.202   0.139   2.051  0.00  0.00    +0.047 A 
ATOM     14  C   UNL     1       1.836  -0.487   3.107  0.00  0.00    +0.023 A 
ATOM     15  C   UNL     1       1.896  -1.869   3.158  0.00  0.00    +0.041 A 
ATOM     16  C   UNL     1       1.323  -2.626   2.152  0.00  0.00    +0.027 A 
ATOM     17  C   UNL     1       0.682  -2.003   1.097  0.00  0.00    -0.004 A 
ATOM     18 CL   UNL     1       2.694  -2.654   4.485  0.00  0.00    -0.084 Cl
BRANCH  12  20
ATOM     19  C   UNL     1      -0.017   1.425   0.010  0.00  0.00    +0.277 C 
ATOM     20  O   UNL     1       0.002  -0.004   0.002  0.00  0.00    -0.495 OA
ENDBRANCH  12  20
ENDBRANCH  11  17
ENDBRANCH   1  11
BRANCH   1  21
ATOM     21  C   UNL     1       2.251  -3.788  -0.686  0.00  0.00    -0.078 C 
BRANCH  21  22
ATOM     22  N   UNL     1       3.252  -3.833  -1.761  0.00  0.00    +0.379 N 
ATOM     23  H   UNL     1       3.541  -2.895  -1.991  0.00  0.00    -0.090 HD
ATOM     24  H   UNL     1       4.052  -4.366  -1.453  0.00  0.00    -0.090 HD
ATOM     25  H   UNL     1       2.850  -4.271  -2.576  0.00  0.00    -0.090 HD
ENDBRANCH  21  22
ENDBRANCH   1  21
TORSDOF 6
