REMARK  Name = ZINC12281507
REMARK  8 active torsions:
REMARK  status: ('A' for Active; 'I' for Inactive)
REMARK    1  A    between atoms: C_3  and  C_12
REMARK    2  A    between atoms: C_5  and  N_7
REMARK    3  A    between atoms: C_12  and  N_13
REMARK    4  A    between atoms: C_14  and  C_20
REMARK    5  A    between atoms: C_20  and  C_21
REMARK    6  A    between atoms: C_21  and  N_56
REMARK    7  A    between atoms: C_22  and  C_23
REMARK    8  A    between atoms: C_22  and  N_56
REMARK                            x       y       z     vdW  Elec       q    Type
REMARK                         _______ _______ _______ _____ _____    ______ ____
ROOT
ATOM      1  N   UNL     1       5.352  -2.160   1.824  0.00  0.00    -0.294 N 
ATOM      2  C   UNL     1       5.519  -1.017   2.729  0.00  0.00    +0.075 C 
ATOM      3  C   UNL     1       5.763  -1.628   4.126  0.00  0.00    +0.031 C 
ATOM      4  C   UNL     1       5.073  -3.005   3.993  0.00  0.00    +0.098 C 
ATOM      5  C   UNL     1       5.095  -3.289   2.507  0.00  0.00    +0.216 C 
ATOM      6  O   UNL     1       4.908  -4.378   2.005  0.00  0.00    -0.276 OA
ENDROOT
BRANCH   1   7
ATOM      7  C   UNL     1       5.453  -2.082   0.365  0.00  0.00    +0.143 C 
BRANCH   7  10
ATOM      8  C   UNL     1       8.444  -4.109  -0.736  0.00  0.00    +0.002 A 
ATOM      9  C   UNL     1       7.162  -3.767  -0.343  0.00  0.00    +0.005 A 
ATOM     10  C   UNL     1       6.851  -2.450  -0.062  0.00  0.00    -0.028 A 
ATOM     11  C   UNL     1       7.817  -1.470  -0.179  0.00  0.00    +0.033 A 
ATOM     12  C   UNL     1       9.105  -1.810  -0.568  0.00  0.00    +0.066 A 
ATOM     13  C   UNL     1       9.415  -3.135  -0.850  0.00  0.00    +0.028 A 
BRANCH  12  14
ATOM     14  N   UNL     1      10.090  -0.819  -0.682  0.00  0.00    -0.240 N 
ATOM     15  C   UNL     1      11.348  -0.996  -1.145  0.00  0.00    +0.114 A 
ATOM     16  C   UNL     1      11.977   0.201  -1.095  0.00  0.00    +0.041 A 
ATOM     17  C   UNL     1      11.075   1.141  -0.586  0.00  0.00    +0.135 A 
ATOM     18  N   UNL     1       9.942   0.532  -0.344  0.00  0.00    -0.175 NA
ENDBRANCH  12  14
ENDBRANCH   7  10
ENDBRANCH   1   7
BRANCH   2  19
ATOM     19  C   UNL     1       4.250  -0.162   2.740  0.00  0.00    +0.003 C 
BRANCH  19  20
ATOM     20  C   UNL     1       4.101   0.548   1.392  0.00  0.00    -0.080 C 
BRANCH  20  21
ATOM     21  N   UNL     1       2.956   1.475   1.458  0.00  0.00    +0.382 N 
ATOM     22  H   UNL     1       3.122   2.166   2.200  0.00  0.00    -0.085 HD
ATOM     23  H   UNL     1       2.103   0.945   1.669  0.00  0.00    -0.085 HD
BRANCH  21  24
ATOM     24  C   UNL     1       2.789   2.175   0.170  0.00  0.00    -0.045 C 
BRANCH  24  25
ATOM     25  C   UNL     1       1.614   3.113   0.267  0.00  0.00    -0.042 A 
ATOM     26  C   UNL     1       1.826   4.475   0.383  0.00  0.00    +0.052 A 
ATOM     27  C   UNL     1       0.748   5.340   0.472  0.00  0.00    +0.167 A 
ATOM     28  C   UNL     1      -0.550   4.835   0.444  0.00  0.00    +0.168 A 
ATOM     29  C   UNL     1      -0.756   3.471   0.321  0.00  0.00    +0.069 A 
ATOM     30  C   UNL     1       0.325   2.611   0.239  0.00  0.00    +0.046 A 
ATOM     31 CL   UNL     1       0.064   0.901   0.092  0.00  0.00    -0.083 Cl
ATOM     32  O   UNL     1      -1.426   5.877   0.545  0.00  0.00    -0.453 OA
ATOM     33  C   UNL     1      -0.651   6.982   1.046  0.00  0.00    +0.466 C 
ATOM     34  O   UNL     1       0.685   6.698   0.591  0.00  0.00    -0.453 OA
ENDBRANCH  24  25
ENDBRANCH  21  24
ENDBRANCH  20  21
ENDBRANCH  19  20
ENDBRANCH   2  19
TORSDOF 8
