REMARK  Name = ZINC38776877
REMARK  1 active torsions:
REMARK  status: ('A' for Active; 'I' for Inactive)
REMARK    1  A    between atoms: C_13  and  C_15
REMARK                            x       y       z     vdW  Elec       q    Type
REMARK                         _______ _______ _______ _____ _____    ______ ____
ROOT
ATOM      1  C   UNL     1      -0.017   1.376   0.010  0.00  0.00    +0.001 A 
ATOM      2  C   UNL     1       1.165   2.100   0.002  0.00  0.00    +0.001 A 
ATOM      3  C   UNL     1       2.385   1.452  -0.013  0.00  0.00    +0.012 A 
ATOM      4  C   UNL     1       2.423   0.063  -0.021  0.00  0.00    +0.027 A 
ATOM      5  C   UNL     1       1.223  -0.676  -0.013  0.00  0.00    +0.005 A 
ATOM      6  C   UNL     1       0.002  -0.004   0.002  0.00  0.00    +0.010 A 
ATOM      7  C   UNL     1       1.291  -2.143  -0.022  0.00  0.00    +0.139 C 
ATOM      8  N   UNL     1       2.436  -2.749  -0.037  0.00  0.00    -0.184 NA
ATOM      9  N   UNL     1       3.653  -2.066  -0.045  0.00  0.00    -0.177 N 
ATOM     10  C   UNL     1       3.705  -0.676  -0.038  0.00  0.00    +0.168 C 
ATOM     11  N   UNL     1       4.933  -0.249  -0.048  0.00  0.00    -0.167 NA
ATOM     12  N   UNL     1       5.847  -1.308  -0.063  0.00  0.00    -0.239 N 
ATOM     13  C   UNL     1       5.045  -2.543  -0.061  0.00  0.00    +0.250 C 
ATOM     14  H   UNL     1       6.814  -1.242  -0.072  0.00  0.00    +0.171 HD
ENDROOT
BRANCH  13  15
ATOM     15  C   UNL     1       5.313  -3.348  -1.307  0.00  0.00    +0.103 A 
ATOM     16  C   UNL     1       6.624  -3.453  -1.801  0.00  0.00    +0.034 A 
ATOM     17  C   UNL     1       6.833  -4.190  -2.932  0.00  0.00    +0.073 A 
ATOM     18  C   UNL     1       5.713  -4.802  -3.536  0.00  0.00    +0.265 A 
ATOM     19  O   UNL     1       5.847  -5.472  -4.548  0.00  0.00    -0.266 OA
ATOM     20  N   UNL     1       4.496  -4.640  -2.983  0.00  0.00    -0.243 N 
ATOM     21  N   UNL     1       4.327  -3.946  -1.916  0.00  0.00    -0.172 NA
ATOM     22  H   UNL     1       3.728  -5.062  -3.399  0.00  0.00    +0.192 HD
ENDBRANCH  13  15
TORSDOF 1
