REMARK  Name = ZINC42492464
REMARK  12 active torsions:
REMARK  status: ('A' for Active; 'I' for Inactive)
REMARK    1  A    between atoms: C_1  and  C_2
REMARK    2  A    between atoms: C_7  and  N_10
REMARK    3  A    between atoms: N_10  and  C_11
REMARK    4  A    between atoms: N_10  and  C_12
REMARK    5  A    between atoms: C_12  and  C_13
REMARK    6  A    between atoms: C_12  and  C_14
REMARK    7  A    between atoms: C_12  and  C_19
REMARK    8  A    between atoms: C_14  and  C_15
REMARK    9  A    between atoms: C_15  and  C_16
REMARK   10  A    between atoms: C_16  and  C_17
REMARK   11  A    between atoms: C_16  and  C_18
REMARK   12  A    between atoms: C_19  and  N_20
REMARK                            x       y       z     vdW  Elec       q    Type
REMARK                         _______ _______ _______ _____ _____    ______ ____
ROOT
ATOM      1  C   UNL     1       2.115  -0.087   3.602  0.00  0.00    -0.084 C 
ATOM      2  C   UNL     1       2.323   1.423   3.726  0.00  0.00    -0.012 C 
ENDROOT
BRANCH   1   3
ATOM      3  N   UNL     1       0.676  -0.384   3.585  0.00  0.00    +0.382 N 
ATOM      4  C   UNL     1       0.217  -0.660   4.953  0.00  0.00    -0.095 C 
ATOM      5  H   UNL     1       0.506  -1.190   3.004  0.00  0.00    -0.081 HD
BRANCH   3  11
ATOM      6  C   UNL     1      -0.106   3.273   1.525  0.00  0.00    +0.007 C 
ATOM      7  C   UNL     1      -0.706   1.983   0.962  0.00  0.00    -0.016 C 
ATOM      8  C   UNL     1      -2.178   1.886   1.365  0.00  0.00    +0.003 C 
ATOM      9  C   UNL     1      -2.290   1.877   2.890  0.00  0.00    -0.001 C 
ATOM     10  C   UNL     1      -1.528   0.674   3.451  0.00  0.00    -0.015 C 
ATOM     11  C   UNL     1      -0.055   0.771   3.048  0.00  0.00    -0.068 C 
ATOM     12  C   UNL     1       0.057   0.780   1.522  0.00  0.00    -0.012 C 
ENDBRANCH   3  11
ENDBRANCH   1   3
BRANCH   1  13
ATOM     13  C   UNL     1       2.767  -0.791   4.794  0.00  0.00    -0.014 C 
BRANCH  13  14
ATOM     14  C   UNL     1       4.265  -0.482   4.812  0.00  0.00    +0.001 C 
BRANCH  14  15
ATOM     15  C   UNL     1       4.917  -1.186   6.004  0.00  0.00    -0.017 C 
ATOM     16  C   UNL     1       6.432  -0.981   5.951  0.00  0.00    +0.007 C 
ATOM     17  C   UNL     1       4.367  -0.599   7.306  0.00  0.00    +0.007 C 
ENDBRANCH  14  15
ENDBRANCH  13  14
ENDBRANCH   1  13
BRANCH   1  18
ATOM     18  C   UNL     1       2.754  -0.585   2.304  0.00  0.00    -0.099 C 
BRANCH  18  19
ATOM     19  N   UNL     1       2.453  -2.012   2.127  0.00  0.00    +0.377 N 
ATOM     20  H   UNL     1       1.457  -2.156   2.188  0.00  0.00    -0.090 HD
ATOM     21  H   UNL     1       2.782  -2.316   1.223  0.00  0.00    -0.090 HD
ATOM     22  H   UNL     1       2.915  -2.545   2.849  0.00  0.00    -0.090 HD
ENDBRANCH  18  19
ENDBRANCH   1  18
TORSDOF 7
