REMARK  Name = ZINC24006513
REMARK  2 active torsions:
REMARK  status: ('A' for Active; 'I' for Inactive)
REMARK    1  A    between atoms: N_11  and  C_12
REMARK    2  A    between atoms: C_12  and  C_14
REMARK                            x       y       z     vdW  Elec       q    Type
REMARK                         _______ _______ _______ _____ _____    ______ ____
ROOT
ATOM      1  C   UNL     1      -0.018   1.375  -0.018  0.00  0.00    +0.002 A 
ATOM      2  C   UNL     1       1.167   2.090  -0.015  0.00  0.00    +0.002 A 
ATOM      3  C   UNL     1       2.379   1.429  -0.020  0.00  0.00    +0.028 A 
ATOM      4  C   UNL     1       2.410   0.041  -0.029  0.00  0.00    +0.065 A 
ATOM      5  C   UNL     1       1.214  -0.680  -0.032  0.00  0.00    +0.065 A 
ATOM      6  C   UNL     1       0.001  -0.005  -0.027  0.00  0.00    +0.028 A 
ATOM      7  N   UNL     1       1.549  -2.030  -0.041  0.00  0.00    -0.326 N 
ATOM      8  H   UNL     1       0.924  -2.771  -0.045  0.00  0.00    +0.169 HD
ATOM      9  C   UNL     1       2.904  -2.132  -0.042  0.00  0.00    +0.198 A 
ATOM     10  N   UNL     1       3.447  -0.886  -0.035  0.00  0.00    -0.326 N 
ATOM     11  N   UNL     1       3.591  -3.271  -0.050  0.00  0.00    -0.147 NA
ATOM     12  H   UNL     1       4.394  -0.678  -0.035  0.00  0.00    +0.169 HD
ENDROOT
BRANCH  11  13
ATOM     13  C   UNL     1       4.916  -3.248  -0.162  0.00  0.00    +0.242 C 
ATOM     14  O   UNL     1       5.508  -2.186  -0.163  0.00  0.00    -0.273 OA
BRANCH  13  15
ATOM     15  C   UNL     1       5.685  -4.541  -0.290  0.00  0.00    +0.078 C 
ATOM     16  C   UNL     1       5.022  -5.489  -1.252  0.00  0.00    +0.024 C 
ATOM     17  C   UNL     1       5.784  -5.932  -2.486  0.00  0.00    +0.056 C 
ATOM     18  C   UNL     1       5.480  -4.994  -3.664  0.00  0.00    +0.011 C 
ATOM     19  C   UNL     1       5.863  -3.562  -3.316  0.00  0.00    +0.001 C 
ATOM     20  C   UNL     1       7.271  -3.402  -2.780  0.00  0.00    +0.011 C 
ATOM     21  C   UNL     1       7.737  -4.467  -1.807  0.00  0.00    +0.056 C 
ATOM     22  C   UNL     1       7.166  -4.276  -0.405  0.00  0.00    +0.024 C 
ATOM     23  C   UNL     1       7.279  -5.840  -2.264  0.00  0.00    +0.139 C 
ATOM     24  O   UNL     1       8.032  -6.767  -2.432  0.00  0.00    -0.297 OA
ENDBRANCH  13  15
ENDBRANCH  11  13
TORSDOF 2
