REMARK  Name = ZINC39159672
REMARK  3 active torsions:
REMARK  status: ('A' for Active; 'I' for Inactive)
REMARK    1  A    between atoms: C_6  and  C_7
REMARK    2  A    between atoms: C_10  and  N_13
REMARK    3  A    between atoms: C_14  and  C_15
REMARK                            x       y       z     vdW  Elec       q    Type
REMARK                         _______ _______ _______ _____ _____    ______ ____
ROOT
ATOM      1  C   UNL     1      -1.312  -0.776   0.017  0.00  0.00    +0.155 C 
ATOM      2  C   UNL     1      -1.632  -1.302  -1.371  0.00  0.00    +0.051 C 
ATOM      3  C   UNL     1      -1.636  -2.644  -1.215  0.00  0.00    +0.149 C 
ATOM      4  N   UNL     1      -1.363  -2.970   0.078  0.00  0.00    -0.160 NA
ATOM      5  N   UNL     1      -1.174  -2.000   0.822  0.00  0.00    -0.296 N 
ATOM      6  H   UNL     1      -0.969  -2.038   1.769  0.00  0.00    +0.183 HD
ENDROOT
BRANCH   1  12
ATOM      7  C   UNL     1      -0.050   1.385   0.018  0.00  0.00    +0.007 A 
ATOM      8  C   UNL     1       1.133   2.100   0.008  0.00  0.00    +0.015 A 
ATOM      9  C   UNL     1       2.345   1.432  -0.011  0.00  0.00    +0.018 A 
ATOM     10  C   UNL     1       2.371   0.049  -0.022  0.00  0.00    +0.015 A 
ATOM     11  C   UNL     1       1.188  -0.665  -0.013  0.00  0.00    +0.007 A 
ATOM     12  C   UNL     1      -0.022   0.003   0.007  0.00  0.00    -0.020 A 
ATOM     13 BR   UNL     1       3.963   2.410  -0.024  0.00  0.00    -0.050 Br
ENDBRANCH   1  12
BRANCH   3  14
ATOM     14  N   UNL     1      -1.881  -3.546  -2.213  0.00  0.00    -0.345 N 
ATOM     15  C   UNL     1      -1.861  -4.824  -1.956  0.00  0.00    +0.093 C 
ATOM     16  H   UNL     1      -2.069  -3.235  -3.113  0.00  0.00    +0.167 HD
BRANCH  15  17
ATOM     17  C   UNL     1      -2.235  -5.790  -3.001  0.00  0.00    +0.009 A 
ATOM     18  C   UNL     1      -2.502  -5.351  -4.302  0.00  0.00    +0.012 A 
ATOM     19  C   UNL     1      -2.851  -6.261  -5.276  0.00  0.00    +0.021 A 
ATOM     20  C   UNL     1      -2.940  -7.610  -4.969  0.00  0.00    +0.042 A 
ATOM     21  C   UNL     1      -2.678  -8.053  -3.684  0.00  0.00    +0.040 A 
ATOM     22  C   UNL     1      -2.321  -7.154  -2.700  0.00  0.00    +0.051 A 
ATOM     23 CL   UNL     1      -1.985  -7.712  -1.090  0.00  0.00    -0.083 Cl
ATOM     24 CL   UNL     1      -3.381  -8.749  -6.203  0.00  0.00    -0.083 Cl
ENDBRANCH  15  17
ENDBRANCH   3  14
TORSDOF 3
