REMARK  Name = ZINC32803438
REMARK  11 active torsions:
REMARK  status: ('A' for Active; 'I' for Inactive)
REMARK    1  A    between atoms: C_1  and  N_2
REMARK    2  A    between atoms: N_2  and  C_3
REMARK    3  A    between atoms: N_2  and  C_4
REMARK    4  A    between atoms: C_4  and  C_6
REMARK    5  A    between atoms: C_4  and  C_30
REMARK    6  A    between atoms: C_6  and  N_7
REMARK    7  A    between atoms: N_13  and  S_16
REMARK    8  A    between atoms: S_16  and  C_19
REMARK    9  A    between atoms: C_22  and  O_28
REMARK   10  A    between atoms: C_23  and  N_25
REMARK   11  A    between atoms: O_28  and  C_29
REMARK                            x       y       z     vdW  Elec       q    Type
REMARK                         _______ _______ _______ _____ _____    ______ ____
ROOT
ATOM      1  N   UNL     1      -3.686   4.757  -4.015  0.00  0.00    -0.300 N 
ATOM      2  C   UNL     1      -3.799   3.517  -3.498  0.00  0.00    +0.302 C 
ATOM      3  O   UNL     1      -4.473   2.680  -4.067  0.00  0.00    -0.253 OA
ATOM      4  N   UNL     1      -3.165   3.205  -2.350  0.00  0.00    -0.283 N 
ATOM      5  C   UNL     1      -2.259   4.169  -1.710  0.00  0.00    +0.126 C 
ATOM      6  C   UNL     1      -0.891   3.502  -1.516  0.00  0.00    +0.128 C 
ATOM      7  N   UNL     1      -1.094   2.192  -0.882  0.00  0.00    -0.174 NA
ATOM      8  C   UNL     1      -1.996   1.226  -1.525  0.00  0.00    +0.128 C 
ATOM      9  C   UNL     1      -3.367   1.895  -1.716  0.00  0.00    +0.126 C 
ATOM     10  H   UNL     1      -3.012   5.489  -3.546  0.00  0.00    +0.150 HD
ENDROOT
BRANCH   7  11
ATOM     11  S   UNL     1      -0.314   1.809   0.527  0.00  0.00    +0.061 S 
ATOM     12  O   UNL     1      -0.247   0.390   0.582  0.00  0.00    -0.153 OA
ATOM     13  O   UNL     1       0.845   2.629   0.587  0.00  0.00    -0.153 OA
BRANCH  11  14
ATOM     14  C   UNL     1      -1.358   2.314   1.854  0.00  0.00    +0.108 A 
ATOM     15  C   UNL     1      -1.238   3.587   2.380  0.00  0.00    +0.032 A 
ATOM     16  C   UNL     1      -2.058   3.988   3.416  0.00  0.00    +0.050 A 
ATOM     17  C   UNL     1      -2.996   3.108   3.937  0.00  0.00    +0.150 A 
ATOM     18  C   UNL     1      -3.111   1.830   3.411  0.00  0.00    +0.169 A 
ATOM     19  C   UNL     1      -2.291   1.435   2.371  0.00  0.00    +0.065 A 
BRANCH  18  20
ATOM     20  N   UNL     1      -4.111   0.888   3.964  0.00  0.00    +0.060 N 
ATOM     21  O   UNL     1      -4.211  -0.234   3.502  0.00  0.00    -0.126 OA
ATOM     22  O   UNL     1      -4.833   1.236   4.881  0.00  0.00    -0.126 OA
ENDBRANCH  18  20
BRANCH  17  23
ATOM     23  O   UNL     1      -3.801   3.498   4.960  0.00  0.00    -0.493 OA
ATOM     24  C   UNL     1      -3.627   4.829   5.451  0.00  0.00    +0.277 C 
ENDBRANCH  17  23
ENDBRANCH  11  14
ENDBRANCH   7  11
BRANCH   1  25
ATOM     25  C   UNL     1      -4.460   5.129  -5.201  0.00  0.00    +0.095 C 
BRANCH  25  26
ATOM     26  C   UNL     1      -4.060   6.535  -5.651  0.00  0.00    -0.020 C 
BRANCH  26  27
ATOM     27  C   UNL     1      -4.417   7.528  -4.575  0.00  0.00    -0.052 A 
ATOM     28  C   UNL     1      -3.450   7.997  -3.705  0.00  0.00    +0.009 A 
ATOM     29  C   UNL     1      -3.804   8.889  -2.748  0.00  0.00    +0.045 A 
ATOM     30  S   UNL     1      -5.550   9.091  -3.059  0.00  0.00    -0.105 S 
ATOM     31  C   UNL     1      -5.689   7.977  -4.448  0.00  0.00    +0.047 A 
ENDBRANCH  26  27
BRANCH  26  33
ATOM     32  C   UNL     1      -4.340   8.180  -7.406  0.00  0.00    -0.096 C 
ATOM     33  N   UNL     1      -4.776   6.876  -6.888  0.00  0.00    +0.382 N 
ATOM     34  C   UNL     1      -4.608   5.825  -7.900  0.00  0.00    -0.096 C 
ATOM     35  H   UNL     1      -5.847   6.948  -6.650  0.00  0.00    -0.082 HD
ENDBRANCH  26  33
ENDBRANCH  25  26
ENDBRANCH   1  25
TORSDOF 8
