REMARK  Name = ZINC43097059
REMARK  9 active torsions:
REMARK  status: ('A' for Active; 'I' for Inactive)
REMARK    1  A    between atoms: C_1  and  C_2
REMARK    2  A    between atoms: C_2  and  C_3
REMARK    3  A    between atoms: C_3  and  C_5
REMARK    4  A    between atoms: C_3  and  N_24
REMARK    5  A    between atoms: C_5  and  C_7
REMARK    6  A    between atoms: C_5  and  N_15
REMARK    7  A    between atoms: C_12  and  O_13
REMARK    8  A    between atoms: O_13  and  C_14
REMARK    9  A    between atoms: C_19  and  C_21
REMARK                            x       y       z     vdW  Elec       q    Type
REMARK                         _______ _______ _______ _____ _____    ______ ____
ROOT
ATOM      1  C   UNL     1      -0.968  -1.742   0.374  0.00  0.00    +0.077 C 
ENDROOT
BRANCH   1   2
ATOM      2  C   UNL     1      -2.371  -2.120   0.774  0.00  0.00    +0.010 A 
ATOM      3  C   UNL     1      -3.287  -2.495  -0.191  0.00  0.00    +0.009 A 
ATOM      4  C   UNL     1      -4.575  -2.841   0.175  0.00  0.00    +0.001 A 
ATOM      5  C   UNL     1      -4.949  -2.814   1.506  0.00  0.00    +0.004 A 
ATOM      6  C   UNL     1      -4.037  -2.441   2.474  0.00  0.00    +0.046 A 
ATOM      7  C   UNL     1      -2.742  -2.098   2.110  0.00  0.00    +0.125 A 
BRANCH   7   8
ATOM      8  O   UNL     1      -1.841  -1.736   3.061  0.00  0.00    -0.495 OA
ATOM      9  C   UNL     1      -2.293  -1.736   4.416  0.00  0.00    +0.277 C 
ENDBRANCH   7   8
ENDBRANCH   1   2
BRANCH   1  10
ATOM     10  N   UNL     1      -0.639  -2.371  -0.912  0.00  0.00    -0.286 NA
ATOM     11  C   UNL     1      -1.048  -1.505  -2.048  0.00  0.00    +0.086 C 
ATOM     12  C   UNL     1      -0.187  -2.033  -3.223  0.00  0.00    +0.017 C 
ATOM     13  C   UNL     1       1.160  -2.368  -2.543  0.00  0.00    +0.029 C 
ATOM     14  C   UNL     1       0.821  -2.558  -1.053  0.00  0.00    +0.143 C 
BRANCH  14  15
ATOM     15  C   UNL     1       1.206  -3.947  -0.612  0.00  0.00    +0.228 C 
ATOM     16  O   UNL     1       0.394  -4.846  -0.664  0.00  0.00    -0.274 OA
ATOM     17  N   UNL     1       2.452  -4.190  -0.160  0.00  0.00    -0.328 N 
ATOM     18  H   UNL     1       3.102  -3.470  -0.119  0.00  0.00    +0.145 HD
ATOM     19  H   UNL     1       2.700  -5.084   0.123  0.00  0.00    +0.145 HD
ENDBRANCH  14  15
ENDBRANCH   1  10
BRANCH   1  20
ATOM     20  C   UNL     1      -0.869  -0.222   0.239  0.00  0.00    -0.053 C 
BRANCH  20  21
ATOM     21  N   UNL     1      -1.209   0.407   1.522  0.00  0.00    +0.381 N 
ATOM     22  H   UNL     1      -1.143   1.410   1.433  0.00  0.00    -0.090 HD
ATOM     23  H   UNL     1      -2.150   0.154   1.782  0.00  0.00    -0.090 HD
ATOM     24  H   UNL     1      -0.567   0.090   2.233  0.00  0.00    -0.090 HD
ENDBRANCH  20  21
BRANCH  20  26
ATOM     25  C   UNL     1       0.645   1.679  -0.344  0.00  0.00    +0.002 C 
ATOM     26  C   UNL     1       0.559   0.163  -0.155  0.00  0.00    -0.018 C 
ENDBRANCH  20  26
ENDBRANCH   1  20
TORSDOF 7
