REMARK  Name = ZINC19945753
REMARK  3 active torsions:
REMARK  status: ('A' for Active; 'I' for Inactive)
REMARK    1  A    between atoms: C_1  and  C_2
REMARK    2  A    between atoms: C_8  and  N_10
REMARK    3  A    between atoms: N_10  and  C_11
REMARK                            x       y       z     vdW  Elec       q    Type
REMARK                         _______ _______ _______ _____ _____    ______ ____
ROOT
ATOM      1  C   UNL     1       2.865  -0.584   2.356  0.00  0.00    +0.050 C 
ATOM      2  C   UNL     1       4.266  -0.019   2.412  0.00  0.00    -0.018 A 
ATOM      3  C   UNL     1       5.129  -1.094   2.244  0.00  0.00    +0.036 A 
ATOM      4  C   UNL     1       6.503  -0.864   2.254  0.00  0.00    +0.023 A 
ATOM      5  C   UNL     1       6.990   0.415   2.427  0.00  0.00    +0.003 A 
ATOM      6  C   UNL     1       6.122   1.478   2.593  0.00  0.00    +0.015 A 
ATOM      7  C   UNL     1       4.754   1.257   2.585  0.00  0.00    +0.022 A 
ATOM      8 BR   UNL     1       3.560   2.706   2.812  0.00  0.00    -0.050 Br
ATOM      9  N   UNL     1       4.403  -2.276   2.089  0.00  0.00    -0.286 N 
ATOM     10  C   UNL     1       3.073  -2.069   2.143  0.00  0.00    +0.208 C 
ATOM     11  O   UNL     1       2.206  -2.910   2.040  0.00  0.00    -0.277 OA
ATOM     12  H   UNL     1       4.809  -3.147   1.958  0.00  0.00    +0.155 HD
ENDROOT
BRANCH   1  13
ATOM     13  N   UNL     1       2.120  -0.002   1.231  0.00  0.00    +0.391 N 
ATOM     14  H   UNL     1       2.567  -0.259   0.363  0.00  0.00    -0.084 HD
ATOM     15  H   UNL     1       2.109   1.003   1.319  0.00  0.00    -0.084 HD
BRANCH  13  22
ATOM     16  C   UNL     1      -0.019   1.526   0.010  0.00  0.00    +0.006 C 
ATOM     17  C   UNL     1       0.002  -0.004   0.002  0.00  0.00    -0.028 C 
ATOM     18  C   UNL     1      -1.433  -0.534   0.013  0.00  0.00    +0.002 C 
ATOM     19  C   UNL     1      -2.149  -0.040   1.272  0.00  0.00    +0.000 C 
ATOM     20  C   UNL     1      -1.409  -0.547   2.511  0.00  0.00    -0.002 C 
ATOM     21  C   UNL     1       0.026  -0.018   2.500  0.00  0.00    -0.015 C 
ATOM     22  C   UNL     1       0.742  -0.511   1.242  0.00  0.00    -0.067 C 
ENDBRANCH  13  22
ENDBRANCH   1  13
TORSDOF 2
