REMARK  Name = ZINC44509158
REMARK  6 active torsions:
REMARK  status: ('A' for Active; 'I' for Inactive)
REMARK    1  A    between atoms: C_1  and  S_2
REMARK    2  A    between atoms: S_2  and  C_5
REMARK    3  A    between atoms: C_8  and  N_14
REMARK    4  A    between atoms: C_9  and  N_11
REMARK    5  A    between atoms: N_14  and  C_15
REMARK    6  A    between atoms: C_15  and  C_16
REMARK                            x       y       z     vdW  Elec       q    Type
REMARK                         _______ _______ _______ _____ _____    ______ ____
ROOT
ATOM      1  C   UNL     1       0.789  -0.683  -1.471  0.00  0.00    +0.090 A 
ATOM      2  C   UNL     1       0.136  -0.587  -2.687  0.00  0.00    +0.029 A 
ATOM      3  C   UNL     1       0.851  -0.680  -3.865  0.00  0.00    +0.027 A 
ATOM      4  C   UNL     1       2.227  -0.870  -3.828  0.00  0.00    +0.058 A 
ATOM      5  C   UNL     1       2.879  -0.966  -2.606  0.00  0.00    +0.149 A 
ATOM      6  C   UNL     1       2.159  -0.867  -1.431  0.00  0.00    +0.061 A 
ENDROOT
BRANCH   1   8
ATOM      7  C   UNL     1      -0.136   1.205   0.431  0.00  0.00    +0.200 C 
ATOM      8  S   UNL     1      -0.126  -0.564   0.030  0.00  0.00    -0.006 S 
ATOM      9  O   UNL     1       0.648  -1.278   0.984  0.00  0.00    -0.170 OA
ATOM     10  O   UNL     1      -1.437  -0.996  -0.309  0.00  0.00    -0.170 OA
ENDBRANCH   1   8
BRANCH   5  11
ATOM     11  N   UNL     1       4.344  -1.168  -2.562  0.00  0.00    +0.058 N 
ATOM     12  O   UNL     1       4.880  -1.884  -3.375  0.00  0.00    -0.126 OA
ATOM     13  O   UNL     1       5.005  -0.618  -1.712  0.00  0.00    -0.126 OA
ENDBRANCH   5  11
BRANCH   4  14
ATOM     14  N   UNL     1       2.952  -0.964  -5.018  0.00  0.00    -0.342 N 
ATOM     15  H   UNL     1       3.921  -1.011  -4.993  0.00  0.00    +0.146 HD
BRANCH  14  16
ATOM     16  C   UNL     1       2.250  -0.993  -6.303  0.00  0.00    +0.105 C 
BRANCH  16  17
ATOM     17  C   UNL     1       3.270  -1.099  -7.439  0.00  0.00    +0.003 C 
ATOM     18  C   UNL     1       4.123   0.172  -7.482  0.00  0.00    -0.014 C 
ATOM     19  C   UNL     1       5.087   0.093  -8.668  0.00  0.00    -0.082 C 
ATOM     20  N   UNL     1       4.324  -0.028  -9.916  0.00  0.00    +0.379 N 
ATOM     21  C   UNL     1       3.558  -1.280  -9.912  0.00  0.00    -0.082 C 
ATOM     22  C   UNL     1       2.536  -1.254  -8.774  0.00  0.00    -0.014 C 
ATOM     23  H   UNL     1       3.689   0.752  -9.998  0.00  0.00    -0.086 HD
ATOM     24  H   UNL     1       4.959  -0.026 -10.699  0.00  0.00    -0.086 HD
ENDBRANCH  16  17
ENDBRANCH  14  16
ENDBRANCH   4  14
TORSDOF 5
