REMARK  Name = ZINC14244256
REMARK  9 active torsions:
REMARK  status: ('A' for Active; 'I' for Inactive)
REMARK    1  A    between atoms: C_1  and  C_2
REMARK    2  A    between atoms: C_2  and  C_4
REMARK    3  A    between atoms: C_2  and  N_56
REMARK    4  A    between atoms: C_7  and  S_10
REMARK    5  A    between atoms: S_10  and  N_13
REMARK    6  A    between atoms: C_14  and  N_56
REMARK    7  A    between atoms: C_15  and  C_16
REMARK    8  A    between atoms: C_15  and  N_56
REMARK    9  A    between atoms: C_26  and  C_28
REMARK                            x       y       z     vdW  Elec       q    Type
REMARK                         _______ _______ _______ _____ _____    ______ ____
ROOT
ATOM      1  C   UNL     1      -1.116  -1.856  -1.101  0.00  0.00    +0.019 C 
ENDROOT
BRANCH   1   2
ATOM      2  C   UNL     1      -2.029  -2.196  -2.252  0.00  0.00    +0.200 C 
ATOM      3  O   UNL     1      -2.575  -1.310  -2.874  0.00  0.00    -0.278 OA
ATOM      4  N   UNL     1      -2.238  -3.484  -2.588  0.00  0.00    -0.291 N 
ATOM      5  C   UNL     1      -1.581  -4.566  -1.840  0.00  0.00    +0.114 C 
ATOM      6  C   UNL     1      -2.667  -5.391  -1.132  0.00  0.00    +0.062 C 
ATOM      7  C   UNL     1      -3.800  -5.607  -2.081  0.00  0.00    -0.003 A 
ATOM      8  C   UNL     1      -4.060  -4.940  -3.238  0.00  0.00    -0.012 A 
ATOM      9  C   UNL     1      -5.196  -5.333  -3.945  0.00  0.00    +0.013 A 
ATOM     10  C   UNL     1      -5.973  -6.334  -3.474  0.00  0.00    +0.046 A 
ATOM     11  S   UNL     1      -5.122  -6.785  -1.969  0.00  0.00    -0.101 S 
ATOM     12  C   UNL     1      -3.131  -3.827  -3.704  0.00  0.00    +0.144 C 
BRANCH  12  13
ATOM     13  C   UNL     1      -2.318  -4.304  -4.879  0.00  0.00    +0.015 A 
ATOM     14  C   UNL     1      -2.492  -4.048  -6.199  0.00  0.00    +0.013 A 
ATOM     15  C   UNL     1      -1.613  -4.599  -7.111  0.00  0.00    +0.008 A 
ATOM     16  C   UNL     1      -0.601  -5.380  -6.660  0.00  0.00    +0.045 A 
ATOM     17  S   UNL     1      -0.870  -5.349  -4.895  0.00  0.00    -0.099 S 
ENDBRANCH  12  13
ENDBRANCH   1   2
BRANCH   1  19
ATOM     18  C   UNL     1      -2.357   0.140  -0.522  0.00  0.00    -0.095 C 
ATOM     19  N   UNL     1      -1.049  -0.386  -0.964  0.00  0.00    +0.388 N 
ATOM     20  H   UNL     1      -0.815   0.024  -1.876  0.00  0.00    -0.081 HD
BRANCH  19  22
ATOM     21  C   UNL     1      -0.033   1.497   0.229  0.00  0.00    -0.008 C 
ATOM     22  C   UNL     1      -0.001  -0.017   0.010  0.00  0.00    -0.041 C 
BRANCH  22  23
ATOM     23  C   UNL     1       1.342  -0.416  -0.545  0.00  0.00    -0.061 A 
ATOM     24  C   UNL     1       1.647  -0.160  -1.868  0.00  0.00    +0.004 A 
ATOM     25  C   UNL     1       2.881  -0.522  -2.377  0.00  0.00    +0.029 A 
ATOM     26  C   UNL     1       3.806  -1.149  -1.563  0.00  0.00    +0.105 A 
ATOM     27  C   UNL     1       3.499  -1.410  -0.241  0.00  0.00    +0.029 A 
ATOM     28  C   UNL     1       2.268  -1.044   0.268  0.00  0.00    +0.004 A 
BRANCH  26  29
ATOM     29  S   UNL     1       5.377  -1.615  -2.212  0.00  0.00    +0.056 S 
ATOM     30  O   UNL     1       5.622  -0.769  -3.328  0.00  0.00    -0.153 OA
ATOM     31  O   UNL     1       6.266  -1.694  -1.106  0.00  0.00    -0.153 OA
BRANCH  29  32
ATOM     32  N   UNL     1       5.224  -3.152  -2.807  0.00  0.00    -0.204 NA
ATOM     33  H   UNL     1       5.770  -3.439  -3.556  0.00  0.00    +0.144 HD
ATOM     34  H   UNL     1       4.588  -3.766  -2.408  0.00  0.00    +0.144 HD
ENDBRANCH  29  32
ENDBRANCH  26  29
ENDBRANCH  22  23
ENDBRANCH  19  22
ENDBRANCH   1  19
TORSDOF 7
