REMARK  Name = ZINC36763744
REMARK  9 active torsions:
REMARK  status: ('A' for Active; 'I' for Inactive)
REMARK    1  A    between atoms: C_1  and  C_2
REMARK    2  A    between atoms: C_2  and  C_3
REMARK    3  A    between atoms: C_2  and  C_4
REMARK    4  A    between atoms: C_6  and  C_9
REMARK    5  A    between atoms: C_9  and  N_20
REMARK    6  A    between atoms: C_14  and  C_16
REMARK    7  A    between atoms: C_16  and  C_17
REMARK    8  A    between atoms: C_16  and  C_18
REMARK    9  A    between atoms: C_16  and  C_19
REMARK                            x       y       z     vdW  Elec       q    Type
REMARK                         _______ _______ _______ _____ _____    ______ ____
ROOT
ATOM      1  C   UNL     1      -4.668  -2.236  -1.833  0.00  0.00    -0.003 C 
ATOM      2  C   UNL     1      -4.316  -1.137  -2.838  0.00  0.00    -0.005 C 
ATOM      3  C   UNL     1      -4.876   0.200  -2.348  0.00  0.00    -0.001 C 
ATOM      4  C   UNL     1      -6.397   0.098  -2.215  0.00  0.00    +0.000 C 
ATOM      5  C   UNL     1      -6.748  -1.001  -1.209  0.00  0.00    +0.003 C 
ATOM      6  C   UNL     1      -6.188  -2.338  -1.699  0.00  0.00    -0.010 C 
ENDROOT
BRANCH   1   9
ATOM      7  C   UNL     1      -2.869  -2.080   1.303  0.00  0.00    +0.230 A 
ATOM      8  N   UNL     1      -3.189  -2.656   0.178  0.00  0.00    -0.197 NA
ATOM      9  C   UNL     1      -4.067  -1.901  -0.492  0.00  0.00    +0.161 A 
ATOM     10  N   UNL     1      -4.317  -0.828   0.203  0.00  0.00    -0.063 NA
ATOM     11  O   UNL     1      -3.545  -0.927   1.390  0.00  0.00    -0.338 OA
BRANCH   7  13
ATOM     12  C   UNL     1      -0.759  -1.630   2.526  0.00  0.00    +0.017 C 
ATOM     13  C   UNL     1      -1.909  -2.621   2.331  0.00  0.00    +0.072 C 
ATOM     14  C   UNL     1      -2.642  -2.819   3.659  0.00  0.00    +0.017 C 
ENDBRANCH   7  13
ENDBRANCH   1   9
BRANCH   6  15
ATOM     15  C   UNL     1      -6.540  -3.436  -0.694  0.00  0.00    -0.036 C 
ATOM     16  C   UNL     1      -6.913  -2.800   0.647  0.00  0.00    +0.011 C 
ATOM     17  C   UNL     1      -7.724  -4.250  -1.220  0.00  0.00    +0.011 C 
ATOM     18  C   UNL     1      -5.333  -4.357  -0.502  0.00  0.00    +0.011 C 
ENDBRANCH   6  15
BRANCH   1  19
ATOM     19  N   UNL     1      -4.130  -3.520  -2.303  0.00  0.00    +0.387 N 
ATOM     20  H   UNL     1      -3.758  -4.036  -1.520  0.00  0.00    -0.089 HD
ATOM     21  H   UNL     1      -4.868  -4.054  -2.737  0.00  0.00    -0.089 HD
ATOM     22  H   UNL     1      -3.397  -3.352  -2.974  0.00  0.00    -0.089 HD
ENDBRANCH   1  19
TORSDOF 4
