REMARK  Name = ZINC13031428
REMARK  5 active torsions:
REMARK  status: ('A' for Active; 'I' for Inactive)
REMARK    1  A    between atoms: C_3  and  S_12
REMARK    2  A    between atoms: C_6  and  C_7
REMARK    3  A    between atoms: C_8  and  C_9
REMARK    4  A    between atoms: S_12  and  N_15
REMARK    5  A    between atoms: C_18  and  C_21
REMARK                            x       y       z     vdW  Elec       q    Type
REMARK                         _______ _______ _______ _____ _____    ______ ____
ROOT
ATOM      1  N   UNL     1       4.324   2.571   1.556  0.00  0.00    -0.103 NA
ATOM      2  C   UNL     1       5.422   3.226   1.839  0.00  0.00    +0.192 A 
ATOM      3  N   UNL     1       5.962   3.530   3.069  0.00  0.00    -0.332 N 
ATOM      4  C   UNL     1       7.136   4.236   3.113  0.00  0.00    +0.055 A 
ATOM      5  C   UNL     1       7.731   4.612   1.963  0.00  0.00    +0.075 A 
ATOM      6  S   UNL     1       6.618   3.955   0.731  0.00  0.00    -0.056 S 
ATOM      7  H   UNL     1       5.521   3.252   3.887  0.00  0.00    +0.168 HD
ENDROOT
BRANCH   4   8
ATOM      8  C   UNL     1       7.748   4.582   4.414  0.00  0.00    +0.001 A 
ATOM      9  C   UNL     1       7.133   4.186   5.603  0.00  0.00    +0.013 A 
ATOM     10  C   UNL     1       7.703   4.507   6.818  0.00  0.00    +0.048 A 
ATOM     11  C   UNL     1       8.887   5.225   6.861  0.00  0.00    +0.142 A 
ATOM     12  C   UNL     1       9.506   5.625   5.676  0.00  0.00    +0.076 A 
ATOM     13  C   UNL     1       8.944   5.300   4.455  0.00  0.00    +0.037 A 
ATOM     14  N   UNL     1      10.703   6.353   5.740  0.00  0.00    -0.280 N 
ATOM     15  C   UNL     1      11.392   6.380   6.902  0.00  0.00    +0.255 C 
ATOM     16  O   UNL     1      12.413   7.028   6.989  0.00  0.00    -0.272 OA
ATOM     17  C   UNL     1      10.885   5.603   8.090  0.00  0.00    +0.325 C 
ATOM     18  O   UNL     1       9.457   5.547   8.054  0.00  0.00    -0.481 OA
ATOM     19  H   UNL     1      11.031   6.830   4.962  0.00  0.00    +0.155 HD
ENDBRANCH   4   8
BRANCH   1  20
ATOM     20  S   UNL     1       3.889   2.327  -0.023  0.00  0.00    +0.101 S 
ATOM     21  O   UNL     1       4.872   1.471  -0.588  0.00  0.00    -0.146 OA
ATOM     22  O   UNL     1       3.591   3.607  -0.565  0.00  0.00    -0.146 OA
BRANCH  20  25
ATOM     23  C   UNL     1      -0.017   1.395   0.010  0.00  0.00    +0.010 A 
ATOM     24  C   UNL     1       1.170   2.097   0.002  0.00  0.00    +0.029 A 
ATOM     25  C   UNL     1       2.378   1.421  -0.013  0.00  0.00    +0.113 A 
ATOM     26  C   UNL     1       2.405   0.037  -0.021  0.00  0.00    +0.029 A 
ATOM     27  C   UNL     1       1.227  -0.679  -0.013  0.00  0.00    +0.010 A 
ATOM     28  C   UNL     1       0.002  -0.004   0.002  0.00  0.00    -0.025 A 
BRANCH  28  29
ATOM     29  C   UNL     1      -1.259  -0.761   0.011  0.00  0.00    +0.015 C 
ATOM     30  C   UNL     1      -1.237  -2.112   0.003  0.00  0.00    +0.096 C 
BRANCH  30  31
ATOM     31  C   UNL     1      -2.451  -2.840   0.011  0.00  0.00    +0.380 C 
ATOM     32  O   UNL     1      -3.522  -2.245   0.025  0.00  0.00    -0.241 OA
ATOM     33  O   UNL     1      -2.431  -4.065   0.004  0.00  0.00    -0.241 OA
ENDBRANCH  30  31
ENDBRANCH  28  29
ENDBRANCH  20  25
ENDBRANCH   1  20
TORSDOF 5
