REMARK  Name = ZINC37987145
REMARK  3 active torsions:
REMARK  status: ('A' for Active; 'I' for Inactive)
REMARK    1  A    between atoms: C_8  and  C_11
REMARK    2  A    between atoms: C_11  and  N_12
REMARK    3  A    between atoms: N_12  and  C_13
REMARK                            x       y       z     vdW  Elec       q    Type
REMARK                         _______ _______ _______ _____ _____    ______ ____
ROOT
ATOM      1  N   UNL     1       5.218  -3.192  -0.157  0.00  0.00    -0.324 N 
ATOM      2  H   UNL     1       5.515  -2.521  -0.791  0.00  0.00    +0.148 HD
ENDROOT
BRANCH   1   3
ATOM      3  C   UNL     1       6.121  -4.105   0.359  0.00  0.00    +0.150 A 
ATOM      4  C   UNL     1       7.473  -4.074  -0.025  0.00  0.00    +0.147 A 
ATOM      5  C   UNL     1       8.342  -5.027   0.533  0.00  0.00    +0.163 A 
ATOM      6  N   UNL     1       9.578  -4.771  -0.005  0.00  0.00    -0.329 N 
ATOM      7  C   UNL     1       9.445  -3.709  -0.849  0.00  0.00    +0.198 A 
ATOM      8  N   UNL     1       8.209  -3.301  -0.859  0.00  0.00    -0.231 NA
ATOM      9  H   UNL     1      10.397  -5.257   0.181  0.00  0.00    +0.168 HD
ATOM     10  N   UNL     1       7.860  -5.915   1.396  0.00  0.00    -0.216 NA
ATOM     11  C   UNL     1       6.585  -5.906   1.726  0.00  0.00    +0.225 A 
ATOM     12  N   UNL     1       5.731  -5.028   1.232  0.00  0.00    -0.219 NA
ENDBRANCH   1   3
BRANCH   1  13
ATOM     13  C   UNL     1       3.813  -3.240   0.254  0.00  0.00    +0.147 C 
BRANCH  13  21
ATOM     14  C   UNL     1      -0.017   1.379   0.010  0.00  0.00    +0.000 A 
ATOM     15  C   UNL     1       1.174   2.082   0.002  0.00  0.00    +0.004 A 
ATOM     16  C   UNL     1       2.379   1.411  -0.009  0.00  0.00    +0.046 A 
ATOM     17  C   UNL     1       2.407   0.019  -0.013  0.00  0.00    +0.124 A 
ATOM     18  C   UNL     1       1.204  -0.676  -0.013  0.00  0.00    -0.002 A 
ATOM     19  C   UNL     1       0.002  -0.004   0.002  0.00  0.00    +0.007 A 
ATOM     20  C   UNL     1       1.545  -2.154  -0.043  0.00  0.00    +0.085 C 
ATOM     21  C   UNL     1       3.035  -2.130  -0.457  0.00  0.00    +0.195 C 
ATOM     22  O   UNL     1       3.469  -0.834  -0.012  0.00  0.00    -0.487 OA
ENDBRANCH  13  21
ENDBRANCH   1  13
TORSDOF 3
