REMARK  Name = ZINC36271070
REMARK  6 active torsions:
REMARK  status: ('A' for Active; 'I' for Inactive)
REMARK    1  A    between atoms: C_1  and  C_2
REMARK    2  A    between atoms: C_2  and  C_3
REMARK    3  A    between atoms: N_9  and  C_10
REMARK    4  A    between atoms: C_10  and  C_11
REMARK    5  A    between atoms: C_12  and  C_21
REMARK    6  A    between atoms: C_17  and  N_20
REMARK                            x       y       z     vdW  Elec       q    Type
REMARK                         _______ _______ _______ _____ _____    ______ ____
ROOT
ATOM      1  C   UNL     1      -2.742   1.132  -2.947  0.00  0.00    +0.035 A 
ATOM      2  C   UNL     1      -2.089   1.595  -4.050  0.00  0.00    +0.091 A 
ATOM      3  N   UNL     1      -3.002   2.074  -4.909  0.00  0.00    -0.228 NA
ATOM      4  C   UNL     1      -4.211   1.928  -4.384  0.00  0.00    +0.138 A 
ATOM      5  N   UNL     1      -4.077   1.335  -3.156  0.00  0.00    -0.303 N 
ATOM      6  C   UNL     1      -5.180   1.062  -2.394  0.00  0.00    +0.115 A 
ATOM      7  C   UNL     1      -6.421   1.370  -2.843  0.00  0.00    +0.041 A 
ATOM      8  C   UNL     1      -6.586   1.977  -4.104  0.00  0.00    +0.028 A 
ATOM      9  C   UNL     1      -5.494   2.260  -4.864  0.00  0.00    +0.048 A 
ENDROOT
BRANCH   2  10
ATOM     10  C   UNL     1      -0.621   1.574  -4.264  0.00  0.00    +0.006 A 
ATOM     11  C   UNL     1       0.240   1.942  -3.233  0.00  0.00    +0.014 A 
ATOM     12  C   UNL     1       1.605   1.922  -3.433  0.00  0.00    +0.050 A 
ATOM     13  C   UNL     1       2.125   1.537  -4.659  0.00  0.00    +0.166 A 
ATOM     14  C   UNL     1       1.268   1.168  -5.695  0.00  0.00    +0.167 A 
ATOM     15  C   UNL     1      -0.101   1.181  -5.496  0.00  0.00    +0.059 A 
ATOM     16  O   UNL     1       2.019   0.835  -6.785  0.00  0.00    -0.453 OA
ATOM     17  C   UNL     1       3.323   1.395  -6.539  0.00  0.00    +0.466 C 
ATOM     18  O   UNL     1       3.412   1.435  -5.103  0.00  0.00    -0.453 OA
ENDBRANCH   2  10
BRANCH   7  19
ATOM     19  N   UNL     1      -7.542   1.085  -2.052  0.00  0.00    -0.357 N 
ATOM     20  H   UNL     1      -7.429   0.667  -1.184  0.00  0.00    +0.142 HD
ATOM     21  H   UNL     1      -8.430   1.305  -2.373  0.00  0.00    +0.142 HD
ENDBRANCH   7  19
BRANCH   1  22
ATOM     22  C   UNL     1      -2.111   0.509  -1.729  0.00  0.00    -0.021 C 
BRANCH  22  28
ATOM     23  C   UNL     1      -1.145  -1.496  -0.838  0.00  0.00    -0.068 C 
ATOM     24  C   UNL     1      -0.802  -2.958  -1.134  0.00  0.00    -0.015 C 
ATOM     25  C   UNL     1      -2.094  -3.739  -1.389  0.00  0.00    -0.003 C 
ATOM     26  C   UNL     1      -2.861  -3.078  -2.538  0.00  0.00    -0.019 C 
ATOM     27  C   UNL     1      -3.127  -1.612  -2.190  0.00  0.00    -0.078 C 
ATOM     28  N   UNL     1      -1.852  -0.914  -1.985  0.00  0.00    +0.385 N 
ATOM     29  H   UNL     1      -1.282  -1.007  -2.813  0.00  0.00    -0.081 HD
BRANCH  23  31
ATOM     30  C   UNL     1       0.850  -1.278   0.650  0.00  0.00    +0.002 C 
ATOM     31  C   UNL     1       0.144  -0.712  -0.583  0.00  0.00    -0.019 C 
ENDBRANCH  23  31
ENDBRANCH  22  28
ENDBRANCH   1  22
TORSDOF 5
