REMARK  Name = ZINC66483624
REMARK  12 active torsions:
REMARK  status: ('A' for Active; 'I' for Inactive)
REMARK    1  A    between atoms: C_1  and  C_2
REMARK    2  A    between atoms: N_5  and  C_8
REMARK    3  A    between atoms: C_8  and  C_9
REMARK    4  A    between atoms: C_9  and  C_11
REMARK    5  A    between atoms: C_9  and  O_27
REMARK    6  A    between atoms: C_11  and  N_12
REMARK    7  A    between atoms: C_16  and  N_19
REMARK    8  A    between atoms: C_20  and  O_22
REMARK    9  A    between atoms: O_22  and  C_23
REMARK   10  A    between atoms: C_23  and  C_24
REMARK   11  A    between atoms: C_23  and  C_25
REMARK   12  A    between atoms: C_23  and  C_26
REMARK                            x       y       z     vdW  Elec       q    Type
REMARK                         _______ _______ _______ _____ _____    ______ ____
ROOT
ATOM      1  N   UNL     1       0.313  -6.073   4.218  0.00  0.00    -0.298 NA
ATOM      2  C   UNL     1       1.736  -5.742   4.366  0.00  0.00    +0.084 C 
ATOM      3  C   UNL     1       2.186  -6.047   5.796  0.00  0.00    +0.017 C 
ATOM      4  C   UNL     1       1.954  -7.531   6.094  0.00  0.00    +0.025 C 
ATOM      5  C   UNL     1       0.473  -7.860   5.885  0.00  0.00    +0.090 C 
ATOM      6  C   UNL     1       0.073  -7.502   4.452  0.00  0.00    +0.106 C 
ENDROOT
BRANCH   5   7
ATOM      7  N   UNL     1       0.253  -9.290   6.113  0.00  0.00    -0.277 N 
ATOM      8  C   UNL     1       0.045  -9.749   7.363  0.00  0.00    +0.401 C 
ATOM      9  O   UNL     1       0.041  -8.977   8.301  0.00  0.00    -0.226 OA
ATOM     10  H   UNL     1       0.257  -9.906   5.364  0.00  0.00    +0.152 HD
BRANCH   8  11
ATOM     11  O   UNL     1      -0.157 -11.063   7.573  0.00  0.00    -0.445 OA
BRANCH  11  12
ATOM     12  C   UNL     1      -0.370 -11.480   8.923  0.00  0.00    +0.107 C 
ATOM     13  C   UNL     1      -1.609 -10.779   9.483  0.00  0.00    +0.055 C 
ATOM     14  C   UNL     1      -0.580 -12.995   8.962  0.00  0.00    +0.055 C 
ATOM     15  C   UNL     1       0.850 -11.112   9.769  0.00  0.00    +0.055 C 
ENDBRANCH  11  12
ENDBRANCH   8  11
ENDBRANCH   5   7
BRANCH   1  16
ATOM     16  C   UNL     1      -0.188  -5.664   2.898  0.00  0.00    +0.113 C 
BRANCH  16  17
ATOM     17  C   UNL     1      -1.712  -5.546   2.946  0.00  0.00    +0.112 C 
BRANCH  17  18
ATOM     18  O   UNL     1      -2.081  -4.492   3.836  0.00  0.00    -0.392 OA
ATOM     19  H   UNL     1      -1.736  -3.625   3.584  0.00  0.00    +0.210 HD
ENDBRANCH  17  18
BRANCH  17  20
ATOM     20  C   UNL     1      -2.244  -5.240   1.544  0.00  0.00    -0.046 C 
BRANCH  20  25
ATOM     21  C   UNL     1      -7.881  -5.746   0.841  0.00  0.00    +0.007 C 
ATOM     22  C   UNL     1      -6.367  -5.916   0.704  0.00  0.00    -0.018 C 
ATOM     23  C   UNL     1      -5.782  -6.392   2.036  0.00  0.00    -0.016 C 
ATOM     24  C   UNL     1      -4.259  -6.484   1.915  0.00  0.00    -0.078 C 
ATOM     25  N   UNL     1      -3.711  -5.164   1.583  0.00  0.00    +0.381 N 
ATOM     26  C   UNL     1      -4.211  -4.732   0.272  0.00  0.00    -0.078 C 
ATOM     27  C   UNL     1      -5.732  -4.573   0.330  0.00  0.00    -0.016 C 
ATOM     28  H   UNL     1      -3.993  -4.497   2.285  0.00  0.00    -0.082 HD
ENDBRANCH  20  25
ENDBRANCH  17  20
ENDBRANCH  16  17
ENDBRANCH   1  16
TORSDOF 8
