REMARK  Name = ZINC52648244
REMARK  7 active torsions:
REMARK  status: ('A' for Active; 'I' for Inactive)
REMARK    1  A    between atoms: C_1  and  C_2
REMARK    2  A    between atoms: C_4  and  O_9
REMARK    3  A    between atoms: O_9  and  C_10
REMARK    4  A    between atoms: C_10  and  C_11
REMARK    5  A    between atoms: C_13  and  C_18
REMARK    6  A    between atoms: C_14  and  C_16
REMARK    7  A    between atoms: C_16  and  N_17
REMARK                            x       y       z     vdW  Elec       q    Type
REMARK                         _______ _______ _______ _____ _____    ______ ____
ROOT
ATOM      1  C   UNL     1       0.048  -4.746  -3.712  0.00  0.00    +0.143 A 
ATOM      2  C   UNL     1       1.139  -5.034  -4.444  0.00  0.00    +0.051 A 
ATOM      3  C   UNL     1       0.681  -5.544  -5.680  0.00  0.00    -0.011 A 
ATOM      4  C   UNL     1      -0.663  -5.537  -5.630  0.00  0.00    +0.091 A 
ATOM      5  O   UNL     1      -1.041  -5.059  -4.434  0.00  0.00    -0.463 OA
ATOM      6  C   UNL     1       1.534  -6.006  -6.833  0.00  0.00    +0.047 C 
ENDROOT
BRANCH   1   7
ATOM      7  C   UNL     1       0.047  -4.176  -2.317  0.00  0.00    +0.303 C 
BRANCH   7   8
ATOM      8  O   UNL     1       0.028  -2.749  -2.386  0.00  0.00    -0.484 OA
BRANCH   8  12
ATOM      9  C   UNL     1      -0.018   1.503   0.010  0.00  0.00    +0.045 C 
ATOM     10  C   UNL     1       0.002  -0.004   0.002  0.00  0.00    -0.029 A 
ATOM     11  C   UNL     1       0.006  -0.688  -1.199  0.00  0.00    +0.050 A 
ATOM     12  C   UNL     1       0.025  -2.075  -1.206  0.00  0.00    +0.121 A 
ATOM     13  C   UNL     1       0.040  -2.773  -0.007  0.00  0.00    +0.047 A 
ATOM     14  C   UNL     1       0.036  -2.086   1.192  0.00  0.00    +0.024 A 
ATOM     15  C   UNL     1       0.023  -0.702   1.196  0.00  0.00    +0.044 A 
ATOM     16 CL   UNL     1       0.025   0.160   2.704  0.00  0.00    -0.083 Cl
ENDBRANCH   8  12
ENDBRANCH   7   8
ENDBRANCH   1   7
BRANCH   4  17
ATOM     17  C   UNL     1      -1.588  -5.995  -6.729  0.00  0.00    -0.010 C 
BRANCH  17  18
ATOM     18  N   UNL     1      -1.876  -7.426  -6.562  0.00  0.00    +0.383 N 
ATOM     19  H   UNL     1      -1.014  -7.949  -6.608  0.00  0.00    -0.089 HD
ATOM     20  H   UNL     1      -2.315  -7.579  -5.667  0.00  0.00    -0.089 HD
ATOM     21  H   UNL     1      -2.495  -7.732  -7.298  0.00  0.00    -0.089 HD
ENDBRANCH  17  18
ENDBRANCH   4  17
TORSDOF 5
