REMARK  Name = ZINC53994232
REMARK  6 active torsions:
REMARK  status: ('A' for Active; 'I' for Inactive)
REMARK    1  A    between atoms: C_1  and  C_2
REMARK    2  A    between atoms: N_4  and  C_5
REMARK    3  A    between atoms: C_6  and  N_24
REMARK    4  A    between atoms: N_7  and  C_18
REMARK    5  A    between atoms: C_9  and  S_10
REMARK    6  A    between atoms: S_10  and  C_11
REMARK                            x       y       z     vdW  Elec       q    Type
REMARK                         _______ _______ _______ _____ _____    ______ ____
ROOT
ATOM      1  C   UNL     1       0.226  -2.066  -1.148  0.00  0.00    +0.108 A 
ATOM      2  C   UNL     1       0.624  -2.828  -2.207  0.00  0.00    +0.142 A 
ATOM      3  N   UNL     1       0.543  -4.135  -1.826  0.00  0.00    -0.216 N 
ATOM      4  N   UNL     1       0.085  -4.171  -0.503  0.00  0.00    -0.156 NA
ATOM      5  C   UNL     1      -0.100  -2.937  -0.092  0.00  0.00    +0.147 A 
ENDROOT
BRANCH   3   6
ATOM      6  C   UNL     1       0.861  -5.245  -2.619  0.00  0.00    +0.068 A 
ATOM      7  C   UNL     1       0.608  -5.220  -3.984  0.00  0.00    +0.028 A 
ATOM      8  C   UNL     1       0.923  -6.316  -4.763  0.00  0.00    +0.002 A 
ATOM      9  C   UNL     1       1.489  -7.437  -4.185  0.00  0.00    +0.000 A 
ATOM     10  C   UNL     1       1.742  -7.465  -2.825  0.00  0.00    +0.002 A 
ATOM     11  C   UNL     1       1.435  -6.370  -2.042  0.00  0.00    +0.028 A 
ENDBRANCH   3   6
BRANCH   1  15
ATOM     12  C   UNL     1       0.987   1.542  -0.337  0.00  0.00    +0.109 C 
ATOM     13  C   UNL     1       0.956   0.037  -0.275  0.00  0.00    +0.214 C 
ATOM     14  O   UNL     1       1.648  -0.551   0.530  0.00  0.00    -0.276 OA
ATOM     15  N   UNL     1       0.160  -0.656  -1.115  0.00  0.00    -0.281 N 
ATOM     16  H   UNL     1      -0.459  -0.186  -1.696  0.00  0.00    +0.155 HD
ENDBRANCH   1  15
BRANCH   2  17
ATOM     17  N   UNL     1       1.038  -2.356  -3.453  0.00  0.00    -0.342 N 
ATOM     18  H   UNL     1       1.060  -1.402  -3.627  0.00  0.00    +0.144 HD
ATOM     19  H   UNL     1       1.302  -2.982  -4.145  0.00  0.00    +0.144 HD
ENDBRANCH   2  17
BRANCH   5  20
ATOM     20  S   UNL     1      -0.664  -2.456   1.506  0.00  0.00    -0.066 S 
BRANCH  20  21
ATOM     21  C   UNL     1      -0.660  -3.956   2.430  0.00  0.00    +0.014 A 
ATOM     22  C   UNL     1       0.511  -4.400   3.032  0.00  0.00    +0.016 A 
ATOM     23  C   UNL     1       0.511  -5.576   3.755  0.00  0.00    +0.021 A 
ATOM     24  C   UNL     1      -0.654  -6.313   3.880  0.00  0.00    +0.041 A 
ATOM     25  C   UNL     1      -1.822  -5.874   3.281  0.00  0.00    +0.021 A 
ATOM     26  C   UNL     1      -1.829  -4.696   2.562  0.00  0.00    +0.016 A 
ATOM     27 CL   UNL     1      -0.650  -7.792   4.790  0.00  0.00    -0.084 Cl
ENDBRANCH  20  21
ENDBRANCH   5  20
TORSDOF 5
