REMARK  Name = ZINC38547014
REMARK  9 active torsions:
REMARK  status: ('A' for Active; 'I' for Inactive)
REMARK    1  A    between atoms: C_1  and  C_2
REMARK    2  A    between atoms: N_8  and  C_9
REMARK    3  A    between atoms: C_9  and  C_11
REMARK    4  A    between atoms: C_9  and  C_19
REMARK    5  A    between atoms: C_14  and  S_17
REMARK    6  A    between atoms: S_17  and  C_18
REMARK    7  A    between atoms: C_21  and  C_32
REMARK    8  A    between atoms: C_23  and  N_24
REMARK    9  A    between atoms: C_25  and  C_27
REMARK                            x       y       z     vdW  Elec       q    Type
REMARK                         _______ _______ _______ _____ _____    ______ ____
ROOT
ATOM      1  C   UNL     1      -0.042  -2.088   3.577  0.00  0.00    +0.135 C 
ENDROOT
BRANCH   1   9
ATOM      2  C   UNL     1      -3.186  -6.019   4.552  0.00  0.00    +0.044 C 
ATOM      3  C   UNL     1      -2.418  -5.541   3.347  0.00  0.00    -0.046 A 
ATOM      4  C   UNL     1      -2.510  -6.211   2.134  0.00  0.00    +0.021 A 
ATOM      5  C   UNL     1      -1.794  -5.747   1.050  0.00  0.00    +0.084 A 
ATOM      6  N   UNL     1      -1.026  -4.679   1.152  0.00  0.00    -0.350 N 
ATOM      7  C   UNL     1      -0.911  -4.013   2.291  0.00  0.00    +0.097 A 
ATOM      8  C   UNL     1      -1.609  -4.421   3.423  0.00  0.00    +0.045 A 
ATOM      9  N   UNL     1      -0.090  -2.893   2.354  0.00  0.00    -0.320 N 
ATOM     10  H   UNL     1       0.451  -2.645   1.589  0.00  0.00    +0.148 HD
ATOM     11  H   UNL     1      -0.533  -4.374   0.374  0.00  0.00    +0.166 HD
ENDBRANCH   1   9
BRANCH   1  12
ATOM     12  C   UNL     1       1.239  -1.295   3.607  0.00  0.00    -0.023 A 
ATOM     13  C   UNL     1       1.649  -0.604   2.482  0.00  0.00    +0.007 A 
ATOM     14  C   UNL     1       2.823   0.123   2.505  0.00  0.00    +0.015 A 
ATOM     15  C   UNL     1       3.592   0.160   3.662  0.00  0.00    +0.008 A 
ATOM     16  C   UNL     1       3.176  -0.535   4.792  0.00  0.00    +0.015 A 
ATOM     17  C   UNL     1       1.999  -1.256   4.762  0.00  0.00    +0.007 A 
BRANCH  15  18
ATOM     18  S   UNL     1       5.090   1.086   3.697  0.00  0.00    -0.129 S 
ATOM     19  C   UNL     1       5.722   0.836   5.379  0.00  0.00    +0.090 C 
ENDBRANCH  15  18
ENDBRANCH   1  12
BRANCH   1  20
ATOM     20  C   UNL     1      -1.218  -1.145   3.604  0.00  0.00    +0.006 A 
ATOM     21  C   UNL     1      -1.811  -0.727   2.427  0.00  0.00    +0.018 A 
ATOM     22  C   UNL     1      -2.866   0.121   2.487  0.00  0.00    -0.011 A 
ATOM     23  S   UNL     1      -3.055   0.358   4.246  0.00  0.00    -0.078 S 
ATOM     24  C   UNL     1      -1.718  -0.694   4.788  0.00  0.00    +0.078 A 
ATOM     25  C   UNL     1      -3.672   0.713   1.359  0.00  0.00    +0.051 C 
BRANCH  24  26
ATOM     26  N   UNL     1      -1.294  -0.978   6.088  0.00  0.00    -0.273 N 
ATOM     27  C   UNL     1      -1.929  -0.424   7.140  0.00  0.00    +0.284 C 
ATOM     28  O   UNL     1      -2.872   0.323   6.957  0.00  0.00    -0.266 OA
ATOM     29  H   UNL     1      -0.542  -1.574   6.233  0.00  0.00    +0.156 HD
BRANCH  27  30
ATOM     30  C   UNL     1      -1.484  -0.723   8.505  0.00  0.00    +0.189 A 
ATOM     31  C   UNL     1      -2.038  -0.237   9.654  0.00  0.00    +0.054 A 
ATOM     32  C   UNL     1      -1.301  -0.780  10.718  0.00  0.00    +0.042 A 
ATOM     33  C   UNL     1      -0.342  -1.563  10.179  0.00  0.00    +0.196 A 
ATOM     34  O   UNL     1      -0.458  -1.530   8.845  0.00  0.00    -0.458 OA
ENDBRANCH  27  30
ENDBRANCH  24  26
ENDBRANCH   1  20
TORSDOF 6
