REMARK  Name = ZINC45913815
REMARK  4 active torsions:
REMARK  status: ('A' for Active; 'I' for Inactive)
REMARK    1  A    between atoms: C_1  and  C_2
REMARK    2  A    between atoms: C_3  and  C_19
REMARK    3  A    between atoms: C_7  and  N_11
REMARK    4  A    between atoms: N_16  and  C_17
REMARK                            x       y       z     vdW  Elec       q    Type
REMARK                         _______ _______ _______ _____ _____    ______ ____
ROOT
ATOM      1  C   UNL     1      -0.590   1.484   0.124  0.00  0.00    +0.045 C 
ATOM      2  C   UNL     1      -0.514  -0.021   0.105  0.00  0.00    -0.028 A 
ATOM      3  C   UNL     1      -0.814  -0.701  -1.012  0.00  0.00    -0.008 A 
ATOM      4  S   UNL     1      -0.579  -2.404  -0.538  0.00  0.00    -0.074 S 
ATOM      5  C   UNL     1      -0.086  -2.157   1.147  0.00  0.00    +0.114 A 
ATOM      6  C   UNL     1      -0.111  -0.752   1.294  0.00  0.00    +0.051 A 
ATOM      7  C   UNL     1       0.256  -0.267   2.579  0.00  0.00    +0.137 A 
ATOM      8  N   UNL     1       0.591  -1.131   3.523  0.00  0.00    -0.220 NA
ATOM      9  C   UNL     1       0.597  -2.435   3.313  0.00  0.00    +0.224 A 
ATOM     10  N   UNL     1       0.257  -2.946   2.145  0.00  0.00    -0.228 NA
ATOM     11  C   UNL     1      -1.246  -0.156  -2.349  0.00  0.00    +0.052 C 
ENDROOT
BRANCH   7  12
ATOM     12  N   UNL     1       0.262   1.094   2.839  0.00  0.00    -0.271 N 
ATOM     13  C   UNL     1       0.485   1.552   4.129  0.00  0.00    +0.181 A 
ATOM     14  N   UNL     1       0.708   0.800   5.181  0.00  0.00    -0.295 N 
ATOM     15  C   UNL     1       0.881   1.583   6.261  0.00  0.00    +0.267 A 
ATOM     16  C   UNL     1       0.763   2.869   5.873  0.00  0.00    +0.158 A 
ATOM     17  N   UNL     1       0.517   2.855   4.514  0.00  0.00    -0.319 N 
ATOM     18  C   UNL     1       0.323   4.024   3.652  0.00  0.00    +0.151 C 
ATOM     19  O   UNL     1       1.131   1.151   7.527  0.00  0.00    -0.266 OA
ATOM     20  H   UNL     1       0.110   1.726   2.119  0.00  0.00    +0.156 HD
ATOM     21  H   UNL     1       0.742  -0.170   5.181  0.00  0.00    +0.172 HD
ENDBRANCH   7  12
TORSDOF 1
