REMARK  Name = ZINC19799213
REMARK  4 active torsions:
REMARK  status: ('A' for Active; 'I' for Inactive)
REMARK    1  A    between atoms: C_4  and  C_7
REMARK    2  A    between atoms: C_13  and  N_14
REMARK    3  A    between atoms: C_23  and  C_25
REMARK    4  A    between atoms: C_30  and  O_31
REMARK                            x       y       z     vdW  Elec       q    Type
REMARK                         _______ _______ _______ _____ _____    ______ ____
ROOT
ATOM      1  C   UNL     1       3.337  -2.547  -2.400  0.00  0.00    +0.103 C 
ATOM      2  N   UNL     1       4.371  -2.446  -3.191  0.00  0.00    -0.169 NA
ATOM      3  N   UNL     1       5.555  -2.745  -2.518  0.00  0.00    -0.118 N 
ATOM      4  C   UNL     1       5.297  -3.058  -1.233  0.00  0.00    +0.277 C 
ATOM      5  O   UNL     1       6.109  -3.367  -0.378  0.00  0.00    -0.268 OA
ATOM      6  C   UNL     1       3.840  -2.944  -1.067  0.00  0.00    +0.083 C 
ATOM      7  C   UNL     1       3.106  -3.161   0.077  0.00  0.00    +0.112 C 
ATOM      8  C   UNL     1       6.782  -2.726  -3.075  0.00  0.00    +0.277 C 
ATOM      9  O   UNL     1       7.742  -3.120  -2.442  0.00  0.00    -0.268 OA
ENDROOT
BRANCH   7  10
ATOM     10  N   UNL     1       1.765  -2.893   0.090  0.00  0.00    -0.263 N 
ATOM     11  C   UNL     1       0.883  -3.903   0.223  0.00  0.00    +0.262 A 
ATOM     12  O   UNL     1       1.277  -5.052   0.332  0.00  0.00    -0.267 OA
ATOM     13  C   UNL     1      -0.494  -3.624   0.236  0.00  0.00    +0.140 A 
ATOM     14  C   UNL     1      -0.909  -2.330   0.113  0.00  0.00    +0.256 A 
ATOM     15  O   UNL     1      -2.225  -2.034   0.123  0.00  0.00    -0.268 OA
ATOM     16  N   UNL     1       0.023  -1.332  -0.020  0.00  0.00    -0.302 N 
ATOM     17  C   UNL     1       1.337  -1.623  -0.024  0.00  0.00    +0.167 A 
ATOM     18  S   UNL     1       2.480  -0.359  -0.185  0.00  0.00    -0.012 S 
ATOM     19  H   UNL     1      -0.267  -0.411  -0.108  0.00  0.00    +0.171 HD
ENDBRANCH   7  10
BRANCH   1  23
ATOM     20  C   UNL     1      -0.721  -1.849  -3.455  0.00  0.00    +0.000 A 
ATOM     21  C   UNL     1       0.214  -0.840  -3.605  0.00  0.00    +0.001 A 
ATOM     22  C   UNL     1       1.532  -1.060  -3.264  0.00  0.00    +0.010 A 
ATOM     23  C   UNL     1       1.923  -2.304  -2.767  0.00  0.00    +0.003 A 
ATOM     24  C   UNL     1       0.976  -3.317  -2.619  0.00  0.00    +0.010 A 
ATOM     25  C   UNL     1      -0.339  -3.084  -2.963  0.00  0.00    +0.001 A 
ENDBRANCH   1  23
BRANCH   8  26
ATOM     26  C   UNL     1       6.960  -2.229  -4.451  0.00  0.00    +0.080 A 
ATOM     27  C   UNL     1       5.889  -1.640  -5.129  0.00  0.00    +0.017 A 
ATOM     28  C   UNL     1       6.062  -1.176  -6.415  0.00  0.00    +0.001 A 
ATOM     29  C   UNL     1       7.294  -1.291  -7.040  0.00  0.00    +0.004 A 
ATOM     30  C   UNL     1       8.360  -1.871  -6.381  0.00  0.00    +0.046 A 
ATOM     31  C   UNL     1       8.206  -2.338  -5.085  0.00  0.00    +0.129 A 
BRANCH  31  32
ATOM     32  O   UNL     1       9.254  -2.903  -4.435  0.00  0.00    -0.506 OA
ATOM     33  H   UNL     1       9.327  -3.858  -4.563  0.00  0.00    +0.292 HD
ENDBRANCH  31  32
ENDBRANCH   8  26
TORSDOF 4
