REMARK  Name = ZINC67273411
REMARK  4 active torsions:
REMARK  status: ('A' for Active; 'I' for Inactive)
REMARK    1  A    between atoms: C_1  and  N_2
REMARK    2  A    between atoms: N_2  and  C_3
REMARK    3  A    between atoms: C_4  and  C_6
REMARK    4  A    between atoms: C_12  and  C_14
REMARK                            x       y       z     vdW  Elec       q    Type
REMARK                         _______ _______ _______ _____ _____    ______ ____
ROOT
ATOM      1  C   UNL     1      -4.748  -2.851  -1.093  0.00  0.00    +0.075 C 
ATOM      2  C   UNL     1      -4.728  -4.380  -1.144  0.00  0.00    +0.015 C 
ATOM      3  C   UNL     1      -6.165  -4.908  -1.158  0.00  0.00    +0.036 C 
ATOM      4  C   UNL     1      -6.901  -4.352  -2.372  0.00  0.00    +0.112 C 
ATOM      5  C   UNL     1      -6.908  -2.828  -2.348  0.00  0.00    +0.036 C 
ATOM      6  C   UNL     1      -5.468  -2.308  -2.329  0.00  0.00    +0.015 C 
ATOM      7  C   UNL     1      -6.271  -4.858  -3.649  0.00  0.00    +0.244 C 
ATOM      8  O   UNL     1      -5.136  -4.671  -4.031  0.00  0.00    -0.273 OA
ATOM      9  N   UNL     1      -7.239  -5.561  -4.274  0.00  0.00    -0.238 N 
ATOM     10  C   UNL     1      -8.377  -5.565  -3.571  0.00  0.00    +0.307 C 
ATOM     11  O   UNL     1      -9.391  -6.132  -3.929  0.00  0.00    -0.252 OA
ATOM     12  N   UNL     1      -8.274  -4.871  -2.421  0.00  0.00    -0.285 N 
ATOM     13  H   UNL     1      -7.123  -6.007  -5.127  0.00  0.00    +0.159 HD
ATOM     14  H   UNL     1      -8.969  -4.740  -1.758  0.00  0.00    +0.151 HD
ENDROOT
BRANCH   1  20
ATOM     15  C   UNL     1      -1.135  -2.201   0.001  0.00  0.00    +0.173 C 
ATOM     16  C   UNL     1      -0.346  -2.688   1.241  0.00  0.00    +0.102 C 
ATOM     17  S   UNL     1      -1.750  -3.124   2.362  0.00  0.00    -0.139 S 
ATOM     18  C   UNL     1      -2.948  -3.571   1.028  0.00  0.00    +0.178 C 
ATOM     19  N   UNL     1      -2.506  -2.680  -0.062  0.00  0.00    -0.280 N 
ATOM     20  C   UNL     1      -3.333  -2.331  -1.066  0.00  0.00    +0.220 C 
ATOM     21  O   UNL     1      -2.940  -1.599  -1.949  0.00  0.00    -0.275 OA
BRANCH  15  25
ATOM     22  C   UNL     1      -0.018   1.461   0.010  0.00  0.00    +0.131 C 
ATOM     23  N   UNL     1       0.002  -0.004   0.002  0.00  0.00    -0.306 N 
ATOM     24  C   UNL     1       1.281  -0.719  -0.014  0.00  0.00    +0.131 C 
ATOM     25  C   UNL     1      -1.156  -0.694   0.009  0.00  0.00    +0.236 C 
ATOM     26  O   UNL     1      -2.214  -0.102   0.023  0.00  0.00    -0.274 OA
ENDBRANCH  15  25
ENDBRANCH   1  20
TORSDOF 2
