REMARK  Name = ZINC35367819
REMARK  3 active torsions:
REMARK  status: ('A' for Active; 'I' for Inactive)
REMARK    1  A    between atoms: C_3  and  N_8
REMARK    2  A    between atoms: C_6  and  N_7
REMARK    3  A    between atoms: C_14  and  C_16
REMARK                            x       y       z     vdW  Elec       q    Type
REMARK                         _______ _______ _______ _____ _____    ______ ____
ROOT
ATOM      1  N   UNL     1       3.666   1.989  -0.178  0.00  0.00    -0.314 N 
ATOM      2  C   UNL     1       3.721   3.453  -0.296  0.00  0.00    +0.125 C 
ATOM      3  C   UNL     1       4.460   4.015   0.924  0.00  0.00    +0.127 C 
ATOM      4  N   UNL     1       5.715   3.271   1.097  0.00  0.00    -0.295 N 
ATOM      5  C   UNL     1       5.660   1.807   1.215  0.00  0.00    +0.127 C 
ATOM      6  C   UNL     1       4.921   1.245   0.001  0.00  0.00    +0.125 C 
ATOM      7  C   UNL     1       6.896   3.919   1.146  0.00  0.00    +0.247 C 
ATOM      8  O   UNL     1       7.935   3.288   1.180  0.00  0.00    -0.270 OA
ENDROOT
BRANCH   1  11
ATOM      9  C   UNL     1       0.055   1.373  -0.306  0.00  0.00    +0.027 A 
ATOM     10  C   UNL     1       1.262   2.047  -0.255  0.00  0.00    +0.043 A 
ATOM     11  C   UNL     1       2.446   1.319  -0.229  0.00  0.00    +0.099 A 
ATOM     12  N   UNL     1       2.426  -0.005  -0.251  0.00  0.00    -0.348 N 
ATOM     13  C   UNL     1       1.294  -0.681  -0.300  0.00  0.00    +0.106 A 
ATOM     14  C   UNL     1       0.074  -0.021  -0.329  0.00  0.00    +0.041 A 
ATOM     15  H   UNL     1       3.266  -0.490  -0.232  0.00  0.00    +0.167 HD
BRANCH  14  16
ATOM     16  N   UNL     1      -1.123  -0.745  -0.379  0.00  0.00    -0.357 N 
ATOM     17  H   UNL     1      -1.972  -0.278  -0.399  0.00  0.00    +0.142 HD
ATOM     18  H   UNL     1      -1.102  -1.715  -0.395  0.00  0.00    +0.142 HD
ENDBRANCH  14  16
ENDBRANCH   1  11
BRANCH   7  19
ATOM     19  C   UNL     1       6.928   5.391   1.159  0.00  0.00    +0.044 A 
ATOM     20  C   UNL     1       7.939   6.131   0.443  0.00  0.00    +0.020 A 
ATOM     21  C   UNL     1       7.857   7.473   0.535  0.00  0.00    +0.046 A 
ATOM     22  S   UNL     1       6.433   7.721   1.574  0.00  0.00    -0.104 S 
ATOM     23  C   UNL     1       5.990   6.126   1.850  0.00  0.00    +0.058 A 
ENDBRANCH   7  19
TORSDOF 3
