REMARK  Name = ZINC07696500
REMARK  11 active torsions:
REMARK  status: ('A' for Active; 'I' for Inactive)
REMARK    1  A    between atoms: C_1  and  C_2
REMARK    2  A    between atoms: C_2  and  C_3
REMARK    3  A    between atoms: C_3  and  N_50
REMARK    4  A    between atoms: C_4  and  C_5
REMARK    5  A    between atoms: C_4  and  N_50
REMARK    6  A    between atoms: N_7  and  C_8
REMARK    7  A    between atoms: C_13  and  C_14
REMARK    8  A    between atoms: C_15  and  C_16
REMARK    9  A    between atoms: C_15  and  N_50
REMARK   10  A    between atoms: N_21  and  C_22
REMARK   11  A    between atoms: C_22  and  C_23
REMARK                            x       y       z     vdW  Elec       q    Type
REMARK                         _______ _______ _______ _____ _____    ______ ____
ROOT
ATOM      1  N   UNL     1       1.823   0.796   0.182  0.00  0.00    +0.391 N 
ATOM      2  H   UNL     1       1.431   0.164  -0.526  0.00  0.00    -0.080 HD
ENDROOT
BRANCH   1   3
ATOM      3  C   UNL     1       1.665   0.180   1.516  0.00  0.00    -0.078 C 
BRANCH   3   5
ATOM      4  C   UNL     1       0.084  -1.080   2.984  0.00  0.00    +0.002 C 
ATOM      5  C   UNL     1       0.281  -0.468   1.595  0.00  0.00    -0.022 C 
ENDBRANCH   3   5
ENDBRANCH   1   3
BRANCH   1   6
ATOM      6  C   UNL     1       1.098   2.083   0.131  0.00  0.00    +0.020 C 
BRANCH   6   7
ATOM      7  C   UNL     1       0.867   2.450  -1.313  0.00  0.00    +0.201 C 
ATOM      8  O   UNL     1       1.306   1.744  -2.196  0.00  0.00    -0.278 OA
ATOM      9  N   UNL     1       0.178   3.566  -1.622  0.00  0.00    -0.287 N 
ATOM     10  H   UNL     1      -0.115   4.166  -0.918  0.00  0.00    +0.155 HD
BRANCH   9  11
ATOM     11  C   UNL     1      -0.114   3.860  -2.959  0.00  0.00    +0.036 A 
ATOM     12  C   UNL     1       0.736   3.428  -3.968  0.00  0.00    +0.023 A 
ATOM     13  C   UNL     1       0.443   3.716  -5.287  0.00  0.00    +0.002 A 
ATOM     14  C   UNL     1      -0.692   4.442  -5.601  0.00  0.00    +0.000 A 
ATOM     15  C   UNL     1      -1.538   4.877  -4.598  0.00  0.00    +0.005 A 
ATOM     16  C   UNL     1      -1.252   4.588  -3.278  0.00  0.00    -0.029 A 
ATOM     17  C   UNL     1      -2.175   5.064  -2.185  0.00  0.00    +0.045 C 
ENDBRANCH   9  11
ENDBRANCH   6   7
ENDBRANCH   1   6
BRANCH   1  18
ATOM     18  C   UNL     1       3.256   1.012  -0.108  0.00  0.00    +0.020 C 
BRANCH  18  19
ATOM     19  C   UNL     1       3.927  -0.328  -0.268  0.00  0.00    +0.204 C 
ATOM     20  O   UNL     1       3.284  -1.347  -0.136  0.00  0.00    -0.277 OA
ATOM     21  N   UNL     1       5.242  -0.393  -0.557  0.00  0.00    -0.242 N 
ATOM     22  C   UNL     1       5.842  -1.592  -0.699  0.00  0.00    +0.306 C 
ATOM     23  O   UNL     1       5.197  -2.614  -0.568  0.00  0.00    -0.252 OA
ATOM     24  N   UNL     1       7.157  -1.657  -0.988  0.00  0.00    -0.291 N 
ATOM     25  H   UNL     1       5.756   0.422  -0.662  0.00  0.00    +0.159 HD
ATOM     26  H   UNL     1       7.671  -0.841  -1.093  0.00  0.00    +0.151 HD
BRANCH  24  27
ATOM     27  C   UNL     1       7.809  -2.959  -1.143  0.00  0.00    +0.219 C 
BRANCH  27  28
ATOM     28  C   UNL     1       9.290  -2.753  -1.466  0.00  0.00    +0.405 C 
ATOM     29  F   UNL     1       9.901  -2.047  -0.424  0.00  0.00    -0.169 F 
ATOM     30  F   UNL     1       9.913  -3.997  -1.614  0.00  0.00    -0.169 F 
ATOM     31  F   UNL     1       9.411  -2.026  -2.655  0.00  0.00    -0.169 F 
ENDBRANCH  27  28
ENDBRANCH  24  27
ENDBRANCH  18  19
ENDBRANCH   1  18
TORSDOF 9
