REMARK  Name = ZINC50395490
REMARK  3 active torsions:
REMARK  status: ('A' for Active; 'I' for Inactive)
REMARK    1  A    between atoms: C_1  and  C_2
REMARK    2  A    between atoms: C_11  and  N_13
REMARK    3  A    between atoms: N_13  and  C_14
REMARK                            x       y       z     vdW  Elec       q    Type
REMARK                         _______ _______ _______ _____ _____    ______ ____
ROOT
ATOM      1  C   UNL     1      -0.638   1.817   0.407  0.00  0.00    +0.045 C 
ATOM      2  C   UNL     1      -0.409   0.333   0.290  0.00  0.00    -0.029 A 
ATOM      3  C   UNL     1      -0.286  -0.249  -0.955  0.00  0.00    +0.005 A 
ATOM      4  C   UNL     1      -0.077  -1.611  -1.073  0.00  0.00    +0.001 A 
ATOM      5  C   UNL     1       0.010  -2.395   0.065  0.00  0.00    +0.004 A 
ATOM      6  C   UNL     1      -0.112  -1.817   1.308  0.00  0.00    -0.031 A 
ATOM      7  C   UNL     1      -0.317  -0.449   1.439  0.00  0.00    +0.038 A 
ATOM      8  N   UNL     1      -0.402  -0.102   2.788  0.00  0.00    -0.286 N 
ATOM      9  C   UNL     1      -0.259  -1.165   3.597  0.00  0.00    +0.208 C 
ATOM     10  O   UNL     1      -0.288  -1.157   4.810  0.00  0.00    -0.277 OA
ATOM     11  C   UNL     1      -0.067  -2.377   2.711  0.00  0.00    +0.050 C 
ATOM     12  H   UNL     1      -0.546   0.803   3.105  0.00  0.00    +0.155 HD
ENDROOT
BRANCH  11  13
ATOM     13  N   UNL     1      -1.147  -3.353   2.910  0.00  0.00    +0.397 N 
ATOM     14  H   UNL     1      -2.038  -2.883   2.859  0.00  0.00    -0.083 HD
ATOM     15  H   UNL     1      -1.098  -4.061   2.193  0.00  0.00    -0.083 HD
BRANCH  13  16
ATOM     16  C   UNL     1      -1.000  -3.983   4.229  0.00  0.00    +0.017 C 
ATOM     17  C   UNL     1      -2.251  -4.809   4.540  0.00  0.00    -0.005 C 
ATOM     18  C   UNL     1      -1.968  -5.670   5.778  0.00  0.00    +0.018 C 
ATOM     19  C   UNL     1      -0.912  -6.715   5.416  0.00  0.00    +0.104 C 
ATOM     20  N   UNL     1       0.237  -6.082   4.782  0.00  0.00    -0.317 N 
ATOM     21  C   UNL     1       0.210  -4.872   4.226  0.00  0.00    +0.199 C 
ATOM     22  O   UNL     1       1.219  -4.465   3.690  0.00  0.00    -0.278 OA
ATOM     23  H   UNL     1       1.073  -6.573   4.762  0.00  0.00    +0.149 HD
ENDBRANCH  13  16
ENDBRANCH  11  13
TORSDOF 2
