REMARK  Name = ZINC48474833
REMARK  5 active torsions:
REMARK  status: ('A' for Active; 'I' for Inactive)
REMARK    1  A    between atoms: C_1  and  C_2
REMARK    2  A    between atoms: C_7  and  N_8
REMARK    3  A    between atoms: N_11  and  C_12
REMARK    4  A    between atoms: C_12  and  C_14
REMARK    5  A    between atoms: C_12  and  C_15
REMARK                            x       y       z     vdW  Elec       q    Type
REMARK                         _______ _______ _______ _____ _____    ______ ____
ROOT
ATOM      1  N   UNL     1       0.025  -0.014   2.417  0.00  0.00    -0.269 N 
ATOM      2  C   UNL     1      -0.057  -0.693   3.578  0.00  0.00    +0.304 C 
ATOM      3  O   UNL     1      -0.040  -1.909   3.574  0.00  0.00    -0.252 OA
ATOM      4  N   UNL     1      -0.157  -0.025   4.745  0.00  0.00    -0.290 N 
ATOM      5  H   UNL     1       0.077   0.955   2.425  0.00  0.00    +0.156 HD
ATOM      6  H   UNL     1      -0.170   0.945   4.748  0.00  0.00    +0.151 HD
ENDROOT
BRANCH   1  13
ATOM      7  C   UNL     1      -1.266   1.182   0.181  0.00  0.00    +0.046 C 
ATOM      8  C   UNL     1      -0.585  -0.158   0.085  0.00  0.00    -0.028 A 
ATOM      9  C   UNL     1      -0.570  -0.841  -1.116  0.00  0.00    +0.020 A 
ATOM     10  C   UNL     1       0.056  -2.072  -1.206  0.00  0.00    +0.018 A 
ATOM     11  C   UNL     1       0.668  -2.622  -0.094  0.00  0.00    +0.017 A 
ATOM     12  C   UNL     1       0.656  -1.944   1.109  0.00  0.00    +0.025 A 
ATOM     13  C   UNL     1       0.034  -0.706   1.200  0.00  0.00    +0.038 A 
ATOM     14 BR   UNL     1       0.073  -3.004  -2.851  0.00  0.00    -0.050 Br
ENDBRANCH   1  13
BRANCH   4  15
ATOM     15  C   UNL     1      -0.245  -0.764   6.007  0.00  0.00    +0.137 C 
ATOM     16  C   UNL     1       1.163  -1.110   6.495  0.00  0.00    +0.036 C 
BRANCH  15  17
ATOM     17  C   UNL     1      -0.940   0.087   7.039  0.00  0.00    +0.125 A 
ATOM     18  C   UNL     1      -1.835  -0.348   7.944  0.00  0.00    +0.046 A 
ATOM     19  C   UNL     1      -2.227   0.776   8.706  0.00  0.00    +0.041 A 
ATOM     20  C   UNL     1      -1.548   1.832   8.220  0.00  0.00    +0.195 A 
ATOM     21  O   UNL     1      -0.766   1.407   7.214  0.00  0.00    -0.466 OA
ENDBRANCH  15  17
ENDBRANCH   4  15
TORSDOF 3
