REMARK  Name = ZINC64218774
REMARK  11 active torsions:
REMARK  status: ('A' for Active; 'I' for Inactive)
REMARK    1  A    between atoms: C_1  and  C_2
REMARK    2  A    between atoms: C_2  and  N_3
REMARK    3  A    between atoms: C_7  and  C_12
REMARK    4  A    between atoms: N_14  and  C_15
REMARK    5  A    between atoms: C_15  and  C_16
REMARK    6  A    between atoms: C_16  and  C_18
REMARK    7  A    between atoms: C_16  and  C_28
REMARK    8  A    between atoms: C_22  and  O_26
REMARK    9  A    between atoms: C_23  and  O_24
REMARK   10  A    between atoms: O_24  and  C_25
REMARK   11  A    between atoms: O_26  and  C_27
REMARK                            x       y       z     vdW  Elec       q    Type
REMARK                         _______ _______ _______ _____ _____    ______ ____
ROOT
ATOM      1  C   UNL     1      -5.413  -1.968  -7.615  0.00  0.00    +0.068 C 
ENDROOT
BRANCH   1   2
ATOM      2  C   UNL     1      -4.270  -2.918  -7.864  0.00  0.00    -0.033 C 
ATOM      3  C   UNL     1      -2.995  -2.593  -8.177  0.00  0.00    -0.000 A 
ATOM      4  C   UNL     1      -2.317  -1.306  -8.373  0.00  0.00    +0.010 A 
ATOM      5  C   UNL     1      -1.002  -1.299  -8.689  0.00  0.00    +0.001 A 
ATOM      6  C   UNL     1      -0.272  -2.487  -8.833  0.00  0.00    +0.002 A 
ATOM      7  C   UNL     1      -0.826  -3.707  -8.668  0.00  0.00    +0.026 A 
ATOM      8  C   UNL     1      -2.202  -3.833  -8.335  0.00  0.00    +0.043 A 
ATOM      9  N   UNL     1      -2.957  -4.884  -8.127  0.00  0.00    -0.380 N 
ATOM     10  C   UNL     1      -4.315  -4.429  -7.808  0.00  0.00    +0.145 C 
ATOM     11  H   UNL     1      -2.666  -5.808  -8.172  0.00  0.00    +0.160 HD
ENDBRANCH   1   2
BRANCH   1  12
ATOM     12  C   UNL     1      -6.516  -2.238  -8.606  0.00  0.00    +0.007 A 
ATOM     13  C   UNL     1      -7.123  -3.480  -8.644  0.00  0.00    +0.008 A 
ATOM     14  C   UNL     1      -8.134  -3.730  -9.552  0.00  0.00    +0.004 A 
ATOM     15  C   UNL     1      -8.544  -2.740 -10.427  0.00  0.00    +0.049 A 
ATOM     16  C   UNL     1      -7.940  -1.494 -10.393  0.00  0.00    +0.162 A 
ATOM     17  C   UNL     1      -6.925  -1.240  -9.475  0.00  0.00    +0.165 A 
BRANCH  17  18
ATOM     18  O   UNL     1      -6.333  -0.016  -9.435  0.00  0.00    -0.491 OA
ATOM     19  C   UNL     1      -5.189   0.179 -10.269  0.00  0.00    +0.277 C 
ENDBRANCH  17  18
BRANCH  16  20
ATOM     20  O   UNL     1      -8.341  -0.519 -11.253  0.00  0.00    -0.491 OA
ATOM     21  C   UNL     1      -9.392  -0.850 -12.164  0.00  0.00    +0.277 C 
ENDBRANCH  16  20
ENDBRANCH   1  12
BRANCH   1  22
ATOM     22  C   UNL     1      -5.944  -2.170  -6.194  0.00  0.00    +0.117 C 
BRANCH  22  25
ATOM     23  C   UNL     1      -5.154  -1.889  -3.906  0.00  0.00    +0.244 C 
ATOM     24  O   UNL     1      -6.234  -2.288  -3.515  0.00  0.00    -0.270 OA
ATOM     25  N   UNL     1      -4.909  -1.793  -5.228  0.00  0.00    -0.310 N 
ATOM     26  H   UNL     1      -4.047  -1.474  -5.540  0.00  0.00    +0.149 HD
BRANCH  23  31
ATOM     27  N   UNL     1      -1.372  -0.511   0.012  0.00  0.00    -0.250 N 
ATOM     28  C   UNL     1      -2.146  -0.792  -1.111  0.00  0.00    +0.068 A 
ATOM     29  C   UNL     1      -1.896  -0.695  -2.474  0.00  0.00    +0.027 A 
ATOM     30  C   UNL     1      -2.870  -1.050  -3.382  0.00  0.00    +0.015 A 
ATOM     31  C   UNL     1      -4.112  -1.510  -2.934  0.00  0.00    +0.039 A 
ATOM     32  C   UNL     1      -4.365  -1.609  -1.562  0.00  0.00    +0.039 A 
ATOM     33  C   UNL     1      -3.386  -1.252  -0.657  0.00  0.00    +0.066 A 
ATOM     34  N   UNL     1      -3.342  -1.241   0.742  0.00  0.00    -0.263 N 
ATOM     35  N   UNL     1      -2.110  -0.794   1.125  0.00  0.00    -0.160 NA
ATOM     36  H   UNL     1      -4.061  -1.508   1.337  0.00  0.00    +0.168 HD
ATOM     37  H   UNL     1      -1.642  -1.472   1.707  0.00  0.00    +0.168 HD
BRANCH  27  39
ATOM     38  C   UNL     1      -0.019   1.526   0.010  0.00  0.00    +0.026 C 
ATOM     39  C   UNL     1       0.002  -0.004   0.002  0.00  0.00    +0.122 C 
ENDBRANCH  27  39
ENDBRANCH  23  31
ENDBRANCH  22  25
ENDBRANCH   1  22
TORSDOF 8
