REMARK  Name = ZINC06499292
REMARK  9 active torsions:
REMARK  status: ('A' for Active; 'I' for Inactive)
REMARK    1  A    between atoms: C_1  and  C_2
REMARK    2  A    between atoms: C_2  and  C_3
REMARK    3  A    between atoms: C_3  and  C_4
REMARK    4  A    between atoms: C_7  and  C_18
REMARK    5  A    between atoms: C_13  and  N_17
REMARK    6  A    between atoms: C_14  and  C_15
REMARK    7  A    between atoms: C_18  and  C_19
REMARK    8  A    between atoms: C_18  and  C_20
REMARK    9  A    between atoms: C_18  and  C_21
REMARK                            x       y       z     vdW  Elec       q    Type
REMARK                         _______ _______ _______ _____ _____    ______ ____
ROOT
ATOM      1  C   UNL     1       0.548  -3.096   1.363  0.00  0.00    +0.071 C 
ATOM      2  C   UNL     1       1.315  -3.286   2.646  0.00  0.00    +0.046 A 
ATOM      3  C   UNL     1       1.016  -2.834   3.924  0.00  0.00    +0.076 A 
ATOM      4  N   UNL     1       1.969  -3.235   4.731  0.00  0.00    -0.175 NA
ATOM      5  N   UNL     1       2.910  -3.958   3.982  0.00  0.00    -0.246 N 
ATOM      6  H   UNL     1       3.718  -4.370   4.325  0.00  0.00    +0.192 HD
ATOM      7  C   UNL     1       2.492  -3.979   2.706  0.00  0.00    +0.222 A 
ATOM      8  O   UNL     1       3.060  -4.555   1.617  0.00  0.00    -0.423 OA
ATOM      9  C   UNL     1       2.305  -4.668   0.506  0.00  0.00    +0.200 C 
ATOM     10  C   UNL     1       1.131  -4.022   0.324  0.00  0.00    +0.094 C 
ENDROOT
BRANCH   3  11
ATOM     11  C   UNL     1      -0.194  -2.026   4.316  0.00  0.00    +0.007 C 
ATOM     12  C   UNL     1      -1.334  -2.305   3.334  0.00  0.00    +0.017 C 
ATOM     13  C   UNL     1      -0.632  -2.415   5.729  0.00  0.00    +0.017 C 
ATOM     14  C   UNL     1       0.155  -0.537   4.282  0.00  0.00    +0.017 C 
ENDBRANCH   3  11
BRANCH   9  15
ATOM     15  N   UNL     1       2.755  -5.486  -0.501  0.00  0.00    -0.328 N 
ATOM     16  H   UNL     1       3.594  -5.962  -0.400  0.00  0.00    +0.145 HD
ATOM     17  H   UNL     1       2.234  -5.587  -1.313  0.00  0.00    +0.145 HD
ENDBRANCH   9  15
BRANCH  10  18
ATOM     18  C   UNL     1       0.413  -4.224  -0.899  0.00  0.00    +0.100 C 
ATOM     19  N   UNL     1      -0.156  -4.385  -1.869  0.00  0.00    -0.191 NA
ENDBRANCH  10  18
BRANCH   1  20
ATOM     20  C   UNL     1       0.678  -1.646   0.893  0.00  0.00    +0.014 C 
BRANCH  20  22
ATOM     21  C   UNL     1      -0.079   0.024  -0.804  0.00  0.00    +0.004 C 
ATOM     22  C   UNL     1      -0.209  -1.426  -0.335  0.00  0.00    -0.002 C 
ENDBRANCH  20  22
ENDBRANCH   1  20
TORSDOF 5
