REMARK  Name = ZINC07588422
REMARK  4 active torsions:
REMARK  status: ('A' for Active; 'I' for Inactive)
REMARK    1  A    between atoms: N_12  and  C_13
REMARK    2  A    between atoms: C_13  and  C_14
REMARK    3  A    between atoms: N_19  and  C_20
REMARK    4  A    between atoms: C_20  and  C_21
REMARK                            x       y       z     vdW  Elec       q    Type
REMARK                         _______ _______ _______ _____ _____    ______ ____
ROOT
ATOM      1  C   UNL     1       5.043  -0.619   3.531  0.00  0.00    +0.204 C 
ATOM      2  O   UNL     1       4.476  -1.347   4.317  0.00  0.00    -0.277 OA
ATOM      3  N   UNL     1       6.354  -0.346   3.690  0.00  0.00    -0.242 N 
ATOM      4  C   UNL     1       7.032  -0.882   4.724  0.00  0.00    +0.306 C 
ATOM      5  O   UNL     1       6.463  -1.611   5.512  0.00  0.00    -0.252 OA
ATOM      6  N   UNL     1       8.342  -0.609   4.884  0.00  0.00    -0.291 N 
ATOM      7  H   UNL     1       6.808   0.236   3.062  0.00  0.00    +0.159 HD
ATOM      8  H   UNL     1       8.797  -0.027   4.255  0.00  0.00    +0.151 HD
ENDROOT
BRANCH   1   9
ATOM      9  C   UNL     1       4.285  -0.020   2.375  0.00  0.00    +0.019 C 
BRANCH   9  19
ATOM     10  C   UNL     1      -0.019   1.526   0.010  0.00  0.00    +0.000 C 
ATOM     11  C   UNL     1       1.417   2.055  -0.000  0.00  0.00    -0.002 C 
ATOM     12  C   UNL     1       2.156   1.549   1.240  0.00  0.00    -0.015 C 
ATOM     13  C   UNL     1       2.177   0.019   1.233  0.00  0.00    -0.065 C 
ATOM     14  C   UNL     1       0.742  -0.512   1.240  0.00  0.00    -0.025 C 
ATOM     15  C   UNL     1       0.002  -0.004   0.002  0.00  0.00    +0.002 C 
ATOM     16  C   UNL     1       0.027  -0.018   2.501  0.00  0.00    +0.000 C 
ATOM     17  C   UNL     1       0.818  -0.467   3.733  0.00  0.00    -0.018 C 
ATOM     18  C   UNL     1       2.251   0.062   3.634  0.00  0.00    -0.078 C 
ATOM     19  N   UNL     1       2.886  -0.467   2.423  0.00  0.00    +0.387 N 
ATOM     20  H   UNL     1       2.858  -1.475   2.442  0.00  0.00    -0.081 HD
ENDBRANCH   9  19
ENDBRANCH   1   9
BRANCH   6  21
ATOM     21  C   UNL     1       9.080  -1.192   6.008  0.00  0.00    +0.219 C 
BRANCH  21  22
ATOM     22  C   UNL     1      10.537  -0.726   5.958  0.00  0.00    +0.405 C 
ATOM     23  F   UNL     1      10.584   0.669   6.042  0.00  0.00    -0.169 F 
ATOM     24  F   UNL     1      11.241  -1.283   7.031  0.00  0.00    -0.169 F 
ATOM     25  F   UNL     1      11.117  -1.140   4.754  0.00  0.00    -0.169 F 
ENDBRANCH  21  22
ENDBRANCH   6  21
TORSDOF 4
