REMARK  Name = ZINC64886488
REMARK  6 active torsions:
REMARK  status: ('A' for Active; 'I' for Inactive)
REMARK    1  A    between atoms: C_10  and  C_12
REMARK    2  A    between atoms: N_14  and  N_15
REMARK    3  A    between atoms: N_18  and  C_19
REMARK    4  A    between atoms: C_19  and  C_20
REMARK    5  A    between atoms: C_20  and  C_21
REMARK    6  A    between atoms: C_21  and  N_22
REMARK                            x       y       z     vdW  Elec       q    Type
REMARK                         _______ _______ _______ _____ _____    ______ ____
ROOT
ATOM      1  C   UNL     1       1.119  -6.242  -0.043  0.00  0.00    +0.267 C 
ATOM      2  O   UNL     1       2.030  -7.025   0.153  0.00  0.00    -0.268 OA
ATOM      3  N   UNL     1      -0.118  -6.701  -0.318  0.00  0.00    -0.229 N 
ATOM      4  H   UNL     1      -0.844  -6.077  -0.474  0.00  0.00    +0.173 HD
ENDROOT
BRANCH   1  14
ATOM      5  C   UNL     1      -0.017   1.378   0.010  0.00  0.00    +0.001 A 
ATOM      6  C   UNL     1       1.171   2.089   0.002  0.00  0.00    +0.004 A 
ATOM      7  C   UNL     1       2.387   1.431  -0.022  0.00  0.00    +0.046 A 
ATOM      8  C   UNL     1       2.430   0.049  -0.035  0.00  0.00    +0.129 A 
ATOM      9  C   UNL     1       1.216  -0.673  -0.011  0.00  0.00    +0.031 A 
ATOM     10  C   UNL     1       0.002  -0.004   0.002  0.00  0.00    +0.012 A 
ATOM     11  C   UNL     1       1.350  -2.124   0.022  0.00  0.00    +0.030 A 
ATOM     12  C   UNL     1       2.571  -2.760   0.293  0.00  0.00    +0.005 A 
ATOM     13  C   UNL     1       2.554  -4.130   0.283  0.00  0.00    +0.028 A 
ATOM     14  C   UNL     1       1.367  -4.800   0.019  0.00  0.00    +0.076 A 
ATOM     15  S   UNL     1       0.219  -3.451  -0.228  0.00  0.00    -0.083 S 
ATOM     16  C   UNL     1       3.777  -1.871   0.576  0.00  0.00    +0.265 C 
ATOM     17  O   UNL     1       3.605  -0.620  -0.086  0.00  0.00    -0.487 OA
ENDBRANCH   1  14
BRANCH   3  18
ATOM     18  N   UNL     1      -0.355  -8.081  -0.378  0.00  0.00    -0.218 N 
ATOM     19  C   UNL     1      -1.592  -8.540  -0.652  0.00  0.00    +0.316 C 
ATOM     20  O   UNL     1      -1.798  -9.738  -0.704  0.00  0.00    -0.251 OA
ATOM     21  N   UNL     1      -2.600  -7.673  -0.869  0.00  0.00    -0.298 N 
ATOM     22  H   UNL     1       0.371  -8.705  -0.221  0.00  0.00    +0.174 HD
ATOM     23  H   UNL     1      -2.436  -6.718  -0.828  0.00  0.00    +0.150 HD
BRANCH  21  24
ATOM     24  C   UNL     1      -3.945  -8.173  -1.168  0.00  0.00    +0.107 C 
BRANCH  24  25
ATOM     25  C   UNL     1      -4.895  -6.991  -1.371  0.00  0.00    +0.040 C 
BRANCH  25  26
ATOM     26  C   UNL     1      -6.299  -7.513  -1.683  0.00  0.00    +0.124 C 
BRANCH  26  27
ATOM     27  N   UNL     1      -7.209  -6.381  -1.877  0.00  0.00    -0.338 N 
ATOM     28  C   UNL     1      -7.945  -5.755  -0.907  0.00  0.00    +0.104 A 
ATOM     29  C   UNL     1      -8.637  -4.774  -1.517  0.00  0.00    +0.101 A 
ATOM     30  N   UNL     1      -8.332  -4.799  -2.822  0.00  0.00    -0.352 N 
ATOM     31  C   UNL     1      -7.473  -5.756  -3.045  0.00  0.00    +0.173 A 
ATOM     32  H   UNL     1      -8.690  -4.199  -3.495  0.00  0.00    +0.166 HD
ENDBRANCH  26  27
ENDBRANCH  25  26
ENDBRANCH  24  25
ENDBRANCH  21  24
ENDBRANCH   3  18
TORSDOF 6
