REMARK  Name = ZINC06758904
REMARK  5 active torsions:
REMARK  status: ('A' for Active; 'I' for Inactive)
REMARK    1  A    between atoms: C_9  and  C_14
REMARK    2  A    between atoms: C_10  and  O_13
REMARK    3  A    between atoms: C_14  and  N_43
REMARK    4  A    between atoms: C_15  and  C_16
REMARK    5  A    between atoms: C_15  and  N_43
REMARK                            x       y       z     vdW  Elec       q    Type
REMARK                         _______ _______ _______ _____ _____    ______ ____
ROOT
ATOM      1  C   UNL     1      -9.518   1.928  -0.034  0.00  0.00    +0.035 A 
ATOM      2  C   UNL     1      -8.834   0.865   0.567  0.00  0.00    +0.023 A 
ATOM      3  C   UNL     1      -9.410   0.146   1.706  0.00  0.00    -0.027 A 
ATOM      4  C   UNL     1      -8.701  -0.875   2.251  0.00  0.00    +0.041 A 
ATOM      5  C   UNL     1      -7.440  -1.213   1.709  0.00  0.00    +0.341 A 
ATOM      6  O   UNL     1      -6.810  -2.130   2.204  0.00  0.00    -0.245 OA
ATOM      7  O   UNL     1      -6.918  -0.552   0.665  0.00  0.00    -0.422 OA
ATOM      8  C   UNL     1      -7.577   0.469   0.076  0.00  0.00    +0.144 A 
ATOM      9  C   UNL     1      -7.020   1.146  -0.999  0.00  0.00    +0.021 A 
ATOM     10  C   UNL     1      -7.710   2.196  -1.582  0.00  0.00    +0.140 A 
ATOM     11  C   UNL     1      -8.959   2.581  -1.094  0.00  0.00    +0.083 A 
ATOM     12 CL   UNL     1      -9.806   3.900  -1.840  0.00  0.00    -0.080 Cl
ATOM     13  C   UNL     1      -9.467  -1.478   3.408  0.00  0.00    +0.043 C 
ATOM     14  C   UNL     1     -10.919  -0.985   3.230  0.00  0.00    +0.010 C 
ATOM     15  C   UNL     1     -10.718   0.327   2.440  0.00  0.00    +0.036 C 
ENDROOT
BRANCH  10  16
ATOM     16  O   UNL     1      -7.167   2.855  -2.637  0.00  0.00    -0.505 OA
ATOM     17  H   UNL     1      -7.400   2.481  -3.498  0.00  0.00    +0.292 HD
ENDBRANCH  10  16
BRANCH   9  18
ATOM     18  C   UNL     1      -5.671   0.738  -1.533  0.00  0.00    -0.039 C 
BRANCH  18  19
ATOM     19  N   UNL     1      -4.622   1.500  -0.830  0.00  0.00    +0.384 N 
ATOM     20  H   UNL     1      -4.674   1.299   0.176  0.00  0.00    -0.085 HD
ATOM     21  H   UNL     1      -4.770   2.504  -0.986  0.00  0.00    -0.085 HD
BRANCH  19  22
ATOM     22  C   UNL     1      -3.289   1.120  -1.334  0.00  0.00    -0.050 C 
BRANCH  22  23
ATOM     23  C   UNL     1      -2.223   1.924  -0.587  0.00  0.00    +0.101 C 
ATOM     24  C   UNL     1      -0.833   1.634  -1.185  0.00  0.00    +0.032 C 
ATOM     25  C   UNL     1      -0.013   1.086   0.008  0.00  0.00    +0.030 C 
ATOM     26  C   UNL     1      -0.810   1.621   1.224  0.00  0.00    +0.160 C 
ATOM     27  O   UNL     1      -2.186   1.524   0.793  0.00  0.00    -0.378 OA
ENDBRANCH  22  23
ENDBRANCH  19  22
ENDBRANCH  18  19
ENDBRANCH   9  18
TORSDOF 5
