REMARK  Name = ZINC37538534
REMARK  11 active torsions:
REMARK  status: ('A' for Active; 'I' for Inactive)
REMARK    1  A    between atoms: C_1  and  C_2
REMARK    2  A    between atoms: C_8  and  C_39
REMARK    3  A    between atoms: C_12  and  O_30
REMARK    4  A    between atoms: N_19  and  C_22
REMARK    5  A    between atoms: C_22  and  C_24
REMARK    6  A    between atoms: C_22  and  C_27
REMARK    7  A    between atoms: C_24  and  C_25
REMARK    8  A    between atoms: C_24  and  C_26
REMARK    9  A    between atoms: C_33  and  O_38
REMARK   10  A    between atoms: C_35  and  C_36
REMARK   11  A    between atoms: C_35  and  C_37
REMARK                            x       y       z     vdW  Elec       q    Type
REMARK                         _______ _______ _______ _____ _____    ______ ____
ROOT
ATOM      1  C   UNL     1      -0.069   1.230   0.247  0.00  0.00    +0.011 C 
ATOM      2  C   UNL     1       0.300  -0.215  -0.046  0.00  0.00    +0.031 C 
ATOM      3  C   UNL     1      -0.925  -1.085  -0.276  0.00  0.00    +0.007 C 
ATOM      4  C   UNL     1      -1.624  -1.443   1.033  0.00  0.00    +0.005 C 
ATOM      5  C   UNL     1      -0.674  -2.165   1.996  0.00  0.00    +0.007 C 
ATOM      6  C   UNL     1       0.510  -1.248   2.288  0.00  0.00    +0.012 C 
ATOM      7  C   UNL     1       1.210  -0.820   1.006  0.00  0.00    +0.123 C 
ATOM      8  C   UNL     1       1.950  -2.008   0.344  0.00  0.00    +0.091 C 
ATOM      9  C   UNL     1       3.165  -1.310  -0.246  0.00  0.00    +0.040 A 
ATOM     10  C   UNL     1       4.050  -1.677  -1.244  0.00  0.00    +0.124 A 
ATOM     11  C   UNL     1       5.099  -0.838  -1.586  0.00  0.00    +0.059 A 
ATOM     12  C   UNL     1       5.252   0.380  -0.920  0.00  0.00    +0.049 A 
ATOM     13  C   UNL     1       4.342   0.745   0.071  0.00  0.00    +0.024 A 
ATOM     14  C   UNL     1       3.290  -0.092   0.410  0.00  0.00    +0.134 A 
ATOM     15  O   UNL     1       2.287   0.081   1.317  0.00  0.00    -0.484 OA
ATOM     16  C   UNL     1       4.779   2.097   0.579  0.00  0.00    +0.148 C 
ATOM     17  N   UNL     1       5.984   2.449  -0.180  0.00  0.00    -0.279 N 
ATOM     18  C   UNL     1       6.251   1.460  -1.050  0.00  0.00    +0.248 C 
ATOM     19  O   UNL     1       7.182   1.454  -1.832  0.00  0.00    -0.270 OA
ATOM     20  C   UNL     1       0.006  -0.031   3.072  0.00  0.00    +0.013 C 
ATOM     21  C   UNL     1      -0.570  -0.494   4.411  0.00  0.00    +0.032 C 
ATOM     22  C   UNL     1      -1.743  -1.437   4.191  0.00  0.00    +0.120 C 
ATOM     23  C   UNL     1      -1.433  -2.589   3.245  0.00  0.00    -0.005 C 
ATOM     24  C   UNL     1      -2.792  -3.208   2.834  0.00  0.00    +0.014 C 
ATOM     25  C   UNL     1      -0.706  -3.707   4.005  0.00  0.00    +0.014 C 
ATOM     26  C   UNL     1       1.574  -1.936   3.161  0.00  0.00    +0.015 C 
ENDROOT
BRANCH  10  27
ATOM     27  O   UNL     1       3.893  -2.862  -1.889  0.00  0.00    -0.506 OA
ATOM     28  H   UNL     1       3.334  -2.810  -2.677  0.00  0.00    +0.292 HD
ENDBRANCH  10  27
BRANCH  22  29
ATOM     29  O   UNL     1      -2.870  -0.701   3.704  0.00  0.00    -0.391 OA
ATOM     30  H   UNL     1      -3.175  -0.005   4.303  0.00  0.00    +0.210 HD
ENDBRANCH  22  29
BRANCH  17  31
ATOM     31  C   UNL     1       6.769   3.675  -0.015  0.00  0.00    +0.192 C 
BRANCH  31  32
ATOM     32  C   UNL     1       6.682   4.512  -1.293  0.00  0.00    +0.014 C 
ATOM     33  C   UNL     1       5.243   4.994  -1.490  0.00  0.00    +0.009 C 
ATOM     34  C   UNL     1       7.614   5.720  -1.177  0.00  0.00    +0.009 C 
ENDBRANCH  31  32
BRANCH  31  35
ATOM     35  C   UNL     1       6.222   4.469   1.143  0.00  0.00    +0.376 C 
ATOM     36  O   UNL     1       5.266   4.049   1.773  0.00  0.00    -0.244 OA
ATOM     37  O   UNL     1       6.736   5.531   1.451  0.00  0.00    -0.244 OA
ENDBRANCH  31  35
ENDBRANCH  17  31
TORSDOF 5
