REMARK  Name = ZINC37252356
REMARK  5 active torsions:
REMARK  status: ('A' for Active; 'I' for Inactive)
REMARK    1  A    between atoms: C_1  and  C_2
REMARK    2  A    between atoms: C_7  and  N_10
REMARK    3  A    between atoms: N_10  and  C_11
REMARK    4  A    between atoms: C_11  and  C_13
REMARK    5  A    between atoms: C_11  and  C_14
REMARK                            x       y       z     vdW  Elec       q    Type
REMARK                         _______ _______ _______ _____ _____    ______ ____
ROOT
ATOM      1  C   UNL     1       0.171  -0.024   4.958  0.00  0.00    -0.044 C 
ATOM      2  C   UNL     1      -1.213  -0.643   5.167  0.00  0.00    -0.009 C 
ENDROOT
BRANCH   1   3
ATOM      3  C   UNL     1       1.018  -0.265   6.181  0.00  0.00    -0.060 A 
ATOM      4  C   UNL     1       1.636  -1.489   6.360  0.00  0.00    +0.006 A 
ATOM      5  C   UNL     1       2.417  -1.718   7.479  0.00  0.00    +0.048 A 
ATOM      6  C   UNL     1       2.580  -0.719   8.422  0.00  0.00    +0.142 A 
ATOM      7  C   UNL     1       1.956   0.514   8.242  0.00  0.00    +0.076 A 
ATOM      8  C   UNL     1       1.180   0.740   7.117  0.00  0.00    +0.029 A 
ATOM      9  N   UNL     1       2.127   1.517   9.207  0.00  0.00    -0.280 N 
ATOM     10  C   UNL     1       3.123   1.393  10.111  0.00  0.00    +0.255 C 
ATOM     11  O   UNL     1       3.270   2.232  10.974  0.00  0.00    -0.272 OA
ATOM     12  C   UNL     1       4.050   0.206  10.043  0.00  0.00    +0.325 C 
ATOM     13  O   UNL     1       3.345  -0.926   9.527  0.00  0.00    -0.481 OA
ATOM     14  H   UNL     1       1.539   2.289   9.225  0.00  0.00    +0.155 HD
ENDBRANCH   1   3
BRANCH   1  15
ATOM     15  N   UNL     1       0.812  -0.639   3.788  0.00  0.00    +0.385 N 
ATOM     16  H   UNL     1       0.202  -0.557   2.989  0.00  0.00    -0.085 HD
ATOM     17  H   UNL     1       0.990  -1.614   3.977  0.00  0.00    -0.085 HD
BRANCH  15  23
ATOM     18  C   UNL     1       5.007   0.032   3.360  0.00  0.00    +0.007 C 
ATOM     19  C   UNL     1       4.143   0.024   2.098  0.00  0.00    -0.016 C 
ATOM     20  C   UNL     1       3.861   1.464   1.664  0.00  0.00    +0.003 C 
ATOM     21  C   UNL     1       3.121   2.198   2.784  0.00  0.00    -0.001 C 
ATOM     22  C   UNL     1       1.799   1.485   3.075  0.00  0.00    -0.016 C 
ATOM     23  C   UNL     1       2.081   0.045   3.509  0.00  0.00    -0.071 C 
ATOM     24  C   UNL     1       2.821  -0.689   2.389  0.00  0.00    -0.013 C 
ENDBRANCH  15  23
ENDBRANCH   1  15
TORSDOF 3
