REMARK  Name = ZINC19599319
REMARK  7 active torsions:
REMARK  status: ('A' for Active; 'I' for Inactive)
REMARK    1  A    between atoms: C_1  and  C_2
REMARK    2  A    between atoms: C_6  and  N_9
REMARK    3  A    between atoms: C_7  and  C_8
REMARK    4  A    between atoms: N_9  and  C_10
REMARK    5  A    between atoms: C_10  and  N_12
REMARK    6  A    between atoms: N_12  and  N_13
REMARK    7  A    between atoms: C_14  and  C_16
REMARK                            x       y       z     vdW  Elec       q    Type
REMARK                         _______ _______ _______ _____ _____    ______ ____
ROOT
ATOM      1  N   UNL     1       2.811  -3.388   4.628  0.00  0.00    -0.231 N 
ATOM      2  C   UNL     1       3.463  -3.835   5.720  0.00  0.00    +0.260 C 
ATOM      3  O   UNL     1       3.224  -4.943   6.159  0.00  0.00    -0.269 OA
ATOM      4  H   UNL     1       3.002  -2.504   4.277  0.00  0.00    +0.173 HD
ENDROOT
BRANCH   2   5
ATOM      5  C   UNL     1       4.467  -2.978   6.381  0.00  0.00    +0.043 A 
ATOM      6  C   UNL     1       5.148  -3.441   7.510  0.00  0.00    +0.062 A 
ATOM      7  C   UNL     1       6.088  -2.637   8.128  0.00  0.00    +0.164 A 
ATOM      8  C   UNL     1       6.356  -1.367   7.624  0.00  0.00    +0.180 A 
ATOM      9  C   UNL     1       5.677  -0.906   6.502  0.00  0.00    +0.087 A 
ATOM     10  C   UNL     1       4.742  -1.705   5.878  0.00  0.00    +0.037 A 
ATOM     11 CL   UNL     1       6.012   0.680   5.879  0.00  0.00    -0.080 Cl
ATOM     12  O   UNL     1       7.283  -0.567   8.215  0.00  0.00    -0.483 OA
ATOM     13  C   UNL     1       7.673  -0.909   9.549  0.00  0.00    +0.270 C 
ATOM     14  C   UNL     1       7.943  -2.419   9.600  0.00  0.00    +0.270 C 
ATOM     15  O   UNL     1       6.740  -3.101   9.229  0.00  0.00    -0.485 OA
ENDBRANCH   2   5
BRANCH   1  16
ATOM     16  N   UNL     1       1.859  -4.201   3.999  0.00  0.00    -0.246 N 
ATOM     17  H   UNL     1       1.668  -5.085   4.350  0.00  0.00    +0.172 HD
BRANCH  16  18
ATOM     18  C   UNL     1       1.207  -3.754   2.907  0.00  0.00    +0.147 C 
ATOM     19  S   UNL     1       0.043  -4.748   2.140  0.00  0.00    -0.017 S 
BRANCH  18  20
ATOM     20  N   UNL     1       1.471  -2.526   2.420  0.00  0.00    -0.322 N 
ATOM     21  H   UNL     1       2.131  -1.963   2.855  0.00  0.00    +0.148 HD
BRANCH  20  27
ATOM     22  C   UNL     1      -0.019   1.526   0.010  0.00  0.00    +0.008 C 
ATOM     23  C   UNL     1       0.002  -0.004   0.002  0.00  0.00    -0.009 C 
ATOM     24  C   UNL     1       0.718  -0.497  -1.257  0.00  0.00    +0.003 C 
ATOM     25  C   UNL     1       0.739  -2.027  -1.265  0.00  0.00    +0.002 C 
ATOM     26  C   UNL     1       1.479  -2.534  -0.026  0.00  0.00    +0.022 C 
ATOM     27  C   UNL     1       0.763  -2.041   1.233  0.00  0.00    +0.075 C 
ATOM     28  C   UNL     1       0.742  -0.511   1.242  0.00  0.00    +0.009 C 
ATOM     29  C   UNL     1       0.026  -0.018   2.500  0.00  0.00    +0.009 C 
ENDBRANCH  20  27
ENDBRANCH  18  20
ENDBRANCH  16  18
ENDBRANCH   1  16
TORSDOF 5
