REMARK  Name = ZINC00821794
REMARK  4 active torsions:
REMARK  status: ('A' for Active; 'I' for Inactive)
REMARK    1  A    between atoms: C_3  and  N_26
REMARK    2  A    between atoms: C_6  and  C_7
REMARK    3  A    between atoms: C_17  and  C_19
REMARK    4  A    between atoms: C_22  and  N_25
REMARK                            x       y       z     vdW  Elec       q    Type
REMARK                         _______ _______ _______ _____ _____    ______ ____
ROOT
ATOM      1  C   UNL     1       2.477   1.073  -0.016  0.00  0.00    +0.109 A 
ATOM      2  N   UNL     1       3.696   1.567  -0.025  0.00  0.00    -0.239 NA
ATOM      3  C   UNL     1       4.793   0.785  -0.040  0.00  0.00    +0.080 A 
ATOM      4  C   UNL     1       6.150   1.184  -0.050  0.00  0.00    +0.046 A 
ATOM      5  C   UNL     1       7.145   0.251  -0.065  0.00  0.00    +0.042 A 
ATOM      6  C   UNL     1       6.907  -1.147  -0.070  0.00  0.00    +0.080 A 
ATOM      7  C   UNL     1       5.550  -1.546  -0.059  0.00  0.00    +0.046 A 
ATOM      8  C   UNL     1       4.555  -0.614  -0.045  0.00  0.00    +0.042 A 
ATOM      9  S   UNL     1       2.778  -0.689  -0.020  0.00  0.00    -0.067 S 
ATOM     10  N   UNL     1       8.004  -1.929  -0.085  0.00  0.00    -0.239 NA
ATOM     11  C   UNL     1       9.223  -1.435  -0.094  0.00  0.00    +0.109 A 
ATOM     12  S   UNL     1       8.922   0.327  -0.082  0.00  0.00    -0.067 S 
ENDROOT
BRANCH   1  18
ATOM     13  C   UNL     1      -0.013   1.076   0.008  0.00  0.00    +0.012 A 
ATOM     14  C   UNL     1      -1.214   1.749   0.017  0.00  0.00    +0.023 A 
ATOM     15  C   UNL     1      -1.234   3.140   0.030  0.00  0.00    +0.025 A 
ATOM     16  C   UNL     1      -0.041   3.855   0.022  0.00  0.00    +0.023 A 
ATOM     17  C   UNL     1       1.164   3.188   0.008  0.00  0.00    +0.012 A 
ATOM     18  C   UNL     1       1.187   1.791   0.000  0.00  0.00    +0.007 A 
BRANCH  15  19
ATOM     19  N   UNL     1      -2.451   3.818   0.045  0.00  0.00    -0.358 N 
ATOM     20  H   UNL     1      -2.466   4.788   0.050  0.00  0.00    +0.142 HD
ATOM     21  H   UNL     1      -3.284   3.320   0.051  0.00  0.00    +0.142 HD
ENDBRANCH  15  19
ENDBRANCH   1  18
BRANCH  11  22
ATOM     22  C   UNL     1      10.513  -2.154  -0.112  0.00  0.00    +0.007 A 
ATOM     23  C   UNL     1      10.536  -3.550  -0.114  0.00  0.00    +0.012 A 
ATOM     24  C   UNL     1      11.741  -4.218  -0.136  0.00  0.00    +0.023 A 
ATOM     25  C   UNL     1      12.934  -3.502  -0.144  0.00  0.00    +0.025 A 
ATOM     26  C   UNL     1      12.914  -2.111  -0.136  0.00  0.00    +0.023 A 
ATOM     27  C   UNL     1      11.713  -1.438  -0.119  0.00  0.00    +0.012 A 
BRANCH  25  28
ATOM     28  N   UNL     1      14.151  -4.180  -0.160  0.00  0.00    -0.358 N 
ATOM     29  H   UNL     1      14.984  -3.683  -0.165  0.00  0.00    +0.142 HD
ATOM     30  H   UNL     1      14.166  -5.150  -0.165  0.00  0.00    +0.142 HD
ENDBRANCH  25  28
ENDBRANCH  11  22
TORSDOF 4
