REMARK  Name = ZINC62391610
REMARK  6 active torsions:
REMARK  status: ('A' for Active; 'I' for Inactive)
REMARK    1  A    between atoms: C_1  and  C_2
REMARK    2  A    between atoms: C_8  and  N_10
REMARK    3  A    between atoms: C_12  and  O_25
REMARK    4  A    between atoms: C_16  and  C_17
REMARK    5  A    between atoms: C_17  and  N_18
REMARK    6  A    between atoms: N_21  and  C_24
REMARK                            x       y       z     vdW  Elec       q    Type
REMARK                         _______ _______ _______ _____ _____    ______ ____
ROOT
ATOM      1  N   UNL     1       1.787  -0.023   1.044  0.00  0.00    -0.343 N 
ATOM      2  C   UNL     1       2.257  -0.283  -0.204  0.00  0.00    +0.135 A 
ATOM      3  C   UNL     1       3.492   0.130  -0.576  0.00  0.00    +0.180 A 
ATOM      4  C   UNL     1       4.292   0.840   0.354  0.00  0.00    +0.223 A 
ATOM      5  O   UNL     1       5.411   1.227   0.048  0.00  0.00    -0.284 OA
ATOM      6  C   UNL     1       3.771   1.093   1.643  0.00  0.00    +0.077 A 
ATOM      7  C   UNL     1       2.528   0.658   1.951  0.00  0.00    +0.037 A 
ENDROOT
BRANCH   1  14
ATOM      8  C   UNL     1      -0.538   1.594   0.437  0.00  0.00    +0.009 C 
ATOM      9  C   UNL     1      -0.575   0.065   0.417  0.00  0.00    +0.009 C 
ATOM     10  C   UNL     1      -1.975  -0.416   0.805  0.00  0.00    +0.005 C 
ATOM     11  C   UNL     1      -2.012  -1.946   0.785  0.00  0.00    +0.000 C 
ATOM     12  C   UNL     1      -0.990  -2.494   1.783  0.00  0.00    +0.002 C 
ATOM     13  C   UNL     1       0.409  -2.013   1.395  0.00  0.00    +0.025 C 
ATOM     14  C   UNL     1       0.447  -0.484   1.415  0.00  0.00    +0.090 C 
ENDBRANCH   1  14
BRANCH   3  15
ATOM     15  O   UNL     1       3.959  -0.133  -1.827  0.00  0.00    -0.502 OA
ATOM     16  H   UNL     1       4.850   0.204  -1.993  0.00  0.00    +0.292 HD
ENDBRANCH   3  15
BRANCH   7  17
ATOM     17  C   UNL     1       1.963   0.929   3.321  0.00  0.00    +0.137 C 
BRANCH  17  18
ATOM     18  N   UNL     1       1.793  -0.341   4.040  0.00  0.00    -0.300 NA
ATOM     19  C   UNL     1       3.092  -0.898   4.442  0.00  0.00    +0.066 C 
ATOM     20  C   UNL     1       2.875  -2.245   5.133  0.00  0.00    -0.064 C 
ATOM     21  N   UNL     1       2.018  -2.059   6.312  0.00  0.00    +0.379 N 
ATOM     22  C   UNL     1       0.716  -1.525   5.892  0.00  0.00    -0.064 C 
ATOM     23  C   UNL     1       0.915  -0.172   5.207  0.00  0.00    +0.066 C 
ATOM     24  C   UNL     1       1.825  -3.349   6.985  0.00  0.00    -0.096 C 
ATOM     25  H   UNL     1       2.458  -1.410   6.947  0.00  0.00    -0.082 HD
ENDBRANCH  17  18
ENDBRANCH   7  17
TORSDOF 4
