REMARK  Name = ZINC10385365
REMARK  3 active torsions:
REMARK  status: ('A' for Active; 'I' for Inactive)
REMARK    1  A    between atoms: C_1  and  C_2
REMARK    2  A    between atoms: C_11  and  C_13
REMARK    3  A    between atoms: N_20  and  C_21
REMARK                            x       y       z     vdW  Elec       q    Type
REMARK                         _______ _______ _______ _____ _____    ______ ____
ROOT
ATOM      1  C   UNL     1       2.495  -6.045  -2.338  0.00  0.00    +0.066 C 
ATOM      2  C   UNL     1       1.219  -5.588  -1.679  0.00  0.00    +0.047 A 
ATOM      3  C   UNL     1       0.104  -6.372  -1.740  0.00  0.00    +0.093 A 
ATOM      4  C   UNL     1      -1.077  -5.929  -1.113  0.00  0.00    +0.257 A 
ATOM      5  O   UNL     1      -2.096  -6.599  -1.156  0.00  0.00    -0.267 OA
ATOM      6  N   UNL     1      -1.055  -4.751  -0.465  0.00  0.00    -0.259 N 
ATOM      7  C   UNL     1       0.087  -4.000  -0.454  0.00  0.00    +0.206 A 
ATOM      8  N   UNL     1       1.184  -4.419  -1.038  0.00  0.00    -0.221 NA
ATOM      9  N   UNL     1       0.031  -2.782   0.196  0.00  0.00    -0.259 N 
ATOM     10  C   UNL     1      -1.175  -2.094   0.105  0.00  0.00    +0.166 C 
ATOM     11  C   UNL     1      -2.230  -4.247   0.252  0.00  0.00    +0.192 C 
ATOM     12  N   UNL     1      -1.199  -0.722   0.009  0.00  0.00    -0.287 N 
ATOM     13  H   UNL     1       0.788  -2.428   0.688  0.00  0.00    +0.158 HD
ATOM     14  H   UNL     1      -0.376  -0.215   0.088  0.00  0.00    +0.155 HD
ATOM     15  N   UNL     1      -2.345  -2.752   0.114  0.00  0.00    -0.340 N 
ATOM     16  H   UNL     1      -3.249  -2.272   0.032  0.00  0.00    +0.164 HD
ENDROOT
BRANCH  12  17
ATOM     17  C   UNL     1      -2.412  -0.056  -0.202  0.00  0.00    +0.052 A 
ATOM     18  C   UNL     1      -3.467  -0.713  -0.822  0.00  0.00    +0.025 A 
ATOM     19  C   UNL     1      -4.663  -0.054  -1.029  0.00  0.00    +0.002 A 
ATOM     20  C   UNL     1      -4.811   1.259  -0.620  0.00  0.00    +0.002 A 
ATOM     21  C   UNL     1      -3.763   1.916  -0.002  0.00  0.00    +0.022 A 
ATOM     22  C   UNL     1      -2.563   1.263   0.208  0.00  0.00    +0.062 A 
ATOM     23 CL   UNL     1      -1.250   2.086   0.989  0.00  0.00    -0.082 Cl
ENDBRANCH  12  17
BRANCH  11  24
ATOM     24  C   UNL     1      -2.125  -4.620   1.732  0.00  0.00    +0.036 C 
ATOM     25  C   UNL     1      -3.366  -4.117   2.480  0.00  0.00    +0.012 C 
ATOM     26  C   UNL     1      -3.153  -4.344   3.978  0.00  0.00    +0.027 C 
ATOM     27  C   UNL     1      -2.701  -5.753   4.229  0.00  0.00    -0.031 C 
ATOM     28  C   UNL     1      -2.220  -6.534   3.315  0.00  0.00    -0.031 C 
ATOM     29  C   UNL     1      -2.057  -6.142   1.876  0.00  0.00    +0.034 C 
ENDBRANCH  11  24
TORSDOF 2
