REMARK  Name = ZINC45166696
REMARK  8 active torsions:
REMARK  status: ('A' for Active; 'I' for Inactive)
REMARK    1  A    between atoms: C_1  and  C_2
REMARK    2  A    between atoms: C_2  and  C_3
REMARK    3  A    between atoms: C_2  and  C_4
REMARK    4  A    between atoms: C_4  and  C_6
REMARK    5  A    between atoms: C_4  and  N_11
REMARK    6  A    between atoms: N_11  and  S_12
REMARK    7  A    between atoms: S_12  and  C_15
REMARK    8  A    between atoms: C_16  and  N_22
REMARK                            x       y       z     vdW  Elec       q    Type
REMARK                         _______ _______ _______ _____ _____    ______ ____
ROOT
ATOM      1  S   UNL     1      -3.057  -2.959   1.358  0.00  0.00    +0.062 S 
ATOM      2  O   UNL     1      -3.032  -4.380   1.370  0.00  0.00    -0.153 OA
ATOM      3  O   UNL     1      -3.212  -2.190   2.543  0.00  0.00    -0.153 OA
ENDROOT
BRANCH   1   4
ATOM      4  C   UNL     1      -4.368  -2.488   0.278  0.00  0.00    +0.144 A 
ATOM      5  C   UNL     1      -4.930  -1.222   0.377  0.00  0.00    +0.053 A 
ATOM      6  C   UNL     1      -5.962  -0.854  -0.476  0.00  0.00    +0.025 A 
ATOM      7  C   UNL     1      -6.428  -1.748  -1.421  0.00  0.00    +0.003 A 
ATOM      8  C   UNL     1      -5.867  -3.008  -1.518  0.00  0.00    +0.022 A 
ATOM      9  C   UNL     1      -4.833  -3.376  -0.673  0.00  0.00    +0.069 A 
ATOM     10 CL   UNL     1      -4.127  -4.956  -0.804  0.00  0.00    -0.081 Cl
BRANCH   5  11
ATOM     11  N   UNL     1      -4.458  -0.320   1.334  0.00  0.00    -0.356 N 
ATOM     12  H   UNL     1      -3.608  -0.479   1.773  0.00  0.00    +0.142 HD
ATOM     13  H   UNL     1      -4.980   0.466   1.558  0.00  0.00    +0.142 HD
ENDBRANCH   5  11
ENDBRANCH   1   4
BRANCH   1  14
ATOM     14  N   UNL     1      -1.642  -2.466   0.654  0.00  0.00    -0.182 NA
ATOM     15  H   UNL     1      -0.995  -3.123   0.354  0.00  0.00    +0.149 HD
BRANCH  14  16
ATOM     16  C   UNL     1      -1.367  -1.037   0.485  0.00  0.00    +0.116 C 
BRANCH  16  17
ATOM     17  C   UNL     1      -1.777  -0.607  -0.900  0.00  0.00    +0.009 A 
ATOM     18  C   UNL     1      -2.386   0.539  -1.292  0.00  0.00    +0.013 A 
ATOM     19  C   UNL     1      -2.671   0.721  -2.633  0.00  0.00    +0.008 A 
ATOM     20  C   UNL     1      -2.332  -0.251  -3.515  0.00  0.00    +0.045 A 
ATOM     21  S   UNL     1      -1.581  -1.471  -2.450  0.00  0.00    -0.100 S 
ENDBRANCH  16  17
BRANCH  16  23
ATOM     22  C   UNL     1       0.405   0.723   0.579  0.00  0.00    +0.009 C 
ATOM     23  C   UNL     1       0.129  -0.779   0.676  0.00  0.00    +0.006 C 
ATOM     24  C   UNL     1       0.562  -1.289   2.052  0.00  0.00    +0.009 C 
ENDBRANCH  16  23
ENDBRANCH  14  16
ENDBRANCH   1  14
TORSDOF 6
