REMARK  Name = ZINC23467911
REMARK  8 active torsions:
REMARK  status: ('A' for Active; 'I' for Inactive)
REMARK    1  A    between atoms: C_1  and  C_2
REMARK    2  A    between atoms: C_2  and  N_3
REMARK    3  A    between atoms: N_6  and  C_9
REMARK    4  A    between atoms: C_9  and  C_10
REMARK    5  A    between atoms: C_10  and  C_12
REMARK    6  A    between atoms: C_13  and  N_22
REMARK    7  A    between atoms: N_14  and  C_21
REMARK    8  A    between atoms: N_17  and  C_20
REMARK                            x       y       z     vdW  Elec       q    Type
REMARK                         _______ _______ _______ _____ _____    ______ ____
ROOT
ATOM      1  C   UNL     1      -5.996  -4.887  -1.271  0.00  0.00    +0.121 A 
ATOM      2  C   UNL     1      -5.974  -6.279  -1.463  0.00  0.00    +0.116 A 
ATOM      3  N   UNL     1      -7.157  -6.960  -1.495  0.00  0.00    -0.284 N 
ATOM      4  C   UNL     1      -8.331  -6.326  -1.348  0.00  0.00    +0.333 A 
ATOM      5  O   UNL     1      -9.357  -6.978  -1.384  0.00  0.00    -0.246 OA
ATOM      6  N   UNL     1      -8.414  -4.999  -1.162  0.00  0.00    -0.263 N 
ATOM      7  C   UNL     1      -7.302  -4.237  -1.109  0.00  0.00    +0.269 A 
ATOM      8  O   UNL     1      -7.381  -3.035  -0.935  0.00  0.00    -0.267 OA
ATOM      9  C   UNL     1      -9.729  -4.371  -1.008  0.00  0.00    +0.157 C 
ATOM     10  C   UNL     1      -7.145  -8.412  -1.695  0.00  0.00    +0.155 C 
ENDROOT
BRANCH   2  11
ATOM     11  N   UNL     1      -4.793  -6.938  -1.615  0.00  0.00    -0.344 N 
ATOM     12  H   UNL     1      -3.955  -6.460  -1.513  0.00  0.00    +0.144 HD
ATOM     13  H   UNL     1      -4.790  -7.885  -1.825  0.00  0.00    +0.144 HD
ENDBRANCH   2  11
BRANCH   1  14
ATOM     14  C   UNL     1      -4.800  -4.139  -1.230  0.00  0.00    +0.185 C 
ATOM     15  O   UNL     1      -3.727  -4.707  -1.255  0.00  0.00    -0.290 OA
BRANCH  14  16
ATOM     16  C   UNL     1      -4.854  -2.635  -1.155  0.00  0.00    +0.164 C 
BRANCH  16  20
ATOM     17  N   UNL     1      -1.383  -0.487  -0.055  0.00  0.00    +0.381 N 
ATOM     18  C   UNL     1      -2.052  -0.122  -1.311  0.00  0.00    -0.063 C 
ATOM     19  C   UNL     1      -3.493  -0.636  -1.290  0.00  0.00    +0.066 C 
ATOM     20  N   UNL     1      -3.488  -2.096  -1.124  0.00  0.00    -0.299 NA
ATOM     21  C   UNL     1      -2.800  -2.478   0.117  0.00  0.00    +0.066 C 
ATOM     22  C   UNL     1      -1.364  -1.949   0.084  0.00  0.00    -0.063 C 
ATOM     23  H   UNL     1      -1.883  -0.082   0.722  0.00  0.00    -0.082 HD
BRANCH  17  25
ATOM     24  C   UNL     1      -0.026   1.551  -0.088  0.00  0.00    -0.017 C 
ATOM     25  C   UNL     1      -0.005   0.021  -0.069  0.00  0.00    -0.082 C 
ENDBRANCH  17  25
ENDBRANCH  16  20
ENDBRANCH  14  16
ENDBRANCH   1  14
TORSDOF 5
