REMARK  Name = ZINC36265565
REMARK  7 active torsions:
REMARK  status: ('A' for Active; 'I' for Inactive)
REMARK    1  A    between atoms: C_1  and  C_2
REMARK    2  A    between atoms: C_4  and  O_21
REMARK    3  A    between atoms: C_6  and  C_20
REMARK    4  A    between atoms: C_7  and  S_8
REMARK    5  A    between atoms: S_8  and  N_11
REMARK    6  A    between atoms: N_11  and  C_12
REMARK    7  A    between atoms: O_21  and  C_22
REMARK                            x       y       z     vdW  Elec       q    Type
REMARK                         _______ _______ _______ _____ _____    ______ ____
ROOT
ATOM      1  S   UNL     1       0.597   0.027   2.849  0.00  0.00    +0.059 S 
ATOM      2  O   UNL     1       1.264  -0.918   3.675  0.00  0.00    -0.153 OA
ATOM      3  O   UNL     1       1.199   1.253   2.455  0.00  0.00    -0.153 OA
ENDROOT
BRANCH   1  10
ATOM      4  C   UNL     1      -0.155   1.407   0.267  0.00  0.00    +0.046 C 
ATOM      5  C   UNL     1      -0.170  -0.099   0.233  0.00  0.00    -0.020 A 
ATOM      6  C   UNL     1      -0.508  -0.760  -0.932  0.00  0.00    +0.051 A 
ATOM      7  C   UNL     1      -0.522  -2.147  -0.962  0.00  0.00    +0.121 A 
ATOM      8  C   UNL     1      -0.196  -2.867   0.178  0.00  0.00    +0.051 A 
ATOM      9  C   UNL     1       0.141  -2.201   1.341  0.00  0.00    -0.020 A 
ATOM     10  C   UNL     1       0.159  -0.819   1.367  0.00  0.00    +0.111 A 
ATOM     11  C   UNL     1       0.495  -2.982   2.580  0.00  0.00    +0.046 C 
BRANCH   7  12
ATOM     12  O   UNL     1      -0.854  -2.800  -2.107  0.00  0.00    -0.495 OA
ATOM     13  C   UNL     1      -0.847  -4.228  -2.065  0.00  0.00    +0.277 C 
ENDBRANCH   7  12
ENDBRANCH   1  10
BRANCH   1  14
ATOM     14  N   UNL     1      -0.813   0.420   3.624  0.00  0.00    -0.186 NA
ATOM     15  H   UNL     1      -1.032   1.350   3.791  0.00  0.00    +0.148 HD
BRANCH  14  16
ATOM     16  C   UNL     1      -1.730  -0.638   4.056  0.00  0.00    +0.080 C 
ATOM     17  C   UNL     1      -3.228  -0.331   4.017  0.00  0.00    -0.006 C 
ATOM     18  C   UNL     1      -2.488  -0.421   5.368  0.00  0.00    -0.006 C 
ATOM     19  C   UNL     1      -3.089  -1.655   6.074  0.00  0.00    -0.077 C 
ATOM     20  N   UNL     1      -4.432  -1.821   5.459  0.00  0.00    +0.379 N 
ATOM     21  C   UNL     1      -4.214  -1.519   3.984  0.00  0.00    -0.077 C 
ATOM     22  H   UNL     1      -4.758  -2.768   5.576  0.00  0.00    -0.086 HD
ATOM     23  H   UNL     1      -5.087  -1.168   5.862  0.00  0.00    -0.086 HD
ENDBRANCH  14  16
ENDBRANCH   1  14
TORSDOF 4
