REMARK  Name = ZINC61291928
REMARK  8 active torsions:
REMARK  status: ('A' for Active; 'I' for Inactive)
REMARK    1  A    between atoms: C_1  and  C_2
REMARK    2  A    between atoms: C_2  and  N_3
REMARK    3  A    between atoms: N_3  and  C_4
REMARK    4  A    between atoms: C_4  and  C_5
REMARK    5  A    between atoms: C_4  and  C_6
REMARK    6  A    between atoms: C_4  and  C_7
REMARK    7  A    between atoms: N_9  and  C_10
REMARK    8  A    between atoms: C_15  and  C_16
REMARK                            x       y       z     vdW  Elec       q    Type
REMARK                         _______ _______ _______ _____ _____    ______ ____
ROOT
ATOM      1  C   UNL     1       1.417  -2.431  -2.454  0.00  0.00    +0.206 C 
ATOM      2  O   UNL     1       2.090  -3.439  -2.412  0.00  0.00    -0.277 OA
ATOM      3  N   UNL     1       1.292  -1.751  -3.611  0.00  0.00    -0.286 N 
ATOM      4  H   UNL     1       0.691  -0.992  -3.664  0.00  0.00    +0.155 HD
ENDROOT
BRANCH   3   5
ATOM      5  C   UNL     1       2.029  -2.141  -4.735  0.00  0.00    +0.036 A 
ATOM      6  C   UNL     1       3.220  -2.839  -4.578  0.00  0.00    +0.024 A 
ATOM      7  C   UNL     1       3.944  -3.223  -5.689  0.00  0.00    +0.016 A 
ATOM      8  C   UNL     1       3.485  -2.913  -6.957  0.00  0.00    +0.014 A 
ATOM      9  C   UNL     1       2.300  -2.219  -7.116  0.00  0.00    +0.019 A 
ATOM     10  C   UNL     1       1.568  -1.837  -6.009  0.00  0.00    -0.028 A 
ATOM     11  C   UNL     1       0.273  -1.085  -6.183  0.00  0.00    +0.046 C 
ATOM     12  I   UNL     1       4.588  -3.498  -8.640  0.00  0.00    -0.044 I 
ENDBRANCH   3   5
BRANCH   1  13
ATOM     13  C   UNL     1       0.722  -1.938  -1.211  0.00  0.00    +0.004 C 
ATOM     14  C   UNL     1       1.465  -2.446   0.026  0.00  0.00    -0.001 C 
ATOM     15  C   UNL     1      -0.717  -2.459  -1.191  0.00  0.00    -0.001 C 
BRANCH  13  16
ATOM     16  N   UNL     1       0.710  -0.469  -1.206  0.00  0.00    +0.388 N 
ATOM     17  H   UNL     1       0.220  -0.134  -2.022  0.00  0.00    -0.084 HD
ATOM     18  H   UNL     1       1.659  -0.125  -1.220  0.00  0.00    -0.084 HD
BRANCH  16  20
ATOM     19  C   UNL     1       0.020   1.542   0.010  0.00  0.00    -0.017 C 
ATOM     20  C   UNL     1       0.032   0.012   0.005  0.00  0.00    -0.085 C 
ENDBRANCH  16  20
ENDBRANCH  13  16
ENDBRANCH   1  13
TORSDOF 4
