REMARK  Name = ZINC35509008
REMARK  7 active torsions:
REMARK  status: ('A' for Active; 'I' for Inactive)
REMARK    1  A    between atoms: C_1  and  C_2
REMARK    2  A    between atoms: C_2  and  N_3
REMARK    3  A    between atoms: N_3  and  C_4
REMARK    4  A    between atoms: C_4  and  C_6
REMARK    5  A    between atoms: C_4  and  C_14
REMARK    6  A    between atoms: C_19  and  O_20
REMARK    7  A    between atoms: O_20  and  C_21
REMARK                            x       y       z     vdW  Elec       q    Type
REMARK                         _______ _______ _______ _____ _____    ______ ____
ROOT
ATOM      1  C   UNL     1       0.733  -1.960   1.184  0.00  0.00    -0.006 C 
ENDROOT
BRANCH   1   2
ATOM      2  C   UNL     1       1.352  -2.461   2.463  0.00  0.00    -0.052 A 
ATOM      3  C   UNL     1       2.447  -1.811   3.001  0.00  0.00    +0.040 A 
ATOM      4  C   UNL     1       3.017  -2.270   4.176  0.00  0.00    +0.126 A 
ATOM      5  C   UNL     1       2.490  -3.381   4.812  0.00  0.00    +0.076 A 
ATOM      6  C   UNL     1       1.393  -4.031   4.273  0.00  0.00    +0.126 A 
ATOM      7  C   UNL     1       0.822  -3.566   3.101  0.00  0.00    +0.040 A 
ATOM      8  F   UNL     1       0.878  -5.115   4.893  0.00  0.00    -0.205 F 
ATOM      9  F   UNL     1       4.088  -1.635   4.701  0.00  0.00    -0.205 F 
ENDBRANCH   1   2
BRANCH   1  10
ATOM     10  C   UNL     1       1.543  -2.445   0.010  0.00  0.00    -0.014 A 
ATOM     11  C   UNL     1       2.526  -1.639  -0.532  0.00  0.00    +0.021 A 
ATOM     12  C   UNL     1       3.270  -2.083  -1.609  0.00  0.00    +0.018 A 
ATOM     13  C   UNL     1       3.032  -3.336  -2.148  0.00  0.00    +0.019 A 
ATOM     14  C   UNL     1       2.051  -4.144  -1.609  0.00  0.00    +0.047 A 
ATOM     15  C   UNL     1       1.306  -3.702  -0.525  0.00  0.00    +0.122 A 
ATOM     16 BR   UNL     1       4.615  -0.978  -2.349  0.00  0.00    -0.050 Br
BRANCH  15  17
ATOM     17  O   UNL     1       0.343  -4.499   0.010  0.00  0.00    -0.495 OA
ATOM     18  C   UNL     1       0.155  -5.781  -0.592  0.00  0.00    +0.277 C 
ENDBRANCH  15  17
ENDBRANCH   1  10
BRANCH   1  19
ATOM     19  N   UNL     1       0.713  -0.491   1.192  0.00  0.00    +0.386 N 
ATOM     20  H   UNL     1       1.659  -0.141   1.185  0.00  0.00    -0.085 HD
ATOM     21  H   UNL     1       0.240  -0.165   2.022  0.00  0.00    -0.085 HD
BRANCH  19  23
ATOM     22  C   UNL     1      -0.019   1.526   0.010  0.00  0.00    -0.017 C 
ATOM     23  C   UNL     1       0.002  -0.004   0.002  0.00  0.00    -0.085 C 
ENDBRANCH  19  23
ENDBRANCH   1  19
TORSDOF 5
