REMARK  Name = ZINC08075457
REMARK  8 active torsions:
REMARK  status: ('A' for Active; 'I' for Inactive)
REMARK    1  A    between atoms: C_1  and  C_2
REMARK    2  A    between atoms: C_2  and  O_3
REMARK    3  A    between atoms: O_3  and  C_4
REMARK    4  A    between atoms: C_10  and  C_30
REMARK    5  A    between atoms: C_11  and  C_13
REMARK    6  A    between atoms: N_15  and  C_16
REMARK    7  A    between atoms: C_17  and  C_27
REMARK    8  A    between atoms: C_22  and  C_26
REMARK                            x       y       z     vdW  Elec       q    Type
REMARK                         _______ _______ _______ _____ _____    ______ ____
ROOT
ATOM      1  C   UNL     1      -2.168  -1.334   3.539  0.00  0.00    +0.284 C 
ATOM      2  O   UNL     1      -3.201  -1.947   3.341  0.00  0.00    -0.266 OA
ATOM      3  N   UNL     1      -1.439  -0.889   2.497  0.00  0.00    -0.273 N 
ATOM      4  H   UNL     1      -0.616  -0.400   2.654  0.00  0.00    +0.156 HD
ENDROOT
BRANCH   1  12
ATOM      5  C   UNL     1      -0.718  -0.528   9.358  0.00  0.00    +0.121 A 
ATOM      6  C   UNL     1       0.372   0.127   8.790  0.00  0.00    +0.049 A 
ATOM      7  C   UNL     1       0.502   0.218   7.422  0.00  0.00    +0.050 A 
ATOM      8  C   UNL     1      -0.459  -0.346   6.591  0.00  0.00    +0.136 A 
ATOM      9  C   UNL     1      -1.561  -1.008   7.162  0.00  0.00    +0.027 A 
ATOM     10  C   UNL     1      -1.684  -1.096   8.551  0.00  0.00    +0.057 A 
ATOM     11  C   UNL     1      -2.371  -1.474   6.037  0.00  0.00    +0.008 A 
ATOM     12  C   UNL     1      -1.717  -1.079   4.913  0.00  0.00    +0.194 A 
ATOM     13  O   UNL     1      -0.593  -0.413   5.251  0.00  0.00    -0.450 OA
ATOM     14  C   UNL     1      -3.667  -2.240   6.109  0.00  0.00    +0.048 C 
BRANCH   5  15
ATOM     15  O   UNL     1      -0.831  -0.609  10.710  0.00  0.00    -0.492 OA
BRANCH  15  17
ATOM     16  C   UNL     1      -0.093  -0.193  12.974  0.00  0.00    +0.048 C 
ATOM     17  C   UNL     1       0.204  -0.001  11.485  0.00  0.00    +0.225 C 
ENDBRANCH  15  17
ENDBRANCH   5  15
ENDBRANCH   1  12
BRANCH   3  18
ATOM     18  C   UNL     1      -1.865  -1.129   1.201  0.00  0.00    +0.085 A 
ATOM     19  C   UNL     1      -1.257  -0.754   0.010  0.00  0.00    +0.068 A 
ATOM     20  C   UNL     1      -1.919  -1.129  -1.228  0.00  0.00    -0.023 A 
ATOM     21  C   UNL     1      -3.069  -1.822  -1.079  0.00  0.00    -0.004 A 
ATOM     22  S   UNL     1      -3.285  -1.969   0.672  0.00  0.00    -0.077 S 
ATOM     23  C   UNL     1      -3.958  -2.342  -2.166  0.00  0.00    +0.046 C 
ATOM     24  C   UNL     1      -3.178  -2.303  -3.489  0.00  0.00    -0.009 C 
ATOM     25  C   UNL     1      -2.513  -0.930  -3.629  0.00  0.00    +0.008 C 
ATOM     26  C   UNL     1      -1.378  -0.796  -2.613  0.00  0.00    +0.037 C 
ATOM     27  C   UNL     1      -4.139  -2.532  -4.657  0.00  0.00    +0.008 C 
BRANCH  19  28
ATOM     28  C   UNL     1       0.002  -0.004   0.002  0.00  0.00    +0.244 C 
ATOM     29  O   UNL     1       1.064  -0.598  -0.011  0.00  0.00    -0.270 OA
ATOM     30  N   UNL     1      -0.016   1.344   0.009  0.00  0.00    -0.325 N 
ATOM     31  H   UNL     1       0.817   1.840   0.004  0.00  0.00    +0.145 HD
ATOM     32  H   UNL     1      -0.863   1.817   0.016  0.00  0.00    +0.145 HD
ENDBRANCH  19  28
ENDBRANCH   3  18
TORSDOF 5
