REMARK  Name = ZINC36828397
REMARK  7 active torsions:
REMARK  status: ('A' for Active; 'I' for Inactive)
REMARK    1  A    between atoms: C_1  and  C_2
REMARK    2  A    between atoms: C_2  and  C_4
REMARK    3  A    between atoms: C_2  and  N_12
REMARK    4  A    between atoms: C_7  and  C_10
REMARK    5  A    between atoms: N_12  and  C_13
REMARK    6  A    between atoms: N_16  and  S_19
REMARK    7  A    between atoms: S_19  and  C_22
REMARK                            x       y       z     vdW  Elec       q    Type
REMARK                         _______ _______ _______ _____ _____    ______ ____
ROOT
ATOM      1  N   UNL     1       0.690  -0.478  -1.207  0.00  0.00    +0.385 N 
ATOM      2  H   UNL     1       1.608  -0.063  -1.256  0.00  0.00    -0.085 HD
ATOM      3  H   UNL     1       0.776  -1.482  -1.172  0.00  0.00    -0.085 HD
ENDROOT
BRANCH   1   4
ATOM      4  C   UNL     1      -0.086  -0.093  -2.394  0.00  0.00    -0.069 C 
ATOM      5  C   UNL     1      -1.432  -0.820  -2.381  0.00  0.00    +0.001 C 
ATOM      6  C   UNL     1      -2.252  -0.390  -3.602  0.00  0.00    +0.107 C 
ATOM      7  N   UNL     1      -1.453  -0.622  -4.813  0.00  0.00    -0.182 NA
ATOM      8  C   UNL     1      -0.105  -0.042  -4.891  0.00  0.00    +0.107 C 
ATOM      9  C   UNL     1       0.691  -0.476  -3.656  0.00  0.00    +0.001 C 
BRANCH   7  10
ATOM     10  S   UNL     1      -2.060  -1.518  -6.066  0.00  0.00    +0.029 S 
ATOM     11  O   UNL     1      -0.915  -2.044  -6.723  0.00  0.00    -0.158 OA
ATOM     12  O   UNL     1      -3.012  -2.385  -5.463  0.00  0.00    -0.158 OA
ATOM     13  C   UNL     1      -2.898  -0.317  -7.136  0.00  0.00    +0.215 C 
ENDBRANCH   7  10
ENDBRANCH   1   4
BRANCH   1  15
ATOM     14  C   UNL     1      -0.019   1.526   0.010  0.00  0.00    -0.009 C 
ATOM     15  C   UNL     1       0.002  -0.004   0.002  0.00  0.00    -0.044 C 
BRANCH  15  16
ATOM     16  C   UNL     1       0.731  -0.503   1.223  0.00  0.00    -0.062 A 
ATOM     17  C   UNL     1       2.114  -0.512   1.243  0.00  0.00    +0.003 A 
ATOM     18  C   UNL     1       2.788  -0.968   2.358  0.00  0.00    +0.019 A 
ATOM     19  C   UNL     1       2.070  -1.420   3.467  0.00  0.00    +0.052 A 
ATOM     20  C   UNL     1       0.674  -1.408   3.439  0.00  0.00    +0.019 A 
ATOM     21  C   UNL     1       0.014  -0.945   2.321  0.00  0.00    +0.003 A 
BRANCH  19  22
ATOM     22  C   UNL     1       2.763  -1.895   4.627  0.00  0.00    +0.099 C 
ATOM     23  N   UNL     1       3.312  -2.272   5.547  0.00  0.00    -0.191 NA
ENDBRANCH  19  22
ENDBRANCH  15  16
ENDBRANCH   1  15
TORSDOF 5
