REMARK  Name = ZINC48863219
REMARK  3 active torsions:
REMARK  status: ('A' for Active; 'I' for Inactive)
REMARK    1  A    between atoms: C_6  and  C_7
REMARK    2  A    between atoms: C_13  and  C_15
REMARK    3  A    between atoms: C_15  and  O_16
REMARK                            x       y       z     vdW  Elec       q    Type
REMARK                         _______ _______ _______ _____ _____    ______ ____
ROOT
ATOM      1  C   UNL     1       0.012   1.368   0.190  0.00  0.00    +0.017 A 
ATOM      2  C   UNL     1       1.204   2.061   0.205  0.00  0.00    +0.050 A 
ATOM      3  C   UNL     1       2.403   1.378   0.060  0.00  0.00    +0.162 A 
ATOM      4  C   UNL     1       2.409  -0.003  -0.102  0.00  0.00    +0.163 A 
ATOM      5  C   UNL     1       1.221  -0.705  -0.119  0.00  0.00    +0.062 A 
ATOM      6  C   UNL     1       0.011  -0.019   0.027  0.00  0.00    +0.041 A 
ATOM      7  O   UNL     1       3.597  -0.660  -0.242  0.00  0.00    -0.488 OA
ATOM      8  C   UNL     1       4.311  -0.409  -1.454  0.00  0.00    +0.232 C 
ATOM      9  C   UNL     1       5.150   0.853  -1.335  0.00  0.00    +0.082 C 
ATOM     10  C   UNL     1       4.298   2.100  -1.161  0.00  0.00    +0.232 C 
ATOM     11  O   UNL     1       3.585   2.058   0.076  0.00  0.00    -0.488 OA
ENDROOT
BRANCH   6  12
ATOM     12  C   UNL     1      -1.265  -0.760   0.010  0.00  0.00    +0.247 C 
ATOM     13  O   UNL     1      -2.231  -0.322   0.604  0.00  0.00    -0.270 OA
ATOM     14  N   UNL     1      -1.360  -1.923  -0.665  0.00  0.00    -0.292 N 
ATOM     15  C   UNL     1      -0.253  -2.608  -1.357  0.00  0.00    +0.108 C 
ATOM     16  C   UNL     1      -0.940  -3.480  -2.438  0.00  0.00    +0.021 C 
ATOM     17  C   UNL     1      -2.220  -3.946  -1.694  0.00  0.00    +0.026 C 
ATOM     18  C   UNL     1      -2.584  -2.722  -0.828  0.00  0.00    +0.102 C 
BRANCH  18  19
ATOM     19  C   UNL     1      -3.091  -3.182   0.541  0.00  0.00    +0.178 C 
BRANCH  19  20
ATOM     20  O   UNL     1      -2.139  -4.072   1.127  0.00  0.00    -0.393 OA
ATOM     21  H   UNL     1      -2.395  -4.404   1.998  0.00  0.00    +0.209 HD
ENDBRANCH  19  20
ENDBRANCH  18  19
ENDBRANCH   6  12
TORSDOF 3
