REMARK  Name = ZINC01726029
REMARK  5 active torsions:
REMARK  status: ('A' for Active; 'I' for Inactive)
REMARK    1  A    between atoms: N_12  and  C_15
REMARK    2  A    between atoms: C_15  and  C_16
REMARK    3  A    between atoms: C_16  and  C_18
REMARK    4  A    between atoms: C_18  and  C_19
REMARK    5  A    between atoms: C_21  and  O_26
REMARK                            x       y       z     vdW  Elec       q    Type
REMARK                         _______ _______ _______ _____ _____    ______ ____
ROOT
ATOM      1  C   UNL     1       1.181  -5.929   1.774  0.00  0.00    +0.065 A 
ATOM      2  C   UNL     1       2.154  -4.990   1.429  0.00  0.00    +0.069 A 
ATOM      3  C   UNL     1       3.242  -5.365   0.609  0.00  0.00    +0.082 A 
ATOM      4  C   UNL     1       3.333  -6.678   0.147  0.00  0.00    +0.078 A 
ATOM      5  C   UNL     1       2.361  -7.598   0.494  0.00  0.00    +0.168 A 
ATOM      6  C   UNL     1       1.285  -7.223   1.308  0.00  0.00    +0.167 A 
ATOM      7  O   UNL     1       0.482  -8.312   1.494  0.00  0.00    -0.453 OA
ATOM      8  C   UNL     1       0.850  -9.242   0.458  0.00  0.00    +0.466 C 
ATOM      9  O   UNL     1       2.224  -8.918   0.177  0.00  0.00    -0.453 OA
ATOM     10  N   UNL     1       4.176  -4.434   0.289  0.00  0.00    -0.237 NA
ATOM     11  C   UNL     1       4.092  -3.211   0.717  0.00  0.00    +0.203 A 
ATOM     12  N   UNL     1       3.081  -2.765   1.507  0.00  0.00    -0.292 N 
ATOM     13  C   UNL     1       2.092  -3.601   1.899  0.00  0.00    +0.262 A 
ATOM     14  O   UNL     1       1.183  -3.215   2.612  0.00  0.00    -0.267 OA
ENDROOT
BRANCH  12  15
ATOM     15  C   UNL     1       3.065  -1.366   1.944  0.00  0.00    +0.200 C 
BRANCH  15  16
ATOM     16  C   UNL     1       2.311  -0.534   0.938  0.00  0.00    +0.152 C 
ATOM     17  O   UNL     1       1.837  -1.056  -0.042  0.00  0.00    -0.296 OA
BRANCH  16  18
ATOM     18  C   UNL     1       2.150   0.948   1.156  0.00  0.00    +0.063 C 
BRANCH  18  19
ATOM     19  C   UNL     1       1.352   1.550  -0.003  0.00  0.00    -0.036 C 
ATOM     20  C   UNL     1       1.296   3.071   0.153  0.00  0.00    +0.101 C 
ATOM     21  C   UNL     1       0.480   3.667  -0.997  0.00  0.00    +0.028 C 
ATOM     22  C   UNL     1      -0.920   3.047  -0.994  0.00  0.00    -0.017 C 
ATOM     23  C   UNL     1      -0.800   1.527  -1.116  0.00  0.00    -0.082 C 
ATOM     24  N   UNL     1      -0.016   0.997   0.016  0.00  0.00    +0.383 N 
ATOM     25  H   UNL     1      -0.474   1.258   0.897  0.00  0.00    -0.085 HD
ATOM     26  H   UNL     1       0.032  -0.026  -0.055  0.00  0.00    -0.085 HD
BRANCH  20  27
ATOM     27  O   UNL     1       2.622   3.603   0.122  0.00  0.00    -0.393 OA
ATOM     28  H   UNL     1       2.662   4.564   0.216  0.00  0.00    +0.210 HD
ENDBRANCH  20  27
ENDBRANCH  18  19
ENDBRANCH  16  18
ENDBRANCH  15  16
ENDBRANCH  12  15
TORSDOF 5
