REMARK  Name = ZINC36017467
REMARK  6 active torsions:
REMARK  status: ('A' for Active; 'I' for Inactive)
REMARK    1  A    between atoms: C_1  and  C_2
REMARK    2  A    between atoms: C_2  and  C_3
REMARK    3  A    between atoms: C_3  and  C_5
REMARK    4  A    between atoms: C_3  and  C_6
REMARK    5  A    between atoms: N_10  and  C_18
REMARK    6  A    between atoms: C_18  and  C_19
REMARK                            x       y       z     vdW  Elec       q    Type
REMARK                         _______ _______ _______ _____ _____    ______ ____
ROOT
ATOM      1  C   UNL     1       0.906  -2.009   1.471  0.00  0.00    +0.145 C 
ATOM      2  C   UNL     1       2.359  -2.414   1.594  0.00  0.00    +0.235 C 
ATOM      3  O   UNL     1       3.005  -2.434   2.621  0.00  0.00    -0.274 OA
ATOM      4  N   UNL     1       2.815  -2.750   0.369  0.00  0.00    -0.278 N 
ATOM      5  C   UNL     1       1.740  -2.591  -0.612  0.00  0.00    +0.086 C 
ATOM      6  N   UNL     1       0.474  -2.536   0.153  0.00  0.00    -0.285 NA
ATOM      7  C   UNL     1       1.927  -1.296  -1.400  0.00  0.00    +0.023 C 
ATOM      8  C   UNL     1       3.201  -1.397  -2.243  0.00  0.00    -0.079 C 
ATOM      9  N   UNL     1       3.092  -2.534  -3.165  0.00  0.00    +0.379 N 
ATOM     10  C   UNL     1       2.997  -3.786  -2.405  0.00  0.00    -0.079 C 
ATOM     11  C   UNL     1       1.715  -3.783  -1.568  0.00  0.00    +0.023 C 
ATOM     12  H   UNL     1       0.067  -3.454   0.247  0.00  0.00    +0.125 HD
ATOM     13  H   UNL     1       2.267  -2.425  -3.735  0.00  0.00    -0.086 HD
ATOM     14  H   UNL     1       3.907  -2.563  -3.759  0.00  0.00    -0.086 HD
ENDROOT
BRANCH   1  15
ATOM     15  C   UNL     1       0.773  -0.485   1.505  0.00  0.00    +0.012 C 
ATOM     16  C   UNL     1      -0.657  -0.090   1.132  0.00  0.00    +0.009 C 
BRANCH  15  18
ATOM     17  C   UNL     1       1.081   1.553   2.917  0.00  0.00    +0.004 C 
ATOM     18  C   UNL     1       1.092   0.023   2.913  0.00  0.00    +0.002 C 
ENDBRANCH  15  18
ENDBRANCH   1  15
BRANCH   4  19
ATOM     19  C   UNL     1       4.176  -3.201   0.068  0.00  0.00    +0.144 C 
BRANCH  19  20
ATOM     20  C   UNL     1       4.218  -4.708   0.077  0.00  0.00    -0.026 A 
ATOM     21  C   UNL     1       3.515  -5.412   1.036  0.00  0.00    +0.009 A 
ATOM     22  C   UNL     1       3.550  -6.794   1.048  0.00  0.00    +0.050 A 
ATOM     23  C   UNL     1       4.292  -7.477   0.098  0.00  0.00    +0.166 A 
ATOM     24  C   UNL     1       5.001  -6.767  -0.868  0.00  0.00    +0.167 A 
ATOM     25  C   UNL     1       4.957  -5.383  -0.877  0.00  0.00    +0.054 A 
ATOM     26  O   UNL     1       5.645  -7.658  -1.678  0.00  0.00    -0.453 OA
ATOM     27  C   UNL     1       5.653  -8.902  -0.953  0.00  0.00    +0.466 C 
ATOM     28  O   UNL     1       4.491  -8.812  -0.107  0.00  0.00    -0.453 OA
ENDBRANCH  19  20
ENDBRANCH   4  19
TORSDOF 4
