REMARK  Name = ZINC39688998
REMARK  10 active torsions:
REMARK  status: ('A' for Active; 'I' for Inactive)
REMARK    1  A    between atoms: C_1  and  C_2
REMARK    2  A    between atoms: C_2  and  C_3
REMARK    3  A    between atoms: C_3  and  C_4
REMARK    4  A    between atoms: C_4  and  C_5
REMARK    5  A    between atoms: C_5  and  C_7
REMARK    6  A    between atoms: C_5  and  C_8
REMARK    7  A    between atoms: C_12  and  C_21
REMARK    8  A    between atoms: N_23  and  C_24
REMARK    9  A    between atoms: C_24  and  C_25
REMARK   10  A    between atoms: N_29  and  C_30
REMARK                            x       y       z     vdW  Elec       q    Type
REMARK                         _______ _______ _______ _____ _____    ______ ____
ROOT
ATOM      1  C   UNL     1      -2.787  -3.988   0.448  0.00  0.00    +0.218 C 
ATOM      2  O   UNL     1      -1.784  -4.623   0.697  0.00  0.00    -0.275 OA
ATOM      3  N   UNL     1      -3.961  -4.624   0.269  0.00  0.00    -0.300 N 
ATOM      4  C   UNL     1      -5.257  -4.039  -0.150  0.00  0.00    +0.121 C 
ATOM      5  C   UNL     1      -5.866  -5.087  -1.109  0.00  0.00    +0.100 C 
ATOM      6  C   UNL     1      -5.202  -6.416  -0.711  0.00  0.00    -0.004 C 
ATOM      7  C   UNL     1      -4.247  -6.069   0.440  0.00  0.00    +0.115 C 
ATOM      8  C   UNL     1      -4.415  -6.986  -1.887  0.00  0.00    -0.010 C 
ATOM      9  C   UNL     1      -3.812  -8.335  -1.485  0.00  0.00    -0.082 C 
ATOM     10  N   UNL     1      -4.886  -9.257  -1.096  0.00  0.00    +0.379 N 
ATOM     11  C   UNL     1      -5.578  -8.746   0.093  0.00  0.00    -0.082 C 
ATOM     12  C   UNL     1      -6.256  -7.414  -0.242  0.00  0.00    -0.010 C 
ATOM     13  H   UNL     1      -5.544  -9.344  -1.855  0.00  0.00    -0.086 HD
ATOM     14  H   UNL     1      -4.491 -10.163  -0.890  0.00  0.00    -0.086 HD
ENDROOT
BRANCH   5  15
ATOM     15  C   UNL     1      -5.540  -4.742  -2.539  0.00  0.00    +0.219 C 
ATOM     16  O   UNL     1      -4.553  -4.085  -2.794  0.00  0.00    -0.275 OA
ATOM     17  N   UNL     1      -6.345  -5.164  -3.534  0.00  0.00    -0.308 N 
ATOM     18  H   UNL     1      -7.134  -5.689  -3.330  0.00  0.00    +0.149 HD
BRANCH  17  19
ATOM     19  C   UNL     1      -6.028  -4.828  -4.925  0.00  0.00    +0.176 C 
BRANCH  19  20
ATOM     20  C   UNL     1      -7.077  -5.414  -5.835  0.00  0.00    +0.104 A 
ATOM     21  N   UNL     1      -8.127  -4.787  -6.288  0.00  0.00    -0.348 N 
ATOM     22  C   UNL     1      -8.836  -5.616  -7.067  0.00  0.00    +0.101 A 
ATOM     23  C   UNL     1      -8.201  -6.803  -7.098  0.00  0.00    +0.104 A 
ATOM     24  N   UNL     1      -7.082  -6.674  -6.321  0.00  0.00    -0.338 N 
ATOM     25  C   UNL     1      -6.078  -7.710  -6.063  0.00  0.00    +0.150 C 
ATOM     26  H   UNL     1      -8.359  -3.865  -6.091  0.00  0.00    +0.166 HD
ENDBRANCH  19  20
ENDBRANCH  17  19
ENDBRANCH   5  15
BRANCH   1  27
ATOM     27  C   UNL     1      -2.720  -2.486   0.340  0.00  0.00    +0.072 C 
ATOM     28  C   UNL     1      -1.375  -2.078  -0.264  0.00  0.00    +0.017 C 
BRANCH  27  29
ATOM     29  C   UNL     1      -2.863  -1.867   1.732  0.00  0.00    +0.012 C 
BRANCH  29  30
ATOM     30  C   UNL     1      -2.920  -0.343   1.609  0.00  0.00    +0.000 C 
BRANCH  30  32
ATOM     31  C   UNL     1      -3.119   1.799   2.879  0.00  0.00    +0.004 C 
ATOM     32  C   UNL     1      -3.062   0.275   3.002  0.00  0.00    -0.003 C 
ENDBRANCH  30  32
ENDBRANCH  29  30
ENDBRANCH  27  29
ENDBRANCH   1  27
TORSDOF 7
