REMARK  Name = ZINC52306935
REMARK  4 active torsions:
REMARK  status: ('A' for Active; 'I' for Inactive)
REMARK    1  A    between atoms: C_1  and  C_2
REMARK    2  A    between atoms: C_4  and  S_14
REMARK    3  A    between atoms: N_5  and  C_7
REMARK    4  A    between atoms: S_14  and  N_17
REMARK                            x       y       z     vdW  Elec       q    Type
REMARK                         _______ _______ _______ _____ _____    ______ ____
ROOT
ATOM      1  C   UNL     1      -0.406   1.468   0.063  0.00  0.00    +0.067 C 
ATOM      2  C   UNL     1      -0.164  -0.019   0.025  0.00  0.00    +0.062 A 
ATOM      3  C   UNL     1      -0.232  -0.832  -1.112  0.00  0.00    +0.073 A 
ATOM      4  C   UNL     1       0.049  -2.101  -0.734  0.00  0.00    +0.197 A 
ATOM      5  N   UNL     1       0.288  -2.091   0.597  0.00  0.00    -0.210 N 
ATOM      6  N   UNL     1       0.152  -0.772   1.048  0.00  0.00    -0.170 NA
ENDROOT
BRANCH   5   7
ATOM      7  C   UNL     1       0.617  -3.203   1.385  0.00  0.00    +0.103 A 
ATOM      8  C   UNL     1       1.624  -4.069   0.981  0.00  0.00    +0.031 A 
ATOM      9  C   UNL     1       1.946  -5.163   1.759  0.00  0.00    +0.002 A 
ATOM     10  C   UNL     1       1.267  -5.399   2.940  0.00  0.00    +0.003 A 
ATOM     11  C   UNL     1       0.263  -4.540   3.347  0.00  0.00    +0.040 A 
ATOM     12  C   UNL     1      -0.061  -3.439   2.576  0.00  0.00    +0.149 A 
ATOM     13  F   UNL     1      -1.038  -2.596   2.976  0.00  0.00    -0.203 F 
ENDBRANCH   5   7
BRANCH   4  14
ATOM     14  S   UNL     1       0.096  -3.513  -1.787  0.00  0.00    +0.073 S 
ATOM     15  O   UNL     1       1.441  -3.648  -2.226  0.00  0.00    -0.152 OA
ATOM     16  O   UNL     1      -0.591  -4.552  -1.104  0.00  0.00    -0.152 OA
BRANCH  14  17
ATOM     17  N   UNL     1      -0.805  -3.153  -3.129  0.00  0.00    -0.202 NA
ATOM     18  H   UNL     1      -1.234  -2.286  -3.207  0.00  0.00    +0.144 HD
ATOM     19  H   UNL     1      -0.904  -3.808  -3.837  0.00  0.00    +0.144 HD
ENDBRANCH  14  17
ENDBRANCH   4  14
TORSDOF 3
