REMARK  Name = ZINC61699141
REMARK  8 active torsions:
REMARK  status: ('A' for Active; 'I' for Inactive)
REMARK    1  A    between atoms: C_1  and  C_2
REMARK    2  A    between atoms: C_2  and  N_3
REMARK    3  A    between atoms: N_3  and  C_4
REMARK    4  A    between atoms: C_4  and  C_6
REMARK    5  A    between atoms: C_4  and  C_7
REMARK    6  A    between atoms: C_10  and  O_14
REMARK    7  A    between atoms: O_14  and  C_15
REMARK    8  A    between atoms: C_18  and  C_21
REMARK                            x       y       z     vdW  Elec       q    Type
REMARK                         _______ _______ _______ _____ _____    ______ ____
ROOT
ATOM      1  C   UNL     1      -2.674  -3.193   0.514  0.00  0.00    -0.060 A 
ATOM      2  C   UNL     1      -3.679  -2.637   1.283  0.00  0.00    +0.005 A 
ATOM      3  C   UNL     1      -5.003  -2.881   0.973  0.00  0.00    +0.048 A 
ATOM      4  C   UNL     1      -5.324  -3.685  -0.111  0.00  0.00    +0.147 A 
ATOM      5  C   UNL     1      -4.313  -4.242  -0.882  0.00  0.00    +0.083 A 
ATOM      6  C   UNL     1      -2.990  -3.990  -0.570  0.00  0.00    +0.025 A 
ATOM      7 CL   UNL     1      -4.710  -5.249  -2.239  0.00  0.00    -0.080 Cl
ENDROOT
BRANCH   1   8
ATOM      8  C   UNL     1      -1.231  -2.925   0.855  0.00  0.00    -0.044 C 
ATOM      9  C   UNL     1      -0.799  -3.839   2.003  0.00  0.00    -0.009 C 
BRANCH   8  10
ATOM     10  N   UNL     1      -1.077  -1.522   1.262  0.00  0.00    +0.383 N 
ATOM     11  H   UNL     1      -1.587  -1.362   2.118  0.00  0.00    -0.085 HD
ATOM     12  H   UNL     1      -1.438  -0.919   0.538  0.00  0.00    -0.085 HD
BRANCH  10  14
ATOM     13  C   UNL     1       0.507   0.233   1.903  0.00  0.00    -0.017 C 
ATOM     14  C   UNL     1       0.346  -1.228   1.479  0.00  0.00    -0.085 C 
ENDBRANCH  10  14
ENDBRANCH   8  10
ENDBRANCH   1   8
BRANCH   4  15
ATOM     15  O   UNL     1      -6.626  -3.927  -0.417  0.00  0.00    -0.455 OA
BRANCH  15  16
ATOM     16  C   UNL     1      -7.581  -3.354   0.359  0.00  0.00    +0.129 A 
ATOM     17  C   UNL     1      -8.059  -4.025   1.478  0.00  0.00    +0.047 A 
ATOM     18  C   UNL     1      -9.028  -3.447   2.268  0.00  0.00    +0.022 A 
ATOM     19  C   UNL     1      -9.530  -2.184   1.943  0.00  0.00    +0.052 A 
ATOM     20  C   UNL     1      -9.046  -1.512   0.817  0.00  0.00    +0.022 A 
ATOM     21  C   UNL     1      -8.073  -2.095   0.035  0.00  0.00    +0.047 A 
BRANCH  19  22
ATOM     22  C   UNL     1     -10.537  -1.579   2.762  0.00  0.00    +0.099 C 
ATOM     23  N   UNL     1     -11.337  -1.100   3.411  0.00  0.00    -0.191 NA
ENDBRANCH  19  22
ENDBRANCH  15  16
ENDBRANCH   4  15
TORSDOF 6
