REMARK  Name = ZINC34666206
REMARK  8 active torsions:
REMARK  status: ('A' for Active; 'I' for Inactive)
REMARK    1  A    between atoms: C_1  and  C_2
REMARK    2  A    between atoms: C_2  and  N_3
REMARK    3  A    between atoms: N_3  and  C_4
REMARK    4  A    between atoms: C_4  and  C_6
REMARK    5  A    between atoms: C_4  and  C_7
REMARK    6  A    between atoms: C_12  and  O_13
REMARK    7  A    between atoms: O_13  and  C_14
REMARK    8  A    between atoms: C_17  and  C_21
REMARK                            x       y       z     vdW  Elec       q    Type
REMARK                         _______ _______ _______ _____ _____    ______ ____
ROOT
ATOM      1  C   UNL     1      -2.753  -2.644  -0.130  0.00  0.00    -0.017 A 
ATOM      2  C   UNL     1      -3.818  -1.907  -0.612  0.00  0.00    +0.044 A 
ATOM      3  C   UNL     1      -5.115  -2.326  -0.372  0.00  0.00    +0.124 A 
ATOM      4  C   UNL     1      -5.348  -3.483   0.352  0.00  0.00    +0.042 A 
ATOM      5  C   UNL     1      -4.285  -4.222   0.836  0.00  0.00    +0.049 A 
ATOM      6  C   UNL     1      -2.984  -3.807   0.590  0.00  0.00    +0.130 A 
ATOM      7  F   UNL     1      -6.155  -1.605  -0.844  0.00  0.00    -0.205 F 
ENDROOT
BRANCH   1   8
ATOM      8  C   UNL     1      -1.341  -2.188  -0.391  0.00  0.00    -0.040 C 
ATOM      9  C   UNL     1      -0.800  -2.892  -1.637  0.00  0.00    -0.009 C 
BRANCH   8  10
ATOM     10  N   UNL     1      -1.327  -0.734  -0.606  0.00  0.00    +0.383 N 
ATOM     11  H   UNL     1      -1.760  -0.274   0.181  0.00  0.00    -0.085 HD
ATOM     12  H   UNL     1      -1.839  -0.514  -1.447  0.00  0.00    -0.085 HD
BRANCH  10  14
ATOM     13  C   UNL     1       0.074   1.241  -0.966  0.00  0.00    -0.017 C 
ATOM     14  C   UNL     1       0.060  -0.272  -0.742  0.00  0.00    -0.085 C 
ENDBRANCH  10  14
ENDBRANCH   8  10
ENDBRANCH   1   8
BRANCH   6  15
ATOM     15  O   UNL     1      -1.938  -4.535   1.060  0.00  0.00    -0.455 OA
BRANCH  15  16
ATOM     16  C   UNL     1      -2.208  -5.719   1.671  0.00  0.00    +0.142 A 
ATOM     17  C   UNL     1      -2.344  -5.774   3.050  0.00  0.00    +0.047 A 
ATOM     18  C   UNL     1      -2.619  -6.979   3.669  0.00  0.00    +0.007 A 
ATOM     19  C   UNL     1      -2.757  -8.129   2.914  0.00  0.00    -0.049 A 
ATOM     20  C   UNL     1      -2.621  -8.078   1.539  0.00  0.00    +0.022 A 
ATOM     21  C   UNL     1      -2.352  -6.874   0.915  0.00  0.00    +0.060 A 
ATOM     22 BR   UNL     1      -2.174  -6.803  -0.966  0.00  0.00    -0.046 Br
ATOM     23  C   UNL     1      -3.057  -9.442   3.592  0.00  0.00    +0.044 C 
ENDBRANCH  15  16
ENDBRANCH   6  15
TORSDOF 5
