REMARK  Name = ZINC53443990
REMARK  4 active torsions:
REMARK  status: ('A' for Active; 'I' for Inactive)
REMARK    1  A    between atoms: N_9  and  C_13
REMARK    2  A    between atoms: C_13  and  C_14
REMARK    3  A    between atoms: C_14  and  N_15
REMARK    4  A    between atoms: N_15  and  C_16
REMARK                            x       y       z     vdW  Elec       q    Type
REMARK                         _______ _______ _______ _____ _____    ______ ____
ROOT
ATOM      1  C   UNL     1      -0.576  -2.553   1.249  0.00  0.00    +0.066 C 
ENDROOT
BRANCH   1   8
ATOM      2  C   UNL     1      -0.019   1.525   0.010  0.00  0.00    +0.002 C 
ATOM      3  C   UNL     1       1.418   2.053  -0.001  0.00  0.00    +0.003 C 
ATOM      4  C   UNL     1       2.152   1.550   1.244  0.00  0.00    +0.033 C 
ATOM      5  C   UNL     1       2.169   0.022   1.248  0.00  0.00    +0.135 C 
ATOM      6  C   UNL     1       0.736  -0.515   1.235  0.00  0.00    +0.085 C 
ATOM      7  C   UNL     1       0.002  -0.004   0.002  0.00  0.00    +0.021 C 
ATOM      8  N   UNL     1       0.778  -1.986   1.196  0.00  0.00    -0.297 NA
ATOM      9  C   UNL     1       1.498  -2.450   0.001  0.00  0.00    +0.112 C 
ATOM     10  C   UNL     1       2.920  -1.886   0.014  0.00  0.00    +0.175 C 
ATOM     11  O   UNL     1       2.856  -0.459   0.090  0.00  0.00    -0.374 OA
ENDBRANCH   1   8
BRANCH   1  12
ATOM     12  C   UNL     1      -0.487  -4.066   1.458  0.00  0.00    -0.067 C 
BRANCH  12  13
ATOM     13  N   UNL     1      -1.842  -4.633   1.511  0.00  0.00    +0.383 N 
ATOM     14  H   UNL     1      -2.351  -4.217   2.276  0.00  0.00    -0.085 HD
ATOM     15  H   UNL     1      -2.321  -4.440   0.644  0.00  0.00    -0.085 HD
BRANCH  13  16
ATOM     16  C   UNL     1      -1.757  -6.085   1.711  0.00  0.00    -0.049 C 
ATOM     17  C   UNL     1      -1.123  -6.744   0.475  0.00  0.00    +0.008 C 
ATOM     18  C   UNL     1      -1.320  -8.278   0.535  0.00  0.00    +0.164 C 
ATOM     19  S   UNL     1      -2.869  -8.449   1.511  0.00  0.00    -0.033 S 
ATOM     20  O   UNL     1      -2.581  -9.140   2.719  0.00  0.00    -0.174 OA
ATOM     21  O   UNL     1      -3.901  -8.928   0.661  0.00  0.00    -0.174 OA
ATOM     22  C   UNL     1      -3.184  -6.675   1.896  0.00  0.00    +0.150 C 
ENDBRANCH  13  16
ENDBRANCH  12  13
ENDBRANCH   1  12
TORSDOF 4
