REMARK  Name = ZINC21516777
REMARK  9 active torsions:
REMARK  status: ('A' for Active; 'I' for Inactive)
REMARK    1  A    between atoms: C_1  and  C_2
REMARK    2  A    between atoms: C_2  and  C_4
REMARK    3  A    between atoms: C_2  and  N_11
REMARK    4  A    between atoms: N_11  and  C_12
REMARK    5  A    between atoms: C_12  and  C_14
REMARK    6  A    between atoms: C_12  and  C_15
REMARK    7  A    between atoms: C_18  and  O_23
REMARK    8  A    between atoms: C_19  and  O_21
REMARK    9  A    between atoms: O_21  and  C_22
REMARK                            x       y       z     vdW  Elec       q    Type
REMARK                         _______ _______ _______ _____ _____    ______ ____
ROOT
ATOM      1  N   UNL     1      -1.246   3.279  -0.860  0.00  0.00    +0.388 N 
ATOM      2  H   UNL     1      -1.360   3.196   0.231  0.00  0.00    -0.084 HD
ATOM      3  H   UNL     1      -0.469   4.023  -1.091  0.00  0.00    -0.084 HD
ENDROOT
BRANCH   1   5
ATOM      4  C   UNL     1      -1.524   0.859  -0.607  0.00  0.00    -0.009 C 
ATOM      5  C   UNL     1      -0.855   1.975  -1.412  0.00  0.00    -0.043 C 
BRANCH   5   6
ATOM      6  C   UNL     1       0.643   1.824  -1.331  0.00  0.00    -0.062 A 
ATOM      7  C   UNL     1       1.323   2.275  -0.215  0.00  0.00    +0.003 A 
ATOM      8  C   UNL     1       2.697   2.142  -0.143  0.00  0.00    +0.020 A 
ATOM      9  C   UNL     1       3.391   1.558  -1.188  0.00  0.00    +0.041 A 
ATOM     10  C   UNL     1       2.709   1.107  -2.304  0.00  0.00    +0.020 A 
ATOM     11  C   UNL     1       1.335   1.240  -2.375  0.00  0.00    +0.003 A 
ATOM     12 CL   UNL     1       5.117   1.389  -1.098  0.00  0.00    -0.084 Cl
ENDBRANCH   5   6
ENDBRANCH   1   5
BRANCH   1  13
ATOM     13  C   UNL     1      -2.519   3.733  -1.434  0.00  0.00    -0.043 C 
ATOM     14  C   UNL     1      -3.176   4.739  -0.486  0.00  0.00    -0.009 C 
BRANCH  13  15
ATOM     15  C   UNL     1      -2.264   4.391  -2.765  0.00  0.00    -0.058 A 
ATOM     16  C   UNL     1      -1.164   5.213  -2.929  0.00  0.00    +0.006 A 
ATOM     17  C   UNL     1      -0.925   5.818  -4.149  0.00  0.00    +0.049 A 
ATOM     18  C   UNL     1      -1.789   5.602  -5.210  0.00  0.00    +0.158 A 
ATOM     19  C   UNL     1      -2.896   4.775  -5.045  0.00  0.00    +0.161 A 
ATOM     20  C   UNL     1      -3.127   4.167  -3.822  0.00  0.00    +0.051 A 
BRANCH  19  21
ATOM     21  O   UNL     1      -3.746   4.560  -6.085  0.00  0.00    -0.491 OA
ATOM     22  C   UNL     1      -4.862   3.700  -5.843  0.00  0.00    +0.277 C 
ENDBRANCH  19  21
BRANCH  18  23
ATOM     23  O   UNL     1      -1.554   6.196  -6.411  0.00  0.00    -0.503 OA
ATOM     24  H   UNL     1      -2.241   6.024  -7.253  0.00  0.00    +0.292 HD
ENDBRANCH  18  23
ENDBRANCH  13  15
ENDBRANCH   1  13
TORSDOF 6
