REMARK  Name = ZINC51991269
REMARK  3 active torsions:
REMARK  status: ('A' for Active; 'I' for Inactive)
REMARK    1  A    between atoms: C_8  and  N_13
REMARK    2  A    between atoms: N_13  and  C_14
REMARK    3  A    between atoms: C_20  and  O_22
REMARK                            x       y       z     vdW  Elec       q    Type
REMARK                         _______ _______ _______ _____ _____    ______ ____
ROOT
ATOM      1  C   UNL     1      -0.017   1.379   0.010  0.00  0.00    +0.017 A 
ATOM      2  C   UNL     1       1.164   2.093   0.002  0.00  0.00    +0.024 A 
ATOM      3  C   UNL     1       2.386   1.423  -0.013  0.00  0.00    +0.035 A 
ATOM      4  C   UNL     1       2.392   0.034  -0.021  0.00  0.00    -0.030 A 
ATOM      5  C   UNL     1       1.213  -0.676  -0.012  0.00  0.00    +0.019 A 
ATOM      6  C   UNL     1       0.002  -0.004   0.002  0.00  0.00    +0.018 A 
ATOM      7 BR   UNL     1      -1.621  -0.975   0.012  0.00  0.00    -0.050 Br
ATOM      8  C   UNL     1       3.844  -0.385  -0.038  0.00  0.00    +0.049 C 
ATOM      9  C   UNL     1       4.605   0.924  -0.038  0.00  0.00    +0.208 C 
ATOM     10  O   UNL     1       5.810   1.057  -0.049  0.00  0.00    -0.277 OA
ATOM     11  N   UNL     1       3.694   1.911  -0.024  0.00  0.00    -0.286 N 
ATOM     12  H   UNL     1       3.919   2.855  -0.022  0.00  0.00    +0.155 HD
ENDROOT
BRANCH   8  13
ATOM     13  N   UNL     1       4.143  -1.157  -1.251  0.00  0.00    +0.393 N 
ATOM     14  H   UNL     1       3.508  -1.938  -1.317  0.00  0.00    -0.084 HD
ATOM     15  H   UNL     1       4.035  -0.566  -2.061  0.00  0.00    -0.084 HD
BRANCH  13  16
ATOM     16  C   UNL     1       5.524  -1.654  -1.187  0.00  0.00    -0.041 C 
ATOM     17  C   UNL     1       5.656  -2.647  -0.031  0.00  0.00    -0.013 C 
ATOM     18  C   UNL     1       7.095  -3.164   0.035  0.00  0.00    -0.001 C 
ATOM     19  C   UNL     1       7.447  -3.862  -1.280  0.00  0.00    +0.002 C 
ATOM     20  C   UNL     1       7.315  -2.868  -2.436  0.00  0.00    +0.030 C 
ATOM     21  C   UNL     1       5.876  -2.352  -2.502  0.00  0.00    +0.101 C 
BRANCH  21  22
ATOM     22  O   UNL     1       5.753  -1.423  -3.582  0.00  0.00    -0.393 OA
ATOM     23  H   UNL     1       5.962  -1.798  -4.449  0.00  0.00    +0.210 HD
ENDBRANCH  21  22
ENDBRANCH  13  16
ENDBRANCH   8  13
TORSDOF 3
