REMARK  Name = ZINC59644767
REMARK  5 active torsions:
REMARK  status: ('A' for Active; 'I' for Inactive)
REMARK    1  A    between atoms: C_6  and  C_7
REMARK    2  A    between atoms: C_10  and  C_12
REMARK    3  A    between atoms: N_13  and  N_14
REMARK    4  A    between atoms: C_15  and  C_17
REMARK    5  A    between atoms: C_17  and  C_18
REMARK                            x       y       z     vdW  Elec       q    Type
REMARK                         _______ _______ _______ _____ _____    ______ ____
ROOT
ATOM      1  C   UNL     1      -4.870  -1.042   0.039  0.00  0.00    +0.176 C 
ATOM      2  N   UNL     1      -5.382   0.154   0.045  0.00  0.00    -0.185 NA
ENDROOT
BRANCH   1   6
ATOM      3  C   UNL     1      -1.264  -0.762   0.011  0.00  0.00    +0.136 A 
ATOM      4  C   UNL     1      -1.377  -2.121   0.010  0.00  0.00    +0.050 A 
ATOM      5  C   UNL     1      -2.746  -2.421   0.021  0.00  0.00    +0.051 A 
ATOM      6  C   UNL     1      -3.416  -1.217   0.027  0.00  0.00    +0.148 A 
ATOM      7  O   UNL     1      -2.500  -0.227   0.026  0.00  0.00    -0.454 OA
BRANCH   3  13
ATOM      8  C   UNL     1      -0.017   1.393   0.010  0.00  0.00    +0.013 A 
ATOM      9  C   UNL     1       1.170   2.096   0.002  0.00  0.00    +0.022 A 
ATOM     10  C   UNL     1       2.378   1.421  -0.013  0.00  0.00    +0.059 A 
ATOM     11  C   UNL     1       2.405   0.035  -0.021  0.00  0.00    +0.060 A 
ATOM     12  C   UNL     1       1.224  -0.680  -0.014  0.00  0.00    +0.033 A 
ATOM     13  C   UNL     1       0.002  -0.004   0.002  0.00  0.00    +0.019 A 
ATOM     14 CL   UNL     1       3.925  -0.803  -0.040  0.00  0.00    -0.082 Cl
ATOM     15 CL   UNL     1       3.867   2.314  -0.023  0.00  0.00    -0.082 Cl
ENDBRANCH   3  13
ENDBRANCH   1   6
BRANCH   2  16
ATOM     16  N   UNL     1      -6.773   0.321   0.056  0.00  0.00    -0.207 N 
ATOM     17  C   UNL     1      -7.303   1.561   0.062  0.00  0.00    +0.238 C 
ATOM     18  O   UNL     1      -6.575   2.531   0.057  0.00  0.00    -0.274 OA
ATOM     19  H   UNL     1      -7.354  -0.455   0.060  0.00  0.00    +0.177 HD
BRANCH  17  20
ATOM     20  C   UNL     1      -8.799   1.740   0.074  0.00  0.00    +0.153 C 
BRANCH  20  21
ATOM     21  C   UNL     1      -9.128   3.211   0.078  0.00  0.00    +0.059 A 
ATOM     22  C   UNL     1      -9.941   3.756  -0.858  0.00  0.00    +0.072 A 
ATOM     23  S   UNL     1      -9.947   5.465  -0.340  0.00  0.00    -0.061 S 
ATOM     24  C   UNL     1      -8.931   5.308   0.992  0.00  0.00    +0.156 A 
ATOM     25  N   UNL     1      -8.641   4.024   0.999  0.00  0.00    -0.230 NA
ATOM     26  N   UNL     1      -8.506   6.291   1.872  0.00  0.00    -0.338 N 
ATOM     27  H   UNL     1      -8.800   7.208   1.754  0.00  0.00    +0.144 HD
ATOM     28  H   UNL     1      -7.913   6.063   2.605  0.00  0.00    +0.144 HD
ENDBRANCH  20  21
ENDBRANCH  17  20
ENDBRANCH   2  16
TORSDOF 5
