REMARK  Name = ZINC25691393
REMARK  6 active torsions:
REMARK  status: ('A' for Active; 'I' for Inactive)
REMARK    1  A    between atoms: C_1  and  O_2
REMARK    2  A    between atoms: O_2  and  C_3
REMARK    3  A    between atoms: C_5  and  N_26
REMARK    4  A    between atoms: C_7  and  N_25
REMARK    5  A    between atoms: C_16  and  C_19
REMARK    6  A    between atoms: C_27  and  C_29
REMARK                            x       y       z     vdW  Elec       q    Type
REMARK                         _______ _______ _______ _____ _____    ______ ____
ROOT
ATOM      1  C   UNL     1      -0.068   1.127   2.404  0.00  0.00    +0.269 C 
ATOM      2  C   UNL     1      -0.989   1.462   3.581  0.00  0.00    +0.117 C 
ATOM      3  C   UNL     1      -0.298   1.053   4.886  0.00  0.00    -0.018 C 
ATOM      4  C   UNL     1       1.053   1.762   4.986  0.00  0.00    +0.140 C 
ATOM      5  C   UNL     1       1.897   1.438   3.749  0.00  0.00    +0.174 C 
ATOM      6  O   UNL     1       1.177   1.806   2.570  0.00  0.00    -0.342 OA
ATOM      7  C   UNL     1       3.194   2.255   3.815  0.00  0.00    +0.197 C 
ATOM      8  O   UNL     1       2.861   3.639   3.959  0.00  0.00    -0.345 OA
ATOM      9  C   UNL     1       2.068   3.926   5.113  0.00  0.00    +0.282 C 
ATOM     10  O   UNL     1       0.852   3.176   5.057  0.00  0.00    -0.343 OA
ENDROOT
BRANCH   9  11
ATOM     11  C   UNL     1       1.748   5.399   5.148  0.00  0.00    +0.008 A 
ATOM     12  C   UNL     1       0.432   5.821   5.119  0.00  0.00    +0.008 A 
ATOM     13  C   UNL     1       0.138   7.171   5.155  0.00  0.00    +0.000 A 
ATOM     14  C   UNL     1       1.161   8.100   5.212  0.00  0.00    +0.000 A 
ATOM     15  C   UNL     1       2.477   7.678   5.236  0.00  0.00    +0.000 A 
ATOM     16  C   UNL     1       2.771   6.327   5.203  0.00  0.00    +0.008 A 
ENDBRANCH   9  11
BRANCH   3  17
ATOM     17  N   UNL     1      -1.139   1.436   6.027  0.00  0.00    +0.383 N 
ATOM     18  H   UNL     1      -0.643   1.142   6.964  0.00  0.00    -0.089 HD
ATOM     19  H   UNL     1      -2.112   0.928   5.953  0.00  0.00    -0.089 HD
ATOM     20  H   UNL     1      -1.293   2.526   6.020  0.00  0.00    -0.089 HD
ENDBRANCH   3  17
BRANCH   2  21
ATOM     21  N   UNL     1      -2.249   0.728   3.442  0.00  0.00    -0.305 N 
ATOM     22  C   UNL     1      -3.244   1.234   2.688  0.00  0.00    +0.244 C 
ATOM     23  O   UNL     1      -3.096   2.300   2.123  0.00  0.00    -0.270 OA
ATOM     24  H   UNL     1      -2.382  -0.237   3.953  0.00  0.00    +0.149 HD
BRANCH  22  25
ATOM     25  C   UNL     1      -4.516   0.493   2.547  0.00  0.00    +0.037 A 
ATOM     26  C   UNL     1      -4.687  -0.734   3.190  0.00  0.00    +0.013 A 
ATOM     27  C   UNL     1      -5.878  -1.418   3.059  0.00  0.00    +0.001 A 
ATOM     28  C   UNL     1      -6.897  -0.895   2.284  0.00  0.00    +0.000 A 
ATOM     29  C   UNL     1      -6.733   0.319   1.640  0.00  0.00    +0.001 A 
ATOM     30  C   UNL     1      -5.549   1.015   1.767  0.00  0.00    +0.013 A 
ENDBRANCH  22  25
ENDBRANCH   2  21
BRANCH   1  32
ATOM     31  C   UNL     1      -0.013   1.086   0.008  0.00  0.00    +0.197 C 
ATOM     32  O   UNL     1      -0.682   1.547   1.184  0.00  0.00    -0.353 OA
ENDBRANCH   1  32
TORSDOF 5
