REMARK  Name = ZINC36954892
REMARK  9 active torsions:
REMARK  status: ('A' for Active; 'I' for Inactive)
REMARK    1  A    between atoms: C_1  and  C_2
REMARK    2  A    between atoms: C_5  and  C_7
REMARK    3  A    between atoms: C_7  and  C_9
REMARK    4  A    between atoms: C_7  and  N_10
REMARK    5  A    between atoms: N_10  and  C_11
REMARK    6  A    between atoms: C_11  and  C_13
REMARK    7  A    between atoms: C_11  and  C_14
REMARK    8  A    between atoms: C_17  and  S_20
REMARK    9  A    between atoms: S_20  and  N_23
REMARK                            x       y       z     vdW  Elec       q    Type
REMARK                         _______ _______ _______ _____ _____    ______ ____
ROOT
ATOM      1  C   UNL     1       2.739  -5.517   0.854  0.00  0.00    -0.043 C 
ATOM      2  C   UNL     1       3.374  -5.792  -0.510  0.00  0.00    -0.009 C 
ENDROOT
BRANCH   1   3
ATOM      3  C   UNL     1       3.776  -5.687   1.935  0.00  0.00    -0.062 A 
ATOM      4  C   UNL     1       4.677  -4.671   2.194  0.00  0.00    +0.004 A 
ATOM      5  C   UNL     1       5.628  -4.827   3.185  0.00  0.00    +0.029 A 
ATOM      6  C   UNL     1       5.678  -5.999   3.917  0.00  0.00    +0.105 A 
ATOM      7  C   UNL     1       4.777  -7.015   3.658  0.00  0.00    +0.029 A 
ATOM      8  C   UNL     1       3.823  -6.857   2.670  0.00  0.00    +0.004 A 
BRANCH   6   9
ATOM      9  S   UNL     1       6.891  -6.199   5.179  0.00  0.00    +0.056 S 
ATOM     10  O   UNL     1       7.076  -7.597   5.347  0.00  0.00    -0.153 OA
ATOM     11  O   UNL     1       7.962  -5.322   4.855  0.00  0.00    -0.153 OA
BRANCH   9  12
ATOM     12  N   UNL     1       6.229  -5.636   6.588  0.00  0.00    -0.204 NA
ATOM     13  H   UNL     1       6.500  -6.017   7.438  0.00  0.00    +0.144 HD
ATOM     14  H   UNL     1       5.570  -4.924   6.564  0.00  0.00    +0.144 HD
ENDBRANCH   9  12
ENDBRANCH   6   9
ENDBRANCH   1   3
BRANCH   1  15
ATOM     15  N   UNL     1       2.220  -4.143   0.886  0.00  0.00    +0.388 N 
ATOM     16  H   UNL     1       2.955  -3.500   0.630  0.00  0.00    -0.084 HD
ATOM     17  H   UNL     1       1.894  -3.928   1.816  0.00  0.00    -0.084 HD
BRANCH  15  18
ATOM     18  C   UNL     1       1.107  -4.018  -0.065  0.00  0.00    -0.036 C 
ATOM     19  C   UNL     1       0.658  -2.557  -0.134  0.00  0.00    -0.008 C 
BRANCH  18  24
ATOM     20  C   UNL     1      -2.979  -6.929   2.565  0.00  0.00    +0.051 C 
ATOM     21  C   UNL     1      -1.988  -6.263   1.646  0.00  0.00    -0.013 A 
ATOM     22  C   UNL     1      -1.876  -6.358   0.298  0.00  0.00    +0.011 A 
ATOM     23  C   UNL     1      -0.879  -5.648  -0.344  0.00  0.00    +0.010 A 
ATOM     24  C   UNL     1      -0.043  -4.877   0.394  0.00  0.00    -0.024 A 
ATOM     25  S   UNL     1      -0.663  -5.137   2.048  0.00  0.00    -0.100 S 
ENDBRANCH  18  24
ENDBRANCH  15  18
ENDBRANCH   1  15
TORSDOF 6
