REMARK  Name = ZINC54131894
REMARK  11 active torsions:
REMARK  status: ('A' for Active; 'I' for Inactive)
REMARK    1  A    between atoms: C_1  and  C_2
REMARK    2  A    between atoms: C_2  and  C_3
REMARK    3  A    between atoms: C_2  and  N_4
REMARK    4  A    between atoms: N_4  and  C_5
REMARK    5  A    between atoms: N_4  and  C_6
REMARK    6  A    between atoms: C_6  and  C_7
REMARK    7  A    between atoms: C_7  and  N_8
REMARK    8  A    between atoms: N_8  and  S_9
REMARK    9  A    between atoms: S_9  and  C_12
REMARK   10  A    between atoms: C_14  and  N_21
REMARK   11  A    between atoms: C_17  and  N_18
REMARK                            x       y       z     vdW  Elec       q    Type
REMARK                         _______ _______ _______ _____ _____    ______ ____
ROOT
ATOM      1  S   UNL     1      -4.093  -4.909   0.782  0.00  0.00    +0.061 S 
ATOM      2  O   UNL     1      -3.862  -6.311   0.806  0.00  0.00    -0.153 OA
ATOM      3  O   UNL     1      -4.398  -4.167   1.956  0.00  0.00    -0.153 OA
ENDROOT
BRANCH   1   4
ATOM      4  C   UNL     1      -5.420  -4.636  -0.345  0.00  0.00    +0.137 A 
ATOM      5  C   UNL     1      -6.507  -3.876   0.040  0.00  0.00    +0.053 A 
ATOM      6  C   UNL     1      -7.552  -3.661  -0.849  0.00  0.00    +0.027 A 
ATOM      7  C   UNL     1      -7.500  -4.212  -2.123  0.00  0.00    +0.025 A 
ATOM      8  C   UNL     1      -6.410  -4.971  -2.502  0.00  0.00    +0.036 A 
ATOM      9  C   UNL     1      -5.369  -5.179  -1.616  0.00  0.00    +0.152 A 
BRANCH   9  10
ATOM     10  N   UNL     1      -4.199  -5.988  -2.026  0.00  0.00    +0.058 N 
ATOM     11  O   UNL     1      -4.209  -6.569  -3.087  0.00  0.00    -0.126 OA
ATOM     12  O   UNL     1      -3.235  -6.068  -1.302  0.00  0.00    -0.126 OA
ENDBRANCH   9  10
BRANCH   6  13
ATOM     13  N   UNL     1      -8.653  -2.893  -0.463  0.00  0.00    -0.358 N 
ATOM     14  H   UNL     1      -8.688  -2.510   0.427  0.00  0.00    +0.142 HD
ATOM     15  H   UNL     1      -9.382  -2.744  -1.085  0.00  0.00    +0.142 HD
ENDBRANCH   6  13
ENDBRANCH   1   4
BRANCH   1  16
ATOM     16  N   UNL     1      -2.740  -4.218   0.123  0.00  0.00    -0.192 NA
ATOM     17  H   UNL     1      -1.978  -4.770  -0.111  0.00  0.00    +0.148 HD
BRANCH  16  18
ATOM     18  C   UNL     1      -2.695  -2.771  -0.106  0.00  0.00    +0.087 C 
BRANCH  18  19
ATOM     19  C   UNL     1      -1.243  -2.332  -0.305  0.00  0.00    -0.062 C 
BRANCH  19  20
ATOM     20  N   UNL     1      -1.197  -0.882  -0.535  0.00  0.00    +0.380 N 
ATOM     21  C   UNL     1      -1.876  -0.565  -1.799  0.00  0.00    -0.096 C 
ATOM     22  H   UNL     1      -1.661  -0.406   0.224  0.00  0.00    -0.082 HD
BRANCH  20  24
ATOM     23  C   UNL     1       0.250   1.069  -0.847  0.00  0.00    -0.014 C 
ATOM     24  C   UNL     1       0.202  -0.441  -0.607  0.00  0.00    -0.075 C 
ATOM     25  C   UNL     1       0.909  -0.771   0.710  0.00  0.00    -0.014 C 
ENDBRANCH  20  24
ENDBRANCH  19  20
ENDBRANCH  18  19
ENDBRANCH  16  18
ENDBRANCH   1  16
TORSDOF 8
