REMARK  Name = ZINC36794393
REMARK  7 active torsions:
REMARK  status: ('A' for Active; 'I' for Inactive)
REMARK    1  A    between atoms: C_1  and  C_2
REMARK    2  A    between atoms: C_2  and  C_4
REMARK    3  A    between atoms: C_2  and  N_9
REMARK    4  A    between atoms: N_6  and  C_7
REMARK    5  A    between atoms: N_6  and  C_8
REMARK    6  A    between atoms: N_9  and  C_10
REMARK    7  A    between atoms: C_10  and  C_11
REMARK                            x       y       z     vdW  Elec       q    Type
REMARK                         _______ _______ _______ _____ _____    ______ ____
ROOT
ATOM      1  C   UNL     1      -2.076  -0.318  -1.178  0.00  0.00    -0.045 C 
ENDROOT
BRANCH   1   2
ATOM      2  C   UNL     1      -3.426  -0.987  -1.140  0.00  0.00    -0.047 A 
ATOM      3  C   UNL     1      -4.554  -0.247  -0.836  0.00  0.00    +0.052 A 
ATOM      4  C   UNL     1      -5.795  -0.860  -0.800  0.00  0.00    +0.166 A 
ATOM      5  C   UNL     1      -5.905  -2.222  -1.072  0.00  0.00    +0.167 A 
ATOM      6  C   UNL     1      -4.771  -2.957  -1.376  0.00  0.00    +0.065 A 
ATOM      7  C   UNL     1      -3.534  -2.338  -1.416  0.00  0.00    +0.023 A 
ATOM      8 BR   UNL     1      -1.989  -3.342  -1.839  0.00  0.00    -0.050 Br
ATOM      9  O   UNL     1      -7.218  -2.582  -0.974  0.00  0.00    -0.453 OA
ATOM     10  C   UNL     1      -7.855  -1.518  -0.241  0.00  0.00    +0.466 C 
ATOM     11  O   UNL     1      -7.040  -0.367  -0.532  0.00  0.00    -0.453 OA
ENDBRANCH   1   2
BRANCH   1  12
ATOM     12  N   UNL     1      -1.311  -0.692   0.019  0.00  0.00    +0.389 N 
ATOM     13  H   UNL     1      -1.189  -1.693   0.042  0.00  0.00    -0.084 HD
ATOM     14  H   UNL     1      -1.810  -0.395   0.844  0.00  0.00    -0.084 HD
BRANCH  12  16
ATOM     15  C   UNL     1      -0.174   1.477   0.074  0.00  0.00    -0.004 C 
ATOM     16  C   UNL     1       0.005  -0.040  -0.017  0.00  0.00    +0.013 C 
BRANCH  16  17
ATOM     17  C   UNL     1       0.836  -0.519   1.146  0.00  0.00    +0.201 C 
ATOM     18  O   UNL     1       0.295  -0.990   2.123  0.00  0.00    -0.277 OA
ATOM     19  N   UNL     1       2.179  -0.423   1.099  0.00  0.00    -0.309 N 
ATOM     20  C   UNL     1       2.991  -0.986   2.180  0.00  0.00    +0.131 C 
ATOM     21  C   UNL     1       2.827   0.245  -0.033  0.00  0.00    +0.131 C 
ENDBRANCH  16  17
ENDBRANCH  12  16
ENDBRANCH   1  12
TORSDOF 4
