REMARK  Name = ZINC37894350
REMARK  9 active torsions:
REMARK  status: ('A' for Active; 'I' for Inactive)
REMARK    1  A    between atoms: C_1  and  N_2
REMARK    2  A    between atoms: C_5  and  C_8
REMARK    3  A    between atoms: C_8  and  N_9
REMARK    4  A    between atoms: N_9  and  C_10
REMARK    5  A    between atoms: C_10  and  C_11
REMARK    6  A    between atoms: C_11  and  C_13
REMARK    7  A    between atoms: C_11  and  O_22
REMARK    8  A    between atoms: C_13  and  N_14
REMARK    9  A    between atoms: C_16  and  N_19
REMARK                            x       y       z     vdW  Elec       q    Type
REMARK                         _______ _______ _______ _____ _____    ______ ____
ROOT
ATOM      1  C   UNL     1       1.250  -5.352   1.886  0.00  0.00    -0.049 C 
ENDROOT
BRANCH   1   2
ATOM      2  N   UNL     1       1.740  -4.182   1.145  0.00  0.00    +0.381 N 
ATOM      3  H   UNL     1       1.634  -4.343   0.154  0.00  0.00    -0.086 HD
ATOM      4  H   UNL     1       2.714  -4.033   1.359  0.00  0.00    -0.086 HD
BRANCH   2   5
ATOM      5  C   UNL     1       0.965  -2.996   1.534  0.00  0.00    -0.081 C 
BRANCH   5  10
ATOM      6  C   UNL     1      -0.018   1.465   0.010  0.00  0.00    -0.096 C 
ATOM      7  N   UNL     1       0.002  -0.004   0.002  0.00  0.00    +0.378 N 
ATOM      8  C   UNL     1       0.770  -0.499  -1.169  0.00  0.00    -0.079 C 
ATOM      9  C   UNL     1       1.175  -1.934  -0.746  0.00  0.00    -0.019 C 
ATOM     10  C   UNL     1       1.476  -1.778   0.762  0.00  0.00    -0.047 C 
ATOM     11  C   UNL     1       0.715  -0.511   1.195  0.00  0.00    -0.078 C 
ATOM     12  H   UNL     1      -0.940  -0.365  -0.020  0.00  0.00    -0.082 HD
ENDBRANCH   5  10
ENDBRANCH   2   5
ENDBRANCH   1   2
BRANCH   1  13
ATOM     13  C   UNL     1       2.056  -6.587   1.480  0.00  0.00    +0.119 C 
BRANCH  13  14
ATOM     14  O   UNL     1       1.906  -6.815   0.078  0.00  0.00    -0.392 OA
ATOM     15  H   UNL     1       0.993  -6.967  -0.200  0.00  0.00    +0.210 HD
ENDBRANCH  13  14
BRANCH  13  16
ATOM     16  C   UNL     1       1.546  -7.806   2.252  0.00  0.00    +0.172 C 
BRANCH  16  17
ATOM     17  N   UNL     1       2.394  -8.963   1.955  0.00  0.00    -0.267 N 
ATOM     18  C   UNL     1       3.031  -9.734   2.860  0.00  0.00    +0.141 A 
ATOM     19  C   UNL     1       3.705 -10.693   2.184  0.00  0.00    +0.163 A 
ATOM     20  C   UNL     1       3.472 -10.500   0.818  0.00  0.00    +0.167 A 
ATOM     21  N   UNL     1       2.682  -9.467   0.680  0.00  0.00    -0.177 NA
BRANCH  19  22
ATOM     22  N   UNL     1       4.542 -11.757   2.783  0.00  0.00    +0.059 N 
ATOM     23  O   UNL     1       4.669 -11.822   3.984  0.00  0.00    -0.126 OA
ATOM     24  O   UNL     1       5.098 -12.561   2.072  0.00  0.00    -0.126 OA
ENDBRANCH  19  22
ENDBRANCH  16  17
ENDBRANCH  13  16
ENDBRANCH   1  13
TORSDOF 8
