REMARK  Name = ZINC43460903
REMARK  2 active torsions:
REMARK  status: ('A' for Active; 'I' for Inactive)
REMARK    1  A    between atoms: C_6  and  N_22
REMARK    2  A    between atoms: C_7  and  C_11
REMARK                            x       y       z     vdW  Elec       q    Type
REMARK                         _______ _______ _______ _____ _____    ______ ____
ROOT
ATOM      1  C   UNL     1      -0.292   1.068   0.095  0.00  0.00    +0.001 A 
ATOM      2  C   UNL     1       0.805   1.927   0.075  0.00  0.00    +0.001 A 
ATOM      3  C   UNL     1       2.076   1.442   0.027  0.00  0.00    +0.008 A 
ATOM      4  C   UNL     1       2.290   0.052  -0.002  0.00  0.00    -0.016 A 
ATOM      5  C   UNL     1       3.590  -0.477  -0.050  0.00  0.00    +0.032 A 
ATOM      6  C   UNL     1       3.775  -1.830  -0.077  0.00  0.00    +0.036 A 
ATOM      7  C   UNL     1       2.669  -2.708  -0.057  0.00  0.00    +0.039 A 
ATOM      8  C   UNL     1       1.379  -2.210  -0.009  0.00  0.00    +0.022 A 
ATOM      9  C   UNL     1       1.174  -0.823   0.019  0.00  0.00    -0.017 A 
ATOM     10  C   UNL     1      -0.124  -0.282   0.068  0.00  0.00    +0.008 A 
ENDROOT
BRANCH   7  11
ATOM     11  C   UNL     1       2.891  -4.168  -0.088  0.00  0.00    +0.143 A 
ATOM     12  N   UNL     1       4.062  -4.755  -0.016  0.00  0.00    -0.208 NA
ATOM     13  H   UNL     1       0.953  -4.947  -0.254  0.00  0.00    +0.167 HD
ATOM     14  C   UNL     1       3.907  -6.094  -0.071  0.00  0.00    +0.178 A 
ATOM     15  C   UNL     1       2.528  -6.346  -0.187  0.00  0.00    +0.087 A 
ATOM     16  N   UNL     1       1.906  -5.112  -0.189  0.00  0.00    -0.337 N 
ATOM     17  C   UNL     1       2.077  -7.657  -0.265  0.00  0.00    +0.046 A 
ATOM     18  C   UNL     1       3.014  -8.675  -0.226  0.00  0.00    +0.038 A 
ATOM     19  C   UNL     1       4.360  -8.360  -0.112  0.00  0.00    +0.128 A 
ATOM     20  N   UNL     1       4.767  -7.111  -0.038  0.00  0.00    -0.233 NA
ATOM     21 BR   UNL     1       2.464 -10.482  -0.328  0.00  0.00    -0.049 Br
ENDBRANCH   7  11
BRANCH   6  22
ATOM     22  N   UNL     1       5.067  -2.349  -0.125  0.00  0.00    -0.357 N 
ATOM     23  H   UNL     1       5.825  -1.752  -0.225  0.00  0.00    +0.142 HD
ATOM     24  H   UNL     1       5.208  -3.306  -0.058  0.00  0.00    +0.142 HD
ENDBRANCH   6  22
TORSDOF 2
