REMARK  Name = ZINC26532358
REMARK  7 active torsions:
REMARK  status: ('A' for Active; 'I' for Inactive)
REMARK    1  A    between atoms: C_1  and  C_2
REMARK    2  A    between atoms: C_2  and  C_3
REMARK    3  A    between atoms: C_2  and  C_4
REMARK    4  A    between atoms: C_2  and  C_5
REMARK    5  A    between atoms: N_8  and  N_22
REMARK    6  A    between atoms: N_12  and  N_13
REMARK    7  A    between atoms: C_14  and  C_15
REMARK                            x       y       z     vdW  Elec       q    Type
REMARK                         _______ _______ _______ _____ _____    ______ ____
ROOT
ATOM      1  C   UNL     1      -1.063  -2.121   0.096  0.00  0.00    +0.106 A 
ATOM      2  C   UNL     1      -1.146  -0.712   0.108  0.00  0.00    +0.292 A 
ATOM      3  O   UNL     1      -2.222  -0.148   0.213  0.00  0.00    -0.264 OA
ATOM      4  N   UNL     1       0.002  -0.004  -0.000  0.00  0.00    -0.198 N 
ATOM      5  C   UNL     1       1.177  -0.684  -0.121  0.00  0.00    +0.253 A 
ATOM      6  N   UNL     1       1.189  -2.006  -0.120  0.00  0.00    -0.136 NA
ATOM      7  N   UNL     1       0.110  -2.697  -0.019  0.00  0.00    -0.273 N 
ATOM      8  N   UNL     1       2.353   0.006  -0.237  0.00  0.00    -0.204 N 
ATOM      9  H   UNL     1       2.358   1.103  -0.154  0.00  0.00    +0.177 HD
ATOM     10  H   UNL     1       0.186  -3.794  -0.029  0.00  0.00    +0.189 HD
ENDROOT
BRANCH   1  12
ATOM     11  C   UNL     1      -1.938  -4.440   0.173  0.00  0.00    +0.017 C 
ATOM     12  C   UNL     1      -2.312  -2.957   0.214  0.00  0.00    +0.009 C 
ATOM     13  C   UNL     1      -3.013  -2.644   1.537  0.00  0.00    +0.017 C 
ATOM     14  C   UNL     1      -3.252  -2.636  -0.950  0.00  0.00    +0.017 C 
ENDBRANCH   1  12
BRANCH   4  15
ATOM     15  N   UNL     1      -0.017   1.362   0.005  0.00  0.00    -0.293 N 
ATOM     16  H   UNL     1       0.924   1.925  -0.084  0.00  0.00    +0.163 HD
ATOM     17  H   UNL     1      -0.973   1.898   0.099  0.00  0.00    +0.163 HD
ENDBRANCH   4  15
BRANCH   8  18
ATOM     18  N   UNL     1       3.551  -0.684  -0.463  0.00  0.00    -0.188 NA
ATOM     19  C   UNL     1       4.667  -0.029  -0.574  0.00  0.00    +0.138 C 
BRANCH  19  20
ATOM     20  C   UNL     1       5.928  -0.756  -0.812  0.00  0.00    -0.005 A 
ATOM     21  C   UNL     1       5.926  -2.149  -0.912  0.00  0.00    +0.011 A 
ATOM     22  C   UNL     1       7.108  -2.822  -1.139  0.00  0.00    +0.020 A 
ATOM     23  C   UNL     1       8.296  -2.121  -1.257  0.00  0.00    +0.041 A 
ATOM     24  C   UNL     1       8.306  -0.740  -1.153  0.00  0.00    +0.020 A 
ATOM     25  C   UNL     1       7.130  -0.054  -0.931  0.00  0.00    +0.011 A 
ATOM     26 CL   UNL     1       9.781  -2.976  -1.536  0.00  0.00    -0.084 Cl
ENDBRANCH  19  20
ENDBRANCH   8  18
TORSDOF 4
