REMARK  Name = ZINC05635570
REMARK  2 active torsions:
REMARK  status: ('A' for Active; 'I' for Inactive)
REMARK    1  A    between atoms: C_11  and  S_13
REMARK    2  A    between atoms: S_13  and  C_14
REMARK                            x       y       z     vdW  Elec       q    Type
REMARK                         _______ _______ _______ _____ _____    ______ ____
ROOT
ATOM      1  C   UNL     1      -7.984   4.527   2.688  0.00  0.00    +0.002 A 
ATOM      2  C   UNL     1      -7.128   3.495   3.048  0.00  0.00    +0.002 A 
ATOM      3  C   UNL     1      -6.024   3.214   2.297  0.00  0.00    +0.030 A 
ATOM      4  C   UNL     1      -5.745   3.970   1.149  0.00  0.00    +0.089 A 
ATOM      5  C   UNL     1      -6.611   5.015   0.785  0.00  0.00    +0.068 A 
ATOM      6  C   UNL     1      -7.731   5.285   1.565  0.00  0.00    +0.028 A 
ATOM      7  N   UNL     1      -6.352   5.771  -0.345  0.00  0.00    -0.319 N 
ATOM      8  H   UNL     1      -6.965   6.516  -0.608  0.00  0.00    +0.169 HD
ATOM      9  C   UNL     1      -5.258   5.489  -1.086  0.00  0.00    +0.281 A 
ATOM     10  O   UNL     1      -5.005   6.138  -2.084  0.00  0.00    -0.265 OA
ATOM     11  C   UNL     1      -4.374   4.384  -0.669  0.00  0.00    +0.162 A 
ATOM     12  N   UNL     1      -4.656   3.687   0.404  0.00  0.00    -0.234 NA
ENDROOT
BRANCH  11  13
ATOM     13  S   UNL     1      -2.942   3.996  -1.619  0.00  0.00    -0.096 S 
BRANCH  13  14
ATOM     14  C   UNL     1      -2.289   2.612  -0.653  0.00  0.00    +0.075 C 
ATOM     15  C   UNL     1      -1.876   3.112   0.741  0.00  0.00    +0.039 C 
ATOM     16  C   UNL     1      -1.039   1.995   1.430  0.00  0.00    +0.167 C 
ATOM     17  S   UNL     1      -0.017   1.417   0.010  0.00  0.00    -0.030 S 
ATOM     18  O   UNL     1       0.002  -0.004   0.002  0.00  0.00    -0.174 OA
ATOM     19  O   UNL     1       1.210   2.133   0.002  0.00  0.00    -0.174 OA
ATOM     20  C   UNL     1      -1.064   2.009  -1.382  0.00  0.00    +0.180 C 
ENDBRANCH  13  14
ENDBRANCH  11  13
TORSDOF 2
