REMARK  Name = ZINC65287174
REMARK  8 active torsions:
REMARK  status: ('A' for Active; 'I' for Inactive)
REMARK    1  A    between atoms: C_1  and  C_2
REMARK    2  A    between atoms: C_3  and  C_9
REMARK    3  A    between atoms: C_4  and  C_8
REMARK    4  A    between atoms: N_5  and  C_7
REMARK    5  A    between atoms: C_9  and  C_10
REMARK    6  A    between atoms: C_10  and  C_11
REMARK    7  A    between atoms: C_17  and  C_20
REMARK    8  A    between atoms: C_23  and  C_26
REMARK                            x       y       z     vdW  Elec       q    Type
REMARK                         _______ _______ _______ _____ _____    ______ ____
ROOT
ATOM      1  C   UNL     1       1.417   0.313  -4.487  0.00  0.00    +0.216 C 
ATOM      2  O   UNL     1       0.361   0.489  -5.057  0.00  0.00    -0.276 OA
ATOM      3  N   UNL     1       2.578   0.542  -5.133  0.00  0.00    -0.301 N 
ATOM      4  C   UNL     1       3.865   0.327  -4.458  0.00  0.00    +0.108 C 
ATOM      5  C   UNL     1       4.723  -0.608  -5.317  0.00  0.00    +0.020 C 
ATOM      6  C   UNL     1       4.843  -0.029  -6.729  0.00  0.00    +0.014 C 
ATOM      7  C   UNL     1       3.453   0.069  -7.361  0.00  0.00    +0.074 C 
ATOM      8  C   UNL     1       2.580   1.005  -6.527  0.00  0.00    +0.119 C 
ENDROOT
BRANCH   7   9
ATOM      9  C   UNL     1       3.575   0.608  -8.764  0.00  0.00    +0.130 A 
ATOM     10  H   UNL     1       5.138   1.969  -8.644  0.00  0.00    +0.190 HD
ATOM     11  N   UNL     1       2.833   0.265  -9.786  0.00  0.00    -0.216 NA
ATOM     12  C   UNL     1       3.218   0.938 -10.869  0.00  0.00    +0.154 A 
ATOM     13  N   UNL     1       4.214   1.722 -10.550  0.00  0.00    -0.157 NA
ATOM     14  N   UNL     1       4.461   1.528  -9.181  0.00  0.00    -0.262 N 
BRANCH  12  15
ATOM     15  C   UNL     1       2.605   0.816 -12.240  0.00  0.00    +0.059 C 
ATOM     16  C   UNL     1       3.315   1.521 -13.397  0.00  0.00    +0.012 C 
ATOM     17  C   UNL     1       1.996   2.076 -12.857  0.00  0.00    +0.012 C 
ENDBRANCH  12  15
ENDBRANCH   7   9
BRANCH   1  18
ATOM     18  C   UNL     1       1.431  -0.162  -3.057  0.00  0.00    +0.101 C 
BRANCH  18  19
ATOM     19  C   UNL     1      -0.006  -0.343  -2.566  0.00  0.00    +0.048 C 
BRANCH  19  22
ATOM     20  C   UNL     1      -0.018   1.503   0.010  0.00  0.00    +0.068 C 
ATOM     21  C   UNL     1       0.002  -0.004   0.002  0.00  0.00    +0.063 A 
ATOM     22  C   UNL     1       0.008  -0.818  -1.135  0.00  0.00    -0.004 A 
ATOM     23  C   UNL     1       0.028  -2.107  -0.725  0.00  0.00    +0.039 A 
ATOM     24  N   UNL     1       0.034  -2.109   0.625  0.00  0.00    -0.271 N 
ATOM     25  N   UNL     1       0.023  -0.777   1.058  0.00  0.00    -0.176 NA
ATOM     26  C   UNL     1       0.055  -3.295   1.485  0.00  0.00    +0.172 C 
ATOM     27  C   UNL     1       0.040  -3.323  -1.615  0.00  0.00    +0.065 C 
ENDBRANCH  19  22
ENDBRANCH  18  19
ENDBRANCH   1  18
TORSDOF 5
