REMARK  Name = ZINC38930752
REMARK  5 active torsions:
REMARK  status: ('A' for Active; 'I' for Inactive)
REMARK    1  A    between atoms: C_4  and  C_7
REMARK    2  A    between atoms: C_9  and  C_13
REMARK    3  A    between atoms: N_15  and  N_16
REMARK    4  A    between atoms: C_17  and  C_18
REMARK    5  A    between atoms: C_23  and  O_24
REMARK                            x       y       z     vdW  Elec       q    Type
REMARK                         _______ _______ _______ _____ _____    ______ ____
ROOT
ATOM      1  C   UNL     1       5.775  -3.000   1.163  0.00  0.00    +0.263 C 
ATOM      2  O   UNL     1       6.258  -2.403   2.102  0.00  0.00    -0.271 OA
ATOM      3  N   UNL     1       5.632  -4.339   1.217  0.00  0.00    -0.205 N 
ATOM      4  H   UNL     1       5.246  -4.817   0.466  0.00  0.00    +0.177 HD
ENDROOT
BRANCH   1   7
ATOM      5  C   UNL     1       3.699  -0.689  -0.037  0.00  0.00    +0.092 C 
ATOM      6  C   UNL     1       3.832  -2.029  -0.051  0.00  0.00    +0.041 C 
ATOM      7  C   UNL     1       5.335  -2.245  -0.065  0.00  0.00    +0.240 C 
ATOM      8  N   UNL     1       5.871  -0.874  -0.056  0.00  0.00    -0.170 NA
ATOM      9  N   UNL     1       4.919  -0.090  -0.047  0.00  0.00    -0.153 NA
BRANCH   5  13
ATOM     10  C   UNL     1      -0.017   1.379   0.010  0.00  0.00    +0.000 A 
ATOM     11  C   UNL     1       1.169   2.092   0.002  0.00  0.00    +0.001 A 
ATOM     12  C   UNL     1       2.377   1.426  -0.013  0.00  0.00    +0.010 A 
ATOM     13  C   UNL     1       2.402   0.033  -0.021  0.00  0.00    +0.002 A 
ATOM     14  C   UNL     1       1.205  -0.680  -0.013  0.00  0.00    +0.010 A 
ATOM     15  C   UNL     1       0.002  -0.004   0.002  0.00  0.00    +0.001 A 
ENDBRANCH   5  13
ENDBRANCH   1   7
BRANCH   3  16
ATOM     16  N   UNL     1       6.041  -5.041   2.358  0.00  0.00    -0.188 NA
ATOM     17  C   UNL     1       5.904  -6.331   2.411  0.00  0.00    +0.142 C 
BRANCH  17  18
ATOM     18  C   UNL     1       6.334  -7.070   3.611  0.00  0.00    +0.038 A 
ATOM     19  C   UNL     1       6.193  -8.458   3.670  0.00  0.00    +0.028 A 
ATOM     20  C   UNL     1       6.598  -9.144   4.796  0.00  0.00    +0.020 A 
ATOM     21  C   UNL     1       7.145  -8.461   5.870  0.00  0.00    +0.034 A 
ATOM     22  C   UNL     1       7.290  -7.087   5.824  0.00  0.00    +0.061 A 
ATOM     23  C   UNL     1       6.892  -6.384   4.698  0.00  0.00    +0.139 A 
ATOM     24 BR   UNL     1       8.037  -6.167   7.298  0.00  0.00    -0.046 Br
ATOM     25 BR   UNL     1       6.406 -11.024   4.874  0.00  0.00    -0.050 Br
BRANCH  23  26
ATOM     26  O   UNL     1       7.039  -5.034   4.650  0.00  0.00    -0.505 OA
ATOM     27  H   UNL     1       6.277  -4.543   4.986  0.00  0.00    +0.292 HD
ENDBRANCH  23  26
ENDBRANCH  17  18
ENDBRANCH   3  16
TORSDOF 5
