REMARK  Name = ZINC66563300
REMARK  5 active torsions:
REMARK  status: ('A' for Active; 'I' for Inactive)
REMARK    1  A    between atoms: C_1  and  N_2
REMARK    2  A    between atoms: N_2  and  C_3
REMARK    3  A    between atoms: C_14  and  C_16
REMARK    4  A    between atoms: C_16  and  N_17
REMARK    5  A    between atoms: C_22  and  C_24
REMARK                            x       y       z     vdW  Elec       q    Type
REMARK                         _______ _______ _______ _____ _____    ______ ____
ROOT
ATOM      1  C   UNL     1      -0.148   1.707  -0.079  0.00  0.00    +0.132 C 
ATOM      2  N   UNL     1       0.010   0.252  -0.014  0.00  0.00    -0.299 N 
ATOM      3  C   UNL     1       0.025  -0.475  -1.149  0.00  0.00    +0.199 C 
ATOM      4  O   UNL     1       0.156  -1.680  -1.095  0.00  0.00    -0.278 OA
ENDROOT
BRANCH   2   5
ATOM      5  C   UNL     1       0.150  -0.413   1.284  0.00  0.00    +0.106 C 
ATOM      6  C   UNL     1      -1.097  -0.146   2.124  0.00  0.00    +0.027 C 
ATOM      7  C   UNL     1      -0.841  -0.659   3.546  0.00  0.00    +0.007 C 
ATOM      8  C   UNL     1       0.192   0.250   4.208  0.00  0.00    +0.035 C 
ATOM      9  C   UNL     1       1.400   0.411   3.323  0.00  0.00    -0.042 A 
ATOM     10  C   UNL     1       1.379   0.111   1.980  0.00  0.00    -0.024 A 
ATOM     11  C   UNL     1       2.527   0.290   1.218  0.00  0.00    +0.006 A 
ATOM     12  C   UNL     1       3.686   0.762   1.798  0.00  0.00    +0.000 A 
ATOM     13  C   UNL     1       3.707   1.060   3.147  0.00  0.00    +0.000 A 
ATOM     14  C   UNL     1       2.569   0.884   3.904  0.00  0.00    +0.004 A 
ENDBRANCH   2   5
BRANCH   3  15
ATOM     15  C   UNL     1      -0.119   0.208  -2.484  0.00  0.00    +0.020 C 
BRANCH  15  16
ATOM     16  N   UNL     1      -0.071  -0.795  -3.556  0.00  0.00    +0.393 N 
ATOM     17  C   UNL     1      -1.254  -1.659  -3.469  0.00  0.00    -0.077 C 
ATOM     18  C   UNL     1      -1.169  -2.756  -4.533  0.00  0.00    -0.019 C 
ATOM     19  C   UNL     1      -1.106  -2.111  -5.920  0.00  0.00    -0.003 C 
ATOM     20  C   UNL     1       0.090  -1.155  -5.974  0.00  0.00    -0.006 C 
ATOM     21  C   UNL     1      -0.042  -0.118  -4.858  0.00  0.00    +0.020 C 
ATOM     22  H   UNL     1       0.761  -1.357  -3.452  0.00  0.00    -0.080 HD
BRANCH  21  23
ATOM     23  C   UNL     1       1.132   0.825  -4.907  0.00  0.00    +0.197 C 
ATOM     24  O   UNL     1       2.128   0.588  -4.257  0.00  0.00    -0.278 OA
ATOM     25  N   UNL     1       1.076   1.932  -5.674  0.00  0.00    -0.331 N 
ATOM     26  H   UNL     1       0.279   2.122  -6.194  0.00  0.00    +0.145 HD
ATOM     27  H   UNL     1       1.832   2.539  -5.706  0.00  0.00    +0.145 HD
ENDBRANCH  21  23
ENDBRANCH  15  16
ENDBRANCH   3  15
TORSDOF 4
