REMARK  Name = ZINC43337904
REMARK  10 active torsions:
REMARK  status: ('A' for Active; 'I' for Inactive)
REMARK    1  A    between atoms: C_1  and  C_2
REMARK    2  A    between atoms: C_5  and  C_20
REMARK    3  A    between atoms: C_7  and  O_8
REMARK    4  A    between atoms: O_8  and  C_9
REMARK    5  A    between atoms: C_9  and  C_11
REMARK    6  A    between atoms: C_9  and  C_16
REMARK    7  A    between atoms: C_16  and  C_18
REMARK    8  A    between atoms: C_16  and  N_19
REMARK    9  A    between atoms: C_20  and  C_21
REMARK   10  A    between atoms: C_20  and  C_22
REMARK                            x       y       z     vdW  Elec       q    Type
REMARK                         _______ _______ _______ _____ _____    ______ ____
ROOT
ATOM      1  C   UNL     1      -0.069  -0.817   3.572  0.00  0.00    +0.224 C 
ENDROOT
BRANCH   1   2
ATOM      2  C   UNL     1      -0.873  -0.067   4.603  0.00  0.00    +0.143 A 
ATOM      3  C   UNL     1      -1.707  -0.619   5.503  0.00  0.00    +0.048 A 
ATOM      4  C   UNL     1      -2.247   0.443   6.266  0.00  0.00    +0.041 A 
ATOM      5  C   UNL     1      -1.710   1.579   5.786  0.00  0.00    +0.195 A 
ATOM      6  O   UNL     1      -0.875   1.264   4.783  0.00  0.00    -0.464 OA
ENDBRANCH   1   2
BRANCH   1   7
ATOM      7  C   UNL     1       1.335  -1.087   4.118  0.00  0.00    -0.029 C 
ATOM      8  C   UNL     1       2.151  -1.847   3.071  0.00  0.00    -0.010 C 
BRANCH   7   9
ATOM      9  N   UNL     1       1.237  -1.892   5.343  0.00  0.00    +0.382 N 
ATOM     10  H   UNL     1       0.783  -2.768   5.134  0.00  0.00    -0.089 HD
ATOM     11  H   UNL     1       2.163  -2.070   5.702  0.00  0.00    -0.089 HD
ATOM     12  H   UNL     1       0.699  -1.390   6.033  0.00  0.00    -0.089 HD
ENDBRANCH   7   9
ENDBRANCH   1   7
BRANCH   1  13
ATOM     13  O   UNL     1       0.025  -0.033   2.381  0.00  0.00    -0.483 OA
BRANCH  13  20
ATOM     14  C   UNL     1      -0.049   1.519   0.022  0.00  0.00    +0.047 C 
ATOM     15  C   UNL     1      -0.111   0.013   0.006  0.00  0.00    -0.009 A 
ATOM     16  C   UNL     1      -0.202  -0.662  -1.196  0.00  0.00    +0.007 A 
ATOM     17  C   UNL     1      -0.260  -2.043  -1.211  0.00  0.00    +0.004 A 
ATOM     18  C   UNL     1      -0.226  -2.752  -0.024  0.00  0.00    -0.041 A 
ATOM     19  C   UNL     1      -0.134  -2.081   1.180  0.00  0.00    +0.049 A 
ATOM     20  C   UNL     1      -0.071  -0.695   1.198  0.00  0.00    +0.125 A 
BRANCH  18  21
ATOM     21  C   UNL     1      -0.289  -4.258  -0.044  0.00  0.00    +0.013 C 
ATOM     22  C   UNL     1      -1.595  -4.704  -0.704  0.00  0.00    +0.012 C 
ATOM     23  C   UNL     1       0.898  -4.808  -0.838  0.00  0.00    +0.012 C 
ENDBRANCH  18  21
ENDBRANCH  13  20
ENDBRANCH   1  13
TORSDOF 6
