REMARK  Name = ZINC12416730
REMARK  7 active torsions:
REMARK  status: ('A' for Active; 'I' for Inactive)
REMARK    1  A    between atoms: C_1  and  N_55
REMARK    2  A    between atoms: C_4  and  N_14
REMARK    3  A    between atoms: C_15  and  C_17
REMARK    4  A    between atoms: C_19  and  S_25
REMARK    5  A    between atoms: S_25  and  N_28
REMARK    6  A    between atoms: N_28  and  C_29
REMARK    7  A    between atoms: N_28  and  C_30
REMARK                            x       y       z     vdW  Elec       q    Type
REMARK                         _______ _______ _______ _____ _____    ______ ____
ROOT
ATOM      1  N   UNL     1      -0.628   0.781   0.436  0.00  0.00    -0.308 N 
ATOM      2  C   UNL     1      -1.952   0.606   0.617  0.00  0.00    +0.246 C 
ATOM      3  O   UNL     1      -2.398  -0.509   0.809  0.00  0.00    -0.270 OA
ATOM      4  H   UNL     1      -0.273   1.670   0.283  0.00  0.00    +0.149 HD
ENDROOT
BRANCH   1   8
ATOM      5  C   UNL     1       3.650  -2.765  -0.612  0.00  0.00    -0.096 C 
ATOM      6  C   UNL     1       1.315  -2.190  -0.891  0.00  0.00    -0.077 C 
ATOM      7  C   UNL     1       0.324  -1.025  -0.915  0.00  0.00    +0.004 C 
ATOM      8  C   UNL     1       0.274  -0.373   0.469  0.00  0.00    +0.073 C 
ATOM      9  C   UNL     1       1.681   0.089   0.858  0.00  0.00    -0.004 C 
ATOM     10  C   UNL     1       2.631  -1.111   0.832  0.00  0.00    -0.064 C 
ATOM     11  C   UNL     1       4.040  -0.651   1.210  0.00  0.00    -0.015 C 
ATOM     12  C   UNL     1       4.018  -0.048   2.616  0.00  0.00    -0.002 C 
ATOM     13  C   UNL     1       3.065   1.148   2.645  0.00  0.00    +0.000 C 
ATOM     14  C   UNL     1       1.656   0.689   2.263  0.00  0.00    +0.004 C 
ATOM     15  N   UNL     1       2.654  -1.677  -0.533  0.00  0.00    +0.380 N 
ATOM     16  H   UNL     1       2.915  -0.937  -1.196  0.00  0.00    -0.082 HD
ENDBRANCH   1   8
BRANCH   2  17
ATOM     17  C   UNL     1      -2.863   1.768   0.578  0.00  0.00    +0.057 A 
ATOM     18  C   UNL     1      -2.354   3.051   0.358  0.00  0.00    +0.044 A 
ATOM     19  C   UNL     1      -3.209   4.131   0.322  0.00  0.00    +0.124 A 
ATOM     20  C   UNL     1      -4.570   3.949   0.503  0.00  0.00    +0.069 A 
ATOM     21  C   UNL     1      -5.082   2.681   0.721  0.00  0.00    +0.042 A 
ATOM     22  C   UNL     1      -4.237   1.589   0.754  0.00  0.00    +0.055 A 
ATOM     23 CL   UNL     1      -4.881  -0.001   1.020  0.00  0.00    -0.083 Cl
ATOM     24 CL   UNL     1      -5.639   5.316   0.455  0.00  0.00    -0.081 Cl
BRANCH  19  25
ATOM     25  S   UNL     1      -2.568   5.749   0.045  0.00  0.00    +0.062 S 
ATOM     26  O   UNL     1      -3.176   6.598   1.010  0.00  0.00    -0.153 OA
ATOM     27  O   UNL     1      -1.158   5.614  -0.069  0.00  0.00    -0.153 OA
BRANCH  25  28
ATOM     28  N   UNL     1      -3.118   6.247  -1.436  0.00  0.00    -0.183 NA
ATOM     29  C   UNL     1      -4.275   7.140  -1.525  0.00  0.00    +0.131 C 
ATOM     30  C   UNL     1      -2.446   5.794  -2.656  0.00  0.00    +0.131 C 
ENDBRANCH  25  28
ENDBRANCH  19  25
ENDBRANCH   2  17
TORSDOF 4
