REMARK  Name = ZINC41154323
REMARK  5 active torsions:
REMARK  status: ('A' for Active; 'I' for Inactive)
REMARK    1  A    between atoms: C_4  and  C_7
REMARK    2  A    between atoms: C_9  and  C_20
REMARK    3  A    between atoms: C_10  and  S_12
REMARK    4  A    between atoms: S_12  and  C_13
REMARK    5  A    between atoms: N_22  and  N_23
REMARK                            x       y       z     vdW  Elec       q    Type
REMARK                         _______ _______ _______ _____ _____    ______ ____
ROOT
ATOM      1  C   UNL     1       3.695  -0.683  -0.017  0.00  0.00    +0.229 A 
ATOM      2  N   UNL     1       3.834  -1.982  -0.036  0.00  0.00    -0.203 NA
ATOM      3  C   UNL     1       5.161  -2.277  -0.057  0.00  0.00    +0.179 A 
ATOM      4  C   UNL     1       5.843  -1.068  -0.050  0.00  0.00    +0.199 A 
ATOM      5  O   UNL     1       4.909  -0.099  -0.030  0.00  0.00    -0.428 OA
ENDROOT
BRANCH   1   9
ATOM      6  C   UNL     1      -0.015   1.382   0.058  0.00  0.00    +0.000 A 
ATOM      7  C   UNL     1       1.170   2.096   0.047  0.00  0.00    +0.001 A 
ATOM      8  C   UNL     1       2.379   1.431   0.023  0.00  0.00    +0.013 A 
ATOM      9  C   UNL     1       2.404   0.036   0.010  0.00  0.00    +0.037 A 
ATOM     10  C   UNL     1       1.205  -0.678   0.021  0.00  0.00    +0.013 A 
ATOM     11  C   UNL     1       0.003  -0.001   0.045  0.00  0.00    +0.001 A 
ENDBRANCH   1   9
BRANCH   3  12
ATOM     12  C   UNL     1       5.758  -3.616  -0.082  0.00  0.00    +0.280 C 
ATOM     13  O   UNL     1       6.969  -3.742  -0.100  0.00  0.00    -0.267 OA
ATOM     14  N   UNL     1       4.967  -4.707  -0.086  0.00  0.00    -0.248 N 
ATOM     15  H   UNL     1       4.002  -4.606  -0.073  0.00  0.00    +0.169 HD
BRANCH  14  16
ATOM     16  N   UNL     1       5.523  -5.954  -0.110  0.00  0.00    -0.254 NA
ATOM     17  H   UNL     1       4.810  -6.668  -0.110  0.00  0.00    +0.140 HD
ATOM     18  H   UNL     1       6.141  -6.060  -0.901  0.00  0.00    +0.140 HD
ENDBRANCH  14  16
ENDBRANCH   3  12
BRANCH   4  19
ATOM     19  S   UNL     1       7.591  -0.845  -0.069  0.00  0.00    -0.050 S 
BRANCH  19  20
ATOM     20  C   UNL     1       7.796   0.900  -0.203  0.00  0.00    +0.016 A 
ATOM     21  C   UNL     1       7.983   1.669   0.939  0.00  0.00    +0.016 A 
ATOM     22  C   UNL     1       8.144   3.036   0.831  0.00  0.00    +0.021 A 
ATOM     23  C   UNL     1       8.119   3.641  -0.414  0.00  0.00    +0.041 A 
ATOM     24  C   UNL     1       7.933   2.878  -1.554  0.00  0.00    +0.021 A 
ATOM     25  C   UNL     1       7.778   1.509  -1.452  0.00  0.00    +0.016 A 
ATOM     26 CL   UNL     1       8.321   5.360  -0.546  0.00  0.00    -0.084 Cl
ENDBRANCH  19  20
ENDBRANCH   4  19
TORSDOF 5
