REMARK  Name = ZINC28357235
REMARK  4 active torsions:
REMARK  status: ('A' for Active; 'I' for Inactive)
REMARK    1  A    between atoms: C_4  and  N_7
REMARK    2  A    between atoms: C_8  and  C_18
REMARK    3  A    between atoms: C_13  and  C_16
REMARK    4  A    between atoms: C_21  and  C_23
REMARK                            x       y       z     vdW  Elec       q    Type
REMARK                         _______ _______ _______ _____ _____    ______ ____
ROOT
ATOM      1  N   UNL     1       2.355   3.889   0.001  0.00  0.00    -0.267 N 
ATOM      2  C   UNL     1       2.348   5.352  -0.101  0.00  0.00    +0.234 C 
ATOM      3  N   UNL     1       3.269   5.920   0.885  0.00  0.00    -0.286 N 
ATOM      4  C   UNL     1       4.369   5.242   1.268  0.00  0.00    +0.258 C 
ATOM      5  O   UNL     1       5.152   5.740   2.057  0.00  0.00    -0.269 OA
ATOM      6  C   UNL     1       4.618   3.903   0.730  0.00  0.00    +0.142 C 
ATOM      7  C   UNL     1       3.559   3.237   0.095  0.00  0.00    +0.103 C 
ATOM      8  S   UNL     1       3.772   1.616  -0.564  0.00  0.00    -0.033 SA
ATOM      9  H   UNL     1       3.066   6.910   1.321  0.00  0.00    +0.151 HD
ENDROOT
BRANCH   1  13
ATOM     10  C   UNL     1      -1.222   1.754   0.024  0.00  0.00    +0.000 A 
ATOM     11  C   UNL     1      -0.829   2.429  -1.117  0.00  0.00    +0.002 A 
ATOM     12  C   UNL     1       0.355   3.139  -1.127  0.00  0.00    +0.023 A 
ATOM     13  C   UNL     1       1.155   3.171   0.008  0.00  0.00    +0.036 A 
ATOM     14  C   UNL     1       0.759   2.487   1.151  0.00  0.00    +0.023 A 
ATOM     15  C   UNL     1      -0.426   1.778   1.154  0.00  0.00    +0.002 A 
ENDBRANCH   1  13
BRANCH   2  16
ATOM     16  C   UNL     1       2.783   5.759  -1.486  0.00  0.00    +0.144 A 
ATOM     17  C   UNL     1       3.429   6.898  -1.802  0.00  0.00    +0.049 A 
ATOM     18  C   UNL     1       3.642   6.878  -3.196  0.00  0.00    +0.050 A 
ATOM     19  C   UNL     1       3.108   5.716  -3.656  0.00  0.00    +0.138 A 
ATOM     20  O   UNL     1       2.595   5.045  -2.607  0.00  0.00    -0.456 OA
BRANCH  19  21
ATOM     21  C   UNL     1       3.098   5.264  -5.064  0.00  0.00    +0.054 A 
ATOM     22  C   UNL     1       2.373   5.974  -6.023  0.00  0.00    +0.053 A 
ATOM     23  C   UNL     1       2.373   5.550  -7.337  0.00  0.00    +0.021 A 
ATOM     24  C   UNL     1       3.079   4.417  -7.702  0.00  0.00    +0.003 A 
ATOM     25  C   UNL     1       3.794   3.705  -6.755  0.00  0.00    +0.021 A 
ATOM     26  C   UNL     1       3.808   4.121  -5.439  0.00  0.00    +0.053 A 
ATOM     27 CL   UNL     1       4.705   3.226  -4.253  0.00  0.00    -0.083 Cl
ATOM     28 CL   UNL     1       1.481   7.392  -5.567  0.00  0.00    -0.083 Cl
ENDBRANCH  19  21
ENDBRANCH   2  16
BRANCH   6  29
ATOM     29  C   UNL     1       5.905   3.288   0.853  0.00  0.00    +0.107 C 
ATOM     30  N   UNL     1       6.927   2.801   0.951  0.00  0.00    -0.191 NA
ENDBRANCH   6  29
TORSDOF 4
