REMARK  Name = ZINC48926545
REMARK  10 active torsions:
REMARK  status: ('A' for Active; 'I' for Inactive)
REMARK    1  A    between atoms: C_1  and  C_2
REMARK    2  A    between atoms: C_2  and  C_3
REMARK    3  A    between atoms: C_3  and  C_4
REMARK    4  A    between atoms: C_8  and  C_23
REMARK    5  A    between atoms: C_10  and  N_13
REMARK    6  A    between atoms: N_16  and  C_19
REMARK    7  A    between atoms: C_19  and  C_20
REMARK    8  A    between atoms: C_19  and  C_21
REMARK    9  A    between atoms: C_19  and  C_22
REMARK   10  A    between atoms: C_23  and  N_24
REMARK                            x       y       z     vdW  Elec       q    Type
REMARK                         _______ _______ _______ _____ _____    ______ ____
ROOT
ATOM      1  C   UNL     1      -1.293  -2.296   0.197  0.00  0.00    -0.012 C 
ATOM      2  C   UNL     1      -0.790  -2.698   1.585  0.00  0.00    +0.003 C 
ATOM      3  C   UNL     1      -1.625  -1.990   2.655  0.00  0.00    +0.000 C 
ATOM      4  C   UNL     1      -3.093  -2.396   2.507  0.00  0.00    -0.042 C 
ATOM      5  C   UNL     1      -3.595  -1.994   1.119  0.00  0.00    -0.067 C 
ATOM      6  C   UNL     1      -2.761  -2.701   0.049  0.00  0.00    -0.012 C 
ENDROOT
BRANCH   5   7
ATOM      7  N   UNL     1      -5.005  -2.383   0.977  0.00  0.00    +0.383 N 
ATOM      8  C   UNL     1      -5.523  -1.885  -0.304  0.00  0.00    -0.063 C 
ATOM      9  C   UNL     1      -6.997  -2.274  -0.444  0.00  0.00    +0.066 C 
ATOM     10  N   UNL     1      -7.122  -3.737  -0.381  0.00  0.00    -0.301 NA
ATOM     11  C   UNL     1      -6.584  -4.253   0.886  0.00  0.00    +0.066 C 
ATOM     12  C   UNL     1      -5.114  -3.847   1.015  0.00  0.00    -0.063 C 
ATOM     13  H   UNL     1      -5.541  -1.986   1.734  0.00  0.00    -0.081 HD
BRANCH  10  14
ATOM     14  C   UNL     1      -8.518  -4.154  -0.568  0.00  0.00    +0.013 C 
ATOM     15  C   UNL     1      -9.013  -3.678  -1.935  0.00  0.00    +0.027 C 
ATOM     16  C   UNL     1      -8.609  -5.680  -0.496  0.00  0.00    +0.027 C 
ATOM     17  C   UNL     1      -9.386  -3.539   0.531  0.00  0.00    +0.027 C 
ENDBRANCH  10  14
ENDBRANCH   5   7
BRANCH   1  18
ATOM     18  C   UNL     1      -1.163  -0.781   0.027  0.00  0.00    +0.003 C 
BRANCH  18  20
ATOM     19  C   UNL     1       0.447   1.125  -0.120  0.00  0.00    +0.004 C 
ATOM     20  C   UNL     1       0.317  -0.390   0.050  0.00  0.00    -0.003 C 
ENDBRANCH  18  20
ENDBRANCH   1  18
BRANCH   4  21
ATOM     21  C   UNL     1      -3.927  -1.689   3.576  0.00  0.00    -0.085 C 
BRANCH  21  22
ATOM     22  N   UNL     1      -3.519  -2.159   4.907  0.00  0.00    +0.378 N 
ATOM     23  H   UNL     1      -3.665  -3.156   4.970  0.00  0.00    -0.090 HD
ATOM     24  H   UNL     1      -2.542  -1.953   5.051  0.00  0.00    -0.090 HD
ATOM     25  H   UNL     1      -4.070  -1.693   5.612  0.00  0.00    -0.090 HD
ENDBRANCH  21  22
ENDBRANCH   4  21
TORSDOF 6
