REMARK  Name = ZINC42422158
REMARK  7 active torsions:
REMARK  status: ('A' for Active; 'I' for Inactive)
REMARK    1  A    between atoms: C_1  and  C_2
REMARK    2  A    between atoms: C_2  and  C_3
REMARK    3  A    between atoms: C_3  and  C_4
REMARK    4  A    between atoms: C_8  and  C_24
REMARK    5  A    between atoms: C_10  and  N_13
REMARK    6  A    between atoms: C_18  and  C_20
REMARK    7  A    between atoms: N_22  and  C_23
REMARK                            x       y       z     vdW  Elec       q    Type
REMARK                         _______ _______ _______ _____ _____    ______ ____
ROOT
ATOM      1  N   UNL     1       2.074  -4.644  -3.294  0.00  0.00    +0.390 N 
ATOM      2  C   UNL     1       3.452  -4.159  -3.432  0.00  0.00    -0.077 C 
ATOM      3  C   UNL     1       3.810  -4.043  -4.915  0.00  0.00    -0.019 C 
ATOM      4  C   UNL     1       3.684  -5.420  -5.574  0.00  0.00    -0.003 C 
ATOM      5  C   UNL     1       2.263  -5.949  -5.359  0.00  0.00    -0.006 C 
ATOM      6  C   UNL     1       1.963  -5.994  -3.860  0.00  0.00    +0.020 C 
ATOM      7  H   UNL     1       1.449  -4.023  -3.785  0.00  0.00    -0.080 HD
ENDROOT
BRANCH   1  12
ATOM      8  C   UNL     1       1.769  -3.414   0.282  0.00  0.00    -0.012 C 
ATOM      9  C   UNL     1       2.465  -4.598   0.958  0.00  0.00    +0.005 C 
ATOM     10  C   UNL     1       2.024  -5.900   0.286  0.00  0.00    +0.017 C 
ATOM     11  C   UNL     1       2.405  -5.863  -1.195  0.00  0.00    +0.078 C 
ATOM     12  C   UNL     1       1.709  -4.680  -1.871  0.00  0.00    -0.050 C 
ATOM     13  C   UNL     1       2.149  -3.378  -1.199  0.00  0.00    -0.011 C 
BRANCH  11  14
ATOM     14  C   UNL     1       3.863  -5.713  -1.324  0.00  0.00    +0.064 C 
ATOM     15  N   UNL     1       4.989  -5.598  -1.423  0.00  0.00    -0.196 NA
ENDBRANCH  11  14
BRANCH   8  16
ATOM     16  C   UNL     1       2.209  -2.112   0.954  0.00  0.00    +0.003 C 
BRANCH  16  18
ATOM     17  C   UNL     1       2.160  -0.794   3.076  0.00  0.00    +0.004 C 
ATOM     18  C   UNL     1       1.720  -2.096   2.404  0.00  0.00    -0.003 C 
ENDBRANCH  16  18
ENDBRANCH   8  16
ENDBRANCH   1  12
BRANCH   6  19
ATOM     19  C   UNL     1       0.565  -6.515  -3.643  0.00  0.00    +0.199 C 
ATOM     20  O   UNL     1      -0.368  -5.743  -3.589  0.00  0.00    -0.278 OA
ATOM     21  N   UNL     1       0.353  -7.840  -3.511  0.00  0.00    -0.320 N 
ATOM     22  C   UNL     1      -1.006  -8.346  -3.300  0.00  0.00    +0.128 C 
ATOM     23  H   UNL     1       1.100  -8.457  -3.554  0.00  0.00    +0.148 HD
ENDBRANCH   6  19
TORSDOF 5
