REMARK  Name = ZINC40782396
REMARK  5 active torsions:
REMARK  status: ('A' for Active; 'I' for Inactive)
REMARK    1  A    between atoms: C_3  and  O_7
REMARK    2  A    between atoms: O_7  and  C_8
REMARK    3  A    between atoms: C_9  and  N_22
REMARK    4  A    between atoms: C_10  and  N_14
REMARK    5  A    between atoms: N_14  and  C_15
REMARK                            x       y       z     vdW  Elec       q    Type
REMARK                         _______ _______ _______ _____ _____    ______ ____
ROOT
ATOM      1  C   UNL     1       4.680   1.200   0.363  0.00  0.00    +0.246 A 
ATOM      2  C   UNL     1       5.935   1.806   0.318  0.00  0.00    +0.128 A 
ATOM      3  C   UNL     1       7.066   0.991   0.411  0.00  0.00    +0.151 A 
ATOM      4  N   UNL     1       6.904  -0.323   0.538  0.00  0.00    -0.218 NA
ATOM      5  C   UNL     1       5.699  -0.856   0.577  0.00  0.00    +0.227 A 
ATOM      6  N   UNL     1       4.608  -0.121   0.498  0.00  0.00    -0.199 NA
ENDROOT
BRANCH   2   7
ATOM      7  N   UNL     1       6.058   3.198   0.183  0.00  0.00    -0.351 N 
ATOM      8  H   UNL     1       5.264   3.751   0.119  0.00  0.00    +0.143 HD
ATOM      9  H   UNL     1       6.938   3.606   0.153  0.00  0.00    +0.143 HD
ENDBRANCH   2   7
BRANCH   3  10
ATOM     10  N   UNL     1       8.340   1.545   0.371  0.00  0.00    -0.298 N 
ATOM     11  H   UNL     1       8.450   2.508   0.354  0.00  0.00    +0.154 HD
BRANCH  10  12
ATOM     12  C   UNL     1       9.463   0.713   0.354  0.00  0.00    +0.032 A 
ATOM     13  C   UNL     1      10.643   1.124   0.961  0.00  0.00    +0.024 A 
ATOM     14  C   UNL     1      11.751   0.300   0.944  0.00  0.00    +0.016 A 
ATOM     15  C   UNL     1      11.687  -0.934   0.322  0.00  0.00    +0.013 A 
ATOM     16  C   UNL     1      10.513  -1.347  -0.283  0.00  0.00    +0.016 A 
ATOM     17  C   UNL     1       9.400  -0.529  -0.264  0.00  0.00    +0.024 A 
ATOM     18  I   UNL     1      13.370  -2.181   0.297  0.00  0.00    -0.044 I 
ENDBRANCH  10  12
ENDBRANCH   3  10
BRANCH   1  19
ATOM     19  O   UNL     1       3.551   1.946   0.278  0.00  0.00    -0.435 OA
BRANCH  19  22
ATOM     20  C   UNL     1       0.739   0.239   1.824  0.00  0.00    +0.023 A 
ATOM     21  C   UNL     1       1.965   0.873   1.703  0.00  0.00    +0.049 A 
ATOM     22  C   UNL     1       2.357   1.319   0.445  0.00  0.00    +0.148 A 
ATOM     23  C   UNL     1       1.512   1.114  -0.636  0.00  0.00    +0.157 A 
ATOM     24  N   UNL     1       0.353   0.506  -0.478  0.00  0.00    -0.260 NA
ATOM     25  C   UNL     1      -0.049   0.072   0.700  0.00  0.00    +0.111 A 
ENDBRANCH  19  22
ENDBRANCH   1  19
TORSDOF 5
