REMARK  Name = ZINC36746108
REMARK  6 active torsions:
REMARK  status: ('A' for Active; 'I' for Inactive)
REMARK    1  A    between atoms: C_9  and  C_12
REMARK    2  A    between atoms: C_10  and  O_11
REMARK    3  A    between atoms: N_14  and  C_15
REMARK    4  A    between atoms: C_15  and  C_16
REMARK    5  A    between atoms: C_16  and  S_17
REMARK    6  A    between atoms: S_17  and  N_20
REMARK                            x       y       z     vdW  Elec       q    Type
REMARK                         _______ _______ _______ _____ _____    ______ ____
ROOT
ATOM      1  C   UNL     1      -0.016   1.358   0.009  0.00  0.00    +0.001 A 
ATOM      2  C   UNL     1       1.168   2.091   0.002  0.00  0.00    +0.001 A 
ATOM      3  C   UNL     1       2.378   1.466  -0.013  0.00  0.00    +0.012 A 
ATOM      4  C   UNL     1       2.435   0.062  -0.021  0.00  0.00    +0.024 A 
ATOM      5  C   UNL     1       1.231  -0.684  -0.013  0.00  0.00    -0.014 A 
ATOM      6  C   UNL     1       0.002  -0.004   0.002  0.00  0.00    +0.008 A 
ATOM      7  C   UNL     1       1.281  -2.091  -0.021  0.00  0.00    +0.009 A 
ATOM      8  C   UNL     1       2.477  -2.732  -0.035  0.00  0.00    +0.017 A 
ATOM      9  C   UNL     1       3.684  -2.009  -0.043  0.00  0.00    +0.079 A 
ATOM     10  C   UNL     1       3.671  -0.616  -0.037  0.00  0.00    +0.137 A 
ENDROOT
BRANCH   9  11
ATOM     11  C   UNL     1       4.969  -2.729  -0.058  0.00  0.00    +0.248 C 
ATOM     12  O   UNL     1       6.014  -2.108  -0.064  0.00  0.00    -0.270 OA
ATOM     13  N   UNL     1       4.986  -4.077  -0.064  0.00  0.00    -0.310 N 
ATOM     14  H   UNL     1       4.152  -4.573  -0.059  0.00  0.00    +0.149 HD
BRANCH  13  15
ATOM     15  C   UNL     1       6.263  -4.794  -0.079  0.00  0.00    +0.128 C 
BRANCH  15  16
ATOM     16  C   UNL     1       6.002  -6.301  -0.084  0.00  0.00    +0.203 C 
BRANCH  16  17
ATOM     17  S   UNL     1       7.584  -7.189  -0.102  0.00  0.00    +0.028 S 
ATOM     18  O   UNL     1       8.247  -6.982  -1.342  0.00  0.00    -0.158 OA
ATOM     19  O   UNL     1       8.270  -6.993   1.127  0.00  0.00    -0.158 OA
BRANCH  17  20
ATOM     20  N   UNL     1       7.173  -8.793  -0.106  0.00  0.00    -0.208 NA
ATOM     21  H   UNL     1       6.238  -9.054  -0.099  0.00  0.00    +0.144 HD
ATOM     22  H   UNL     1       7.866  -9.471  -0.116  0.00  0.00    +0.144 HD
ENDBRANCH  17  20
ENDBRANCH  16  17
ENDBRANCH  15  16
ENDBRANCH  13  15
ENDBRANCH   9  11
BRANCH  10  23
ATOM     23  O   UNL     1       4.833   0.080  -0.045  0.00  0.00    -0.505 OA
ATOM     24  H   UNL     1       5.180   0.277   0.836  0.00  0.00    +0.292 HD
ENDBRANCH  10  23
TORSDOF 6
