REMARK  Name = ZINC45171790
REMARK  9 active torsions:
REMARK  status: ('A' for Active; 'I' for Inactive)
REMARK    1  A    between atoms: C_1  and  C_2
REMARK    2  A    between atoms: C_2  and  N_3
REMARK    3  A    between atoms: C_4  and  C_21
REMARK    4  A    between atoms: C_5  and  C_9
REMARK    5  A    between atoms: C_6  and  C_8
REMARK    6  A    between atoms: C_9  and  C_11
REMARK    7  A    between atoms: C_9  and  N_12
REMARK    8  A    between atoms: N_12  and  C_13
REMARK    9  A    between atoms: N_18  and  C_20
REMARK                            x       y       z     vdW  Elec       q    Type
REMARK                         _______ _______ _______ _____ _____    ______ ____
ROOT
ATOM      1  C   UNL     1       3.640  -1.555   3.082  0.00  0.00    +0.101 C 
ATOM      2  C   UNL     1       3.727  -3.079   3.186  0.00  0.00    +0.033 C 
ENDROOT
BRANCH   1   5
ATOM      3  N   UNL     1       0.711  -0.489   1.189  0.00  0.00    -0.268 N 
ATOM      4  C   UNL     1       2.035  -0.732   1.279  0.00  0.00    +0.041 A 
ATOM      5  C   UNL     1       2.291  -1.165   2.535  0.00  0.00    +0.016 A 
ATOM      6  C   UNL     1       1.081  -1.189   3.237  0.00  0.00    +0.065 A 
ATOM      7  N   UNL     1       0.134  -0.778   2.432  0.00  0.00    -0.176 NA
ATOM      8  C   UNL     1       0.900  -1.609   4.673  0.00  0.00    +0.068 C 
ATOM      9  C   UNL     1       3.048  -0.551   0.178  0.00  0.00    +0.065 C 
BRANCH   3  11
ATOM     10  C   UNL     1      -0.019   1.526   0.010  0.00  0.00    +0.029 C 
ATOM     11  C   UNL     1       0.002  -0.004   0.002  0.00  0.00    +0.140 C 
ENDBRANCH   3  11
ENDBRANCH   1   5
BRANCH   1  12
ATOM     12  N   UNL     1       3.818  -0.963   4.410  0.00  0.00    -0.336 N 
ATOM     13  H   UNL     1       3.043  -0.739   4.949  0.00  0.00    +0.147 HD
BRANCH  12  14
ATOM     14  C   UNL     1       5.109  -0.721   4.902  0.00  0.00    +0.044 A 
ATOM     15  C   UNL     1       6.234  -1.040   4.120  0.00  0.00    +0.030 A 
ATOM     16  C   UNL     1       7.481  -0.797   4.615  0.00  0.00    +0.072 A 
ATOM     17  C   UNL     1       7.617  -0.234   5.895  0.00  0.00    +0.251 A 
ATOM     18  O   UNL     1       8.729  -0.013   6.348  0.00  0.00    -0.268 OA
ATOM     19  N   UNL     1       6.524   0.062   6.624  0.00  0.00    -0.316 N 
ATOM     20  C   UNL     1       5.277  -0.172   6.134  0.00  0.00    +0.111 A 
ATOM     21  C   UNL     1       6.680   0.649   7.957  0.00  0.00    +0.152 C 
ENDBRANCH  12  14
ENDBRANCH   1  12
TORSDOF 4
