REMARK  Name = ZINC39448722
REMARK  8 active torsions:
REMARK  status: ('A' for Active; 'I' for Inactive)
REMARK    1  A    between atoms: C_4  and  C_7
REMARK    2  A    between atoms: C_7  and  C_10
REMARK    3  A    between atoms: N_8  and  O_9
REMARK    4  A    between atoms: N_11  and  O_12
REMARK    5  A    between atoms: N_13  and  C_14
REMARK    6  A    between atoms: C_15  and  C_32
REMARK    7  A    between atoms: N_20  and  C_23
REMARK    8  A    between atoms: C_26  and  N_29
REMARK                            x       y       z     vdW  Elec       q    Type
REMARK                         _______ _______ _______ _____ _____    ______ ____
ROOT
ATOM      1  C   UNL     1       4.850  -4.213   0.227  0.00  0.00    +0.089 A 
ATOM      2  C   UNL     1       5.935  -5.070   0.324  0.00  0.00    +0.084 A 
ATOM      3  C   UNL     1       5.652  -6.492   0.433  0.00  0.00    -0.015 A 
ATOM      4  C   UNL     1       4.335  -6.792   0.427  0.00  0.00    +0.013 A 
ATOM      5  S   UNL     1       3.516  -5.232   0.285  0.00  0.00    -0.075 S 
ATOM      6  C   UNL     1       3.729  -8.159   0.530  0.00  0.00    +0.147 C 
ATOM      7  N   UNL     1       4.830  -9.133   0.398  0.00  0.00    -0.325 N 
ATOM      8  C   UNL     1       6.085  -8.845   1.110  0.00  0.00    +0.110 C 
ATOM      9  C   UNL     1       6.717  -7.573   0.540  0.00  0.00    +0.056 C 
ENDROOT
BRANCH   7  10
ATOM     10  C   UNL     1       4.686 -10.288  -0.375  0.00  0.00    +0.030 A 
ATOM     11  C   UNL     1       3.535 -10.482  -1.128  0.00  0.00    +0.025 A 
ATOM     12  C   UNL     1       3.396 -11.625  -1.891  0.00  0.00    +0.034 A 
ATOM     13  C   UNL     1       4.401 -12.574  -1.907  0.00  0.00    +0.126 A 
ATOM     14  C   UNL     1       5.549 -12.384  -1.159  0.00  0.00    +0.034 A 
ATOM     15  C   UNL     1       5.696 -11.241  -0.397  0.00  0.00    +0.025 A 
BRANCH  13  16
ATOM     16  N   UNL     1       4.249 -13.797  -2.726  0.00  0.00    +0.056 N 
ATOM     17  O   UNL     1       3.246 -13.966  -3.380  0.00  0.00    -0.126 OA
ATOM     18  O   UNL     1       5.127 -14.629  -2.741  0.00  0.00    -0.126 OA
ENDBRANCH  13  16
ENDBRANCH   7  10
BRANCH   1  21
ATOM     19  C   UNL     1       3.668  -2.132   0.035  0.00  0.00    +0.192 C 
ATOM     20  N   UNL     1       2.536  -2.772   0.065  0.00  0.00    -0.069 NA
ATOM     21  N   UNL     1       4.862  -2.833   0.115  0.00  0.00    -0.289 N 
ATOM     22  H   UNL     1       5.707  -2.356   0.093  0.00  0.00    +0.154 HD
BRANCH  19  23
ATOM     23  C   UNL     1       3.682  -0.658  -0.085  0.00  0.00    +0.153 C 
ATOM     24  N   UNL     1       4.812  -0.026  -0.223  0.00  0.00    -0.083 NA
BRANCH  23  28
ATOM     25  C   UNL     1       0.032   1.518   0.024  0.00  0.00    +0.000 A 
ATOM     26  C   UNL     1       0.665   1.176   1.205  0.00  0.00    +0.001 A 
ATOM     27  C   UNL     1       1.850   0.470   1.176  0.00  0.00    +0.010 A 
ATOM     28  C   UNL     1       2.409   0.101  -0.047  0.00  0.00    +0.007 A 
ATOM     29  C   UNL     1       1.766   0.448  -1.234  0.00  0.00    +0.010 A 
ATOM     30  C   UNL     1       0.581   1.155  -1.193  0.00  0.00    +0.001 A 
ENDBRANCH  23  28
BRANCH  24  31
ATOM     31  O   UNL     1       4.836   1.390  -0.231  0.00  0.00    -0.409 OA
ATOM     32  H   UNL     1       5.719   1.768  -0.338  0.00  0.00    +0.328 HD
ENDBRANCH  24  31
ENDBRANCH  19  23
BRANCH  20  33
ATOM     33  O   UNL     1       1.317  -2.053   0.094  0.00  0.00    -0.408 OA
ATOM     34  H   UNL     1       0.533  -2.610   0.192  0.00  0.00    +0.328 HD
ENDBRANCH  20  33
ENDBRANCH   1  21
BRANCH   2  35
ATOM     35  C   UNL     1       7.278  -4.575   0.316  0.00  0.00    +0.102 C 
ATOM     36  N   UNL     1       8.344  -4.183   0.310  0.00  0.00    -0.191 NA
ENDBRANCH   2  35
TORSDOF 8
