REMARK  Name = ZINC29189938
REMARK  9 active torsions:
REMARK  status: ('A' for Active; 'I' for Inactive)
REMARK    1  A    between atoms: C_1  and  C_2
REMARK    2  A    between atoms: N_10  and  N_14
REMARK    3  A    between atoms: C_15  and  C_17
REMARK    4  A    between atoms: C_17  and  N_18
REMARK    5  A    between atoms: N_18  and  C_19
REMARK    6  A    between atoms: C_19  and  C_21
REMARK    7  A    between atoms: C_19  and  C_26
REMARK    8  A    between atoms: C_26  and  C_27
REMARK    9  A    between atoms: C_26  and  C_28
REMARK                            x       y       z     vdW  Elec       q    Type
REMARK                         _______ _______ _______ _____ _____    ______ ____
ROOT
ATOM      1  N   UNL     1      -1.828  -0.867   0.538  0.00  0.00    -0.225 N 
ATOM      2  C   UNL     1      -1.988  -1.564  -0.605  0.00  0.00    +0.213 C 
ATOM      3  O   UNL     1      -1.103  -1.579  -1.434  0.00  0.00    -0.276 OA
ATOM      4  H   UNL     1      -2.631  -0.853   1.290  0.00  0.00    +0.173 HD
ENDROOT
BRANCH   1  14
ATOM      5  C   UNL     1       4.610   3.618   1.728  0.00  0.00    +0.007 C 
ATOM      6  C   UNL     1       3.145   3.333   1.392  0.00  0.00    -0.014 C 
ATOM      7  C   UNL     1       3.071   2.425   0.163  0.00  0.00    +0.006 C 
ATOM      8  C   UNL     1       1.605   2.151  -0.181  0.00  0.00    +0.035 C 
ATOM      9  C   UNL     1       0.918   1.484   1.006  0.00  0.00    +0.114 C 
ATOM     10  C   UNL     1       1.005   2.367   2.247  0.00  0.00    +0.035 C 
ATOM     11  C   UNL     1       2.474   2.640   2.580  0.00  0.00    +0.006 C 
ATOM     12  C   UNL     1      -0.525   1.179   0.677  0.00  0.00    +0.263 C 
ATOM     13  O   UNL     1      -1.395   1.973   0.387  0.00  0.00    -0.271 OA
ATOM     14  N   UNL     1      -0.640  -0.162   0.768  0.00  0.00    -0.137 N 
ATOM     15  C   UNL     1       0.522  -0.734   1.106  0.00  0.00    +0.326 C 
ATOM     16  O   UNL     1       0.668  -1.932   1.249  0.00  0.00    -0.251 OA
ATOM     17  N   UNL     1       1.510   0.166   1.270  0.00  0.00    -0.284 N 
ATOM     18  H   UNL     1       2.573   0.084   1.540  0.00  0.00    +0.151 HD
ENDBRANCH   1  14
BRANCH   2  19
ATOM     19  C   UNL     1      -3.266  -2.323  -0.853  0.00  0.00    +0.017 C 
BRANCH  19  20
ATOM     20  N   UNL     1      -3.193  -2.993  -2.158  0.00  0.00    +0.390 N 
ATOM     21  H   UNL     1      -3.148  -2.237  -2.956  0.00  0.00    -0.084 HD
ATOM     22  H   UNL     1      -2.291  -3.621  -2.197  0.00  0.00    -0.084 HD
BRANCH  20  23
ATOM     23  C   UNL     1      -4.370  -3.843  -2.380  0.00  0.00    -0.031 C 
BRANCH  23  24
ATOM     24  C   UNL     1      -4.130  -5.201  -1.773  0.00  0.00    -0.024 A 
ATOM     25  C   UNL     1      -4.989  -5.992  -1.084  0.00  0.00    +0.009 A 
ATOM     26  C   UNL     1      -4.546  -7.215  -0.617  0.00  0.00    +0.008 A 
ATOM     27  C   UNL     1      -3.263  -7.584  -0.853  0.00  0.00    +0.045 A 
ATOM     28  S   UNL     1      -2.639  -6.183  -1.767  0.00  0.00    -0.103 S 
ENDBRANCH  23  24
BRANCH  23  29
ATOM     29  C   UNL     1      -4.614  -3.993  -3.883  0.00  0.00    -0.027 C 
ATOM     30  C   UNL     1      -5.776  -4.960  -4.117  0.00  0.00    +0.006 C 
ATOM     31  C   UNL     1      -4.959  -2.628  -4.482  0.00  0.00    +0.006 C 
ENDBRANCH  23  29
ENDBRANCH  20  23
ENDBRANCH  19  20
ENDBRANCH   2  19
TORSDOF 6
