REMARK  Name = ZINC20097064
REMARK  10 active torsions:
REMARK  status: ('A' for Active; 'I' for Inactive)
REMARK    1  A    between atoms: C_1  and  C_2
REMARK    2  A    between atoms: C_5  and  C_9
REMARK    3  A    between atoms: C_6  and  O_8
REMARK    4  A    between atoms: C_9  and  C_11
REMARK    5  A    between atoms: C_9  and  N_12
REMARK    6  A    between atoms: N_12  and  C_13
REMARK    7  A    between atoms: C_13  and  C_15
REMARK    8  A    between atoms: C_13  and  C_16
REMARK    9  A    between atoms: C_21  and  O_22
REMARK   10  A    between atoms: O_22  and  C_23
REMARK                            x       y       z     vdW  Elec       q    Type
REMARK                         _______ _______ _______ _____ _____    ______ ____
ROOT
ATOM      1  N   UNL     1       3.555   3.052   0.448  0.00  0.00    +0.388 N 
ATOM      2  H   UNL     1       3.954   2.637  -0.489  0.00  0.00    -0.084 HD
ATOM      3  H   UNL     1       3.233   2.231   1.105  0.00  0.00    -0.084 HD
ENDROOT
BRANCH   1   4
ATOM      4  C   UNL     1       4.600   3.837   1.120  0.00  0.00    -0.040 C 
ATOM      5  C   UNL     1       5.493   4.502   0.071  0.00  0.00    -0.009 C 
BRANCH   4  10
ATOM      6  C   UNL     1       7.793   0.341   4.439  0.00  0.00    +0.044 C 
ATOM      7  C   UNL     1       6.962   1.254   3.576  0.00  0.00    -0.047 A 
ATOM      8  C   UNL     1       6.285   0.745   2.482  0.00  0.00    +0.004 A 
ATOM      9  C   UNL     1       5.517   1.579   1.692  0.00  0.00    +0.006 A 
ATOM     10  C   UNL     1       5.433   2.927   1.986  0.00  0.00    -0.020 A 
ATOM     11  C   UNL     1       6.110   3.440   3.082  0.00  0.00    +0.119 A 
ATOM     12  C   UNL     1       6.876   2.599   3.877  0.00  0.00    +0.049 A 
BRANCH  11  13
ATOM     13  O   UNL     1       6.024   4.764   3.377  0.00  0.00    -0.507 OA
ATOM     14  H   UNL     1       6.562   5.170   4.246  0.00  0.00    +0.292 HD
ENDBRANCH  11  13
ENDBRANCH   4  10
ENDBRANCH   1   4
BRANCH   1  15
ATOM     15  C   UNL     1       2.389   3.889   0.134  0.00  0.00    -0.040 C 
ATOM     16  C   UNL     1       1.658   3.309  -1.079  0.00  0.00    -0.009 C 
BRANCH  15  17
ATOM     17  C   UNL     1       1.457   3.916   1.317  0.00  0.00    -0.020 A 
ATOM     18  C   UNL     1       1.534   2.928   2.281  0.00  0.00    +0.005 A 
ATOM     19  C   UNL     1       0.679   2.953   3.367  0.00  0.00    +0.000 A 
ATOM     20  C   UNL     1      -0.259   3.962   3.489  0.00  0.00    +0.004 A 
ATOM     21  C   UNL     1      -0.336   4.954   2.532  0.00  0.00    +0.046 A 
ATOM     22  C   UNL     1       0.520   4.932   1.440  0.00  0.00    +0.122 A 
BRANCH  22  23
ATOM     23  O   UNL     1       0.443   5.904   0.494  0.00  0.00    -0.495 OA
ATOM     24  C   UNL     1      -0.545   6.919   0.686  0.00  0.00    +0.277 C 
ENDBRANCH  22  23
ENDBRANCH  15  17
ENDBRANCH   1  15
TORSDOF 6
