REMARK  Name = ZINC11865298
REMARK  7 active torsions:
REMARK  status: ('A' for Active; 'I' for Inactive)
REMARK    1  A    between atoms: C_1  and  C_2
REMARK    2  A    between atoms: C_8  and  C_19
REMARK    3  A    between atoms: C_20  and  C_27
REMARK    4  A    between atoms: C_23  and  C_26
REMARK    5  A    between atoms: C_24  and  O_25
REMARK    6  A    between atoms: C_27  and  O_28
REMARK    7  A    between atoms: C_33  and  C_34
REMARK                            x       y       z     vdW  Elec       q    Type
REMARK                         _______ _______ _______ _____ _____    ______ ____
ROOT
ATOM      1  C   UNL     1       1.525  -1.177  -4.368  0.00  0.00    +0.044 C 
ATOM      2  C   UNL     1       2.278  -0.320  -3.383  0.00  0.00    -0.044 A 
ATOM      3  C   UNL     1       3.074  -0.918  -2.420  0.00  0.00    +0.004 A 
ATOM      4  C   UNL     1       3.766  -0.143  -1.514  0.00  0.00    +0.012 A 
ATOM      5  C   UNL     1       3.663   1.246  -1.568  0.00  0.00    +0.029 A 
ATOM      6  C   UNL     1       4.390   2.098  -0.613  0.00  0.00    +0.046 A 
ATOM      7  C   UNL     1       4.245   3.498  -0.721  0.00  0.00    +0.097 A 
ATOM      8  C   UNL     1       4.932   4.328   0.181  0.00  0.00    +0.090 A 
ATOM      9  N   UNL     1       5.704   3.797   1.117  0.00  0.00    -0.242 NA
ATOM     10  C   UNL     1       5.863   2.485   1.246  0.00  0.00    +0.118 A 
ATOM     11  C   UNL     1       5.214   1.582   0.389  0.00  0.00    +0.163 A 
ATOM     12  O   UNL     1       5.553   0.326   0.746  0.00  0.00    -0.453 OA
ATOM     13  C   UNL     1       6.397   0.321   1.800  0.00  0.00    +0.138 A 
ATOM     14  C   UNL     1       6.644   1.649   2.178  0.00  0.00    +0.046 A 
ATOM     15  C   UNL     1       7.488   1.929   3.248  0.00  0.00    +0.014 A 
ATOM     16  C   UNL     1       8.083   0.893   3.937  0.00  0.00    +0.001 A 
ATOM     17  C   UNL     1       7.841  -0.420   3.566  0.00  0.00    +0.004 A 
ATOM     18  C   UNL     1       7.006  -0.709   2.508  0.00  0.00    +0.047 A 
ATOM     19  C   UNL     1       3.379   4.032  -1.775  0.00  0.00    +0.347 A 
ATOM     20  O   UNL     1       3.236   5.234  -1.891  0.00  0.00    -0.244 OA
ATOM     21  O   UNL     1       2.742   3.198  -2.615  0.00  0.00    -0.421 OA
ATOM     22  C   UNL     1       2.857   1.853  -2.543  0.00  0.00    +0.143 A 
ATOM     23  C   UNL     1       2.168   1.053  -3.447  0.00  0.00    -0.005 A 
ATOM     24  C   UNL     1       1.302   1.689  -4.504  0.00  0.00    +0.048 C 
ENDROOT
BRANCH   8  25
ATOM     25  C   UNL     1       4.792   5.800   0.084  0.00  0.00    +0.051 A 
ATOM     26  C   UNL     1       5.676   6.556  -0.691  0.00  0.00    +0.009 A 
ATOM     27  C   UNL     1       5.507   7.924  -0.758  0.00  0.00    +0.117 A 
ATOM     28  N   UNL     1       4.536   8.522  -0.095  0.00  0.00    -0.256 NA
ATOM     29  C   UNL     1       3.682   7.853   0.653  0.00  0.00    +0.080 A 
ATOM     30  C   UNL     1       3.773   6.474   0.773  0.00  0.00    +0.147 A 
ATOM     31  C   UNL     1       2.594   8.594   1.386  0.00  0.00    +0.069 C 
BRANCH  30  32
ATOM     32  O   UNL     1       2.890   5.789   1.544  0.00  0.00    -0.504 OA
ATOM     33  H   UNL     1       3.175   5.674   2.461  0.00  0.00    +0.292 HD
ENDBRANCH  30  32
BRANCH  26  34
ATOM     34  C   UNL     1       6.794   5.886  -1.448  0.00  0.00    +0.193 C 
BRANCH  34  35
ATOM     35  O   UNL     1       7.547   6.873  -2.156  0.00  0.00    -0.390 OA
ATOM     36  H   UNL     1       8.285   6.512  -2.667  0.00  0.00    +0.210 HD
ENDBRANCH  34  35
ENDBRANCH  26  34
ENDBRANCH   8  25
TORSDOF 4
