REMARK  Name = ZINC12734203
REMARK  4 active torsions:
REMARK  status: ('A' for Active; 'I' for Inactive)
REMARK    1  A    between atoms: C_6  and  C_7
REMARK    2  A    between atoms: C_7  and  N_8
REMARK    3  A    between atoms: C_9  and  C_16
REMARK    4  A    between atoms: C_10  and  C_14
REMARK                            x       y       z     vdW  Elec       q    Type
REMARK                         _______ _______ _______ _____ _____    ______ ____
ROOT
ATOM      1  N   UNL     1      -0.017   1.377   0.010  0.00  0.00    -0.299 N 
ATOM      2  C   UNL     1       0.002  -0.004   0.002  0.00  0.00    +0.159 A 
ATOM      3  C   UNL     1       1.343  -0.374  -0.013  0.00  0.00    +0.178 A 
ATOM      4  N   UNL     1       2.074   0.755  -0.014  0.00  0.00    -0.203 NA
ATOM      5  C   UNL     1       1.276   1.797  -0.001  0.00  0.00    +0.195 A 
ATOM      6  N   UNL     1       1.685   3.114   0.002  0.00  0.00    -0.329 N 
ATOM      7  H   UNL     1       1.027   3.826   0.012  0.00  0.00    +0.145 HD
ATOM      8  H   UNL     1       2.631   3.328  -0.006  0.00  0.00    +0.145 HD
ENDROOT
BRANCH   3   9
ATOM      9  C   UNL     1       1.852  -1.712  -0.024  0.00  0.00    +0.122 C 
ATOM     10  N   UNL     1       2.256  -2.774  -0.034  0.00  0.00    -0.189 NA
ENDBRANCH   3   9
BRANCH   2  11
ATOM     11  C   UNL     1      -1.131  -0.879   0.008  0.00  0.00    +0.120 C 
ATOM     12  N   UNL     1      -2.030  -1.574   0.013  0.00  0.00    -0.189 NA
ENDBRANCH   2  11
BRANCH   1  13
ATOM     13  C   UNL     1      -1.208   2.230   0.020  0.00  0.00    +0.161 C 
BRANCH  13  19
ATOM     14  C   UNL     1      -2.494   1.675   2.094  0.00  0.00    +0.007 A 
ATOM     15  C   UNL     1      -2.858   1.933   3.403  0.00  0.00    +0.020 A 
ATOM     16  C   UNL     1      -2.345   3.038   4.058  0.00  0.00    +0.041 A 
ATOM     17  C   UNL     1      -1.463   3.881   3.405  0.00  0.00    +0.020 A 
ATOM     18  C   UNL     1      -1.096   3.619   2.099  0.00  0.00    +0.007 A 
ATOM     19  C   UNL     1      -1.609   2.515   1.445  0.00  0.00    -0.028 A 
ATOM     20 CL   UNL     1      -2.806   3.366   5.699  0.00  0.00    -0.084 Cl
ENDBRANCH  13  19
ENDBRANCH   1  13
TORSDOF 4
