REMARK  Name = ZINC22242645
REMARK  11 active torsions:
REMARK  status: ('A' for Active; 'I' for Inactive)
REMARK    1  A    between atoms: C_1  and  C_2
REMARK    2  A    between atoms: C_3  and  C_30
REMARK    3  A    between atoms: C_11  and  C_13
REMARK    4  A    between atoms: C_13  and  C_15
REMARK    5  A    between atoms: C_13  and  N_16
REMARK    6  A    between atoms: N_19  and  C_22
REMARK    7  A    between atoms: C_22  and  C_23
REMARK    8  A    between atoms: N_25  and  C_26
REMARK    9  A    between atoms: C_26  and  C_27
REMARK   10  A    between atoms: C_27  and  C_28
REMARK   11  A    between atoms: C_27  and  C_29
REMARK                            x       y       z     vdW  Elec       q    Type
REMARK                         _______ _______ _______ _____ _____    ______ ____
ROOT
ATOM      1  N   UNL     1      -0.136  -4.802   4.067  0.00  0.00    +0.388 N 
ATOM      2  C   UNL     1      -0.235  -5.713   5.214  0.00  0.00    -0.062 C 
ATOM      3  C   UNL     1      -0.489  -7.137   4.715  0.00  0.00    +0.066 C 
ATOM      4  N   UNL     1       0.613  -7.548   3.834  0.00  0.00    -0.298 NA
ATOM      5  C   UNL     1       0.740  -6.630   2.693  0.00  0.00    +0.066 C 
ATOM      6  C   UNL     1       0.984  -5.211   3.209  0.00  0.00    -0.062 C 
ATOM      7  H   UNL     1      -0.994  -4.835   3.537  0.00  0.00    -0.081 HD
ENDROOT
BRANCH   1   8
ATOM      8  C   UNL     1       0.090  -3.432   4.547  0.00  0.00    -0.004 C 
ATOM      9  C   UNL     1      -0.992  -3.063   5.564  0.00  0.00    -0.005 C 
BRANCH   8  20
ATOM     10  C   UNL     1      -0.068   1.517   0.027  0.00  0.00    +0.045 C 
ATOM     11  C   UNL     1      -0.150   0.012   0.020  0.00  0.00    -0.026 A 
ATOM     12  C   UNL     1      -0.289  -0.655  -1.137  0.00  0.00    -0.008 A 
ATOM     13  S   UNL     1      -0.335  -2.362  -0.626  0.00  0.00    -0.073 S 
ATOM     14  C   UNL     1      -0.166  -2.130   1.125  0.00  0.00    +0.116 A 
ATOM     15  C   UNL     1      -0.073  -0.733   1.262  0.00  0.00    +0.075 A 
ATOM     16  C   UNL     1       0.079  -0.252   2.603  0.00  0.00    +0.260 A 
ATOM     17  O   UNL     1       0.164   0.944   2.826  0.00  0.00    -0.267 OA
ATOM     18  N   UNL     1       0.126  -1.141   3.613  0.00  0.00    -0.312 N 
ATOM     19  H   UNL     1       0.229  -0.821   4.523  0.00  0.00    +0.170 HD
ATOM     20  C   UNL     1       0.033  -2.476   3.384  0.00  0.00    +0.097 A 
ATOM     21  N   UNL     1      -0.116  -2.945   2.174  0.00  0.00    -0.228 NA
ATOM     22  C   UNL     1      -0.385  -0.094  -2.533  0.00  0.00    +0.052 C 
ENDBRANCH   8  20
ENDBRANCH   1   8
BRANCH   4  23
ATOM     23  C   UNL     1       0.434  -8.933   3.378  0.00  0.00    +0.180 C 
BRANCH  23  24
ATOM     24  C   UNL     1       1.688  -9.401   2.686  0.00  0.00    +0.227 C 
ATOM     25  O   UNL     1       2.638  -8.654   2.583  0.00  0.00    -0.274 OA
ATOM     26  N   UNL     1       1.755 -10.649   2.182  0.00  0.00    -0.314 N 
ATOM     27  H   UNL     1       0.995 -11.246   2.264  0.00  0.00    +0.149 HD
BRANCH  26  28
ATOM     28  C   UNL     1       2.974 -11.103   1.509  0.00  0.00    +0.107 C 
BRANCH  28  29
ATOM     29  C   UNL     1       2.788 -12.546   1.034  0.00  0.00    -0.000 C 
ATOM     30  C   UNL     1       1.694 -12.593  -0.035  0.00  0.00    +0.009 C 
ATOM     31  C   UNL     1       4.101 -13.062   0.444  0.00  0.00    +0.009 C 
ENDBRANCH  28  29
ENDBRANCH  26  28
ENDBRANCH  23  24
ENDBRANCH   4  23
TORSDOF 6
