REMARK  Name = ZINC49469809
REMARK  2 active torsions:
REMARK  status: ('A' for Active; 'I' for Inactive)
REMARK    1  A    between atoms: C_1  and  C_2
REMARK    2  A    between atoms: C_3  and  N_8
REMARK                            x       y       z     vdW  Elec       q    Type
REMARK                         _______ _______ _______ _____ _____    ______ ____
ROOT
ATOM      1  N   UNL     1      -0.005  -0.374  -2.475  0.00  0.00    -0.296 N 
ATOM      2  C   UNL     1       0.003  -1.292  -3.510  0.00  0.00    +0.134 A 
ATOM      3  C   UNL     1      -0.003  -0.853  -4.863  0.00  0.00    +0.048 A 
ATOM      4  C   UNL     1      -0.018   0.496  -5.401  0.00  0.00    +0.021 A 
ATOM      5  C   UNL     1      -0.021   0.670  -6.731  0.00  0.00    +0.048 A 
ATOM      6  S   UNL     1      -0.005  -0.995  -7.369  0.00  0.00    -0.077 S 
ATOM      7  C   UNL     1       0.006  -1.879  -5.832  0.00  0.00    +0.113 A 
ATOM      8  N   UNL     1       0.020  -3.151  -5.486  0.00  0.00    -0.228 NA
ATOM      9  C   UNL     1       0.025  -3.497  -4.214  0.00  0.00    +0.224 A 
ATOM     10  N   UNL     1       0.022  -2.590  -3.253  0.00  0.00    -0.220 NA
ATOM     11  H   UNL     1      -0.019   0.576  -2.670  0.00  0.00    +0.154 HD
ENDROOT
BRANCH   1  14
ATOM     12  C   UNL     1      -0.018   1.503   0.010  0.00  0.00    +0.069 C 
ATOM     13  C   UNL     1       0.002  -0.004   0.002  0.00  0.00    +0.081 A 
ATOM     14  C   UNL     1       0.008  -0.819  -1.140  0.00  0.00    +0.073 A 
ATOM     15  C   UNL     1       0.027  -2.112  -0.728  0.00  0.00    +0.128 A 
ATOM     16  N   UNL     1       0.034  -2.109   0.631  0.00  0.00    -0.283 N 
ATOM     17  H   UNL     1       0.047  -2.892   1.204  0.00  0.00    +0.188 HD
ATOM     18  N   UNL     1       0.023  -0.775   1.059  0.00  0.00    -0.177 NA
ENDBRANCH   1  14
TORSDOF 1
