REMARK  Name = ZINC43489703
REMARK  7 active torsions:
REMARK  status: ('A' for Active; 'I' for Inactive)
REMARK    1  A    between atoms: C_1  and  C_2
REMARK    2  A    between atoms: C_2  and  C_3
REMARK    3  A    between atoms: C_3  and  N_4
REMARK    4  A    between atoms: N_4  and  C_5
REMARK    5  A    between atoms: N_4  and  C_14
REMARK    6  A    between atoms: C_5  and  C_6
REMARK    7  A    between atoms: C_9  and  O_13
REMARK                            x       y       z     vdW  Elec       q    Type
REMARK                         _______ _______ _______ _____ _____    ______ ____
ROOT
ATOM      1  N   UNL     1       0.846  -1.949  -1.205  0.00  0.00    -0.295 NA
ENDROOT
BRANCH   1   2
ATOM      2  C   UNL     1       1.615  -2.358  -0.023  0.00  0.00    +0.054 C 
ATOM      3  C   UNL     1       0.686  -2.417   1.194  0.00  0.00    +0.003 C 
ATOM      4  C   UNL     1      -0.338  -3.543   0.984  0.00  0.00    -0.070 C 
ATOM      5  C   UNL     1      -0.931  -3.385  -0.435  0.00  0.00    -0.017 C 
ATOM      6  C   UNL     1       0.015  -4.191  -1.350  0.00  0.00    -0.017 C 
ATOM      7  C   UNL     1       1.093  -4.763  -0.401  0.00  0.00    -0.070 C 
ATOM      8  C   UNL     1       2.231  -3.738  -0.269  0.00  0.00    +0.003 C 
ATOM      9  N   UNL     1       0.417  -4.823   0.940  0.00  0.00    +0.383 N 
ATOM     10  H   UNL     1       1.092  -4.864   1.689  0.00  0.00    -0.085 HD
ATOM     11  H   UNL     1      -0.213  -5.610   0.984  0.00  0.00    -0.085 HD
ENDBRANCH   1   2
BRANCH   1  12
ATOM     12  C   UNL     1       0.593  -0.502  -1.193  0.00  0.00    +0.085 C 
BRANCH  12  14
ATOM     13  C   UNL     1      -1.085   1.157  -0.370  0.00  0.00    +0.005 C 
ATOM     14  C   UNL     1      -0.375  -0.162  -0.058  0.00  0.00    +0.012 C 
ENDBRANCH  12  14
ENDBRANCH   1  12
BRANCH   1  15
ATOM     15  C   UNL     1       1.526  -2.354  -2.442  0.00  0.00    +0.120 C 
BRANCH  15  16
ATOM     16  C   UNL     1       0.645  -2.045  -3.625  0.00  0.00    -0.032 A 
ATOM     17  C   UNL     1      -0.321  -2.951  -4.021  0.00  0.00    +0.008 A 
ATOM     18  C   UNL     1      -1.130  -2.671  -5.106  0.00  0.00    +0.047 A 
ATOM     19  C   UNL     1      -0.973  -1.478  -5.797  0.00  0.00    +0.135 A 
ATOM     20  C   UNL     1      -0.003  -0.570  -5.397  0.00  0.00    +0.083 A 
ATOM     21  C   UNL     1       0.800  -0.853  -4.308  0.00  0.00    +0.028 A 
ATOM     22 CL   UNL     1       0.196   0.924  -6.259  0.00  0.00    -0.080 Cl
BRANCH  19  23
ATOM     23  O   UNL     1      -1.768  -1.201  -6.864  0.00  0.00    -0.505 OA
ATOM     24  H   UNL     1      -2.583  -0.733  -6.636  0.00  0.00    +0.292 HD
ENDBRANCH  19  23
ENDBRANCH  15  16
ENDBRANCH   1  15
TORSDOF 6
