REMARK  Name = ZINC46347323
REMARK  8 active torsions:
REMARK  status: ('A' for Active; 'I' for Inactive)
REMARK    1  A    between atoms: C_1  and  N_2
REMARK    2  A    between atoms: N_2  and  C_3
REMARK    3  A    between atoms: N_2  and  C_4
REMARK    4  A    between atoms: C_4  and  C_6
REMARK    5  A    between atoms: C_4  and  C_24
REMARK    6  A    between atoms: C_6  and  N_7
REMARK    7  A    between atoms: N_10  and  N_11
REMARK    8  A    between atoms: C_12  and  C_14
REMARK                            x       y       z     vdW  Elec       q    Type
REMARK                         _______ _______ _______ _____ _____    ______ ____
ROOT
ATOM      1  N   UNL     1       0.072  -2.013   0.995  0.00  0.00    -0.299 N 
ATOM      2  C   UNL     1       0.491  -3.276   1.211  0.00  0.00    +0.316 C 
ATOM      3  O   UNL     1       0.136  -4.170   0.467  0.00  0.00    -0.251 OA
ATOM      4  N   UNL     1       1.303  -3.549   2.251  0.00  0.00    -0.218 N 
ATOM      5  H   UNL     1       0.355  -1.300   1.589  0.00  0.00    +0.150 HD
ATOM      6  H   UNL     1       1.604  -4.457   2.406  0.00  0.00    +0.174 HD
ENDROOT
BRANCH   4   7
ATOM      7  N   UNL     1       1.712  -2.519   3.109  0.00  0.00    -0.228 N 
ATOM      8  C   UNL     1       2.525  -2.792   4.149  0.00  0.00    +0.279 C 
ATOM      9  O   UNL     1       2.902  -3.930   4.343  0.00  0.00    -0.267 OA
ATOM     10  H   UNL     1       1.411  -1.610   2.954  0.00  0.00    +0.173 HD
BRANCH   8  11
ATOM     11  C   UNL     1       2.958  -1.702   5.057  0.00  0.00    +0.127 A 
ATOM     12  C   UNL     1       3.808  -2.002   6.131  0.00  0.00    +0.034 A 
ATOM     13  C   UNL     1       4.214  -1.008   6.974  0.00  0.00    +0.012 A 
ATOM     14  C   UNL     1       3.757   0.300   6.729  0.00  0.00    +0.000 A 
ATOM     15  C   UNL     1       4.136   1.371   7.556  0.00  0.00    +0.010 A 
ATOM     16  C   UNL     1       3.675   2.623   7.288  0.00  0.00    +0.001 A 
ATOM     17  C   UNL     1       2.830   2.860   6.204  0.00  0.00    +0.002 A 
ATOM     18  C   UNL     1       2.443   1.848   5.382  0.00  0.00    +0.028 A 
ATOM     19  C   UNL     1       2.898   0.537   5.625  0.00  0.00    +0.072 A 
ATOM     20  N   UNL     1       2.539  -0.472   4.832  0.00  0.00    -0.242 NA
ENDBRANCH   8  11
ENDBRANCH   4   7
BRANCH   1  21
ATOM     21  C   UNL     1      -0.811  -1.717  -0.135  0.00  0.00    +0.095 C 
BRANCH  21  22
ATOM     22  C   UNL     1      -1.238  -0.249  -0.078  0.00  0.00    -0.020 C 
BRANCH  22  23
ATOM     23  C   UNL     1      -2.080  -0.018   1.150  0.00  0.00    -0.052 A 
ATOM     24  C   UNL     1      -1.527   0.550   2.283  0.00  0.00    +0.009 A 
ATOM     25  C   UNL     1      -2.312   0.744   3.371  0.00  0.00    +0.045 A 
ATOM     26  S   UNL     1      -3.885   0.114   2.809  0.00  0.00    -0.105 S 
ATOM     27  C   UNL     1      -3.391  -0.360   1.160  0.00  0.00    +0.047 A 
ENDBRANCH  22  23
BRANCH  22  29
ATOM     28  C   UNL     1      -2.469   1.477  -1.200  0.00  0.00    -0.096 C 
ATOM     29  N   UNL     1      -2.021   0.081  -1.277  0.00  0.00    +0.382 N 
ATOM     30  C   UNL     1      -1.185  -0.101  -2.472  0.00  0.00    -0.096 C 
ATOM     31  H   UNL     1      -2.823  -0.528  -1.332  0.00  0.00    -0.082 HD
ENDBRANCH  22  29
ENDBRANCH  21  22
ENDBRANCH   1  21
TORSDOF 6
