REMARK  Name = ZINC00834725
REMARK  9 active torsions:
REMARK  status: ('A' for Active; 'I' for Inactive)
REMARK    1  A    between atoms: C_1  and  C_2
REMARK    2  A    between atoms: C_2  and  C_24
REMARK    3  A    between atoms: C_4  and  O_23
REMARK    4  A    between atoms: C_7  and  C_9
REMARK    5  A    between atoms: C_7  and  C_10
REMARK    6  A    between atoms: C_10  and  N_51
REMARK    7  A    between atoms: C_11  and  C_12
REMARK    8  A    between atoms: N_15  and  C_22
REMARK    9  A    between atoms: N_18  and  C_21
REMARK                            x       y       z     vdW  Elec       q    Type
REMARK                         _______ _______ _______ _____ _____    ______ ____
ROOT
ATOM      1  C   UNL     1       0.164   0.862   0.005  0.00  0.00    +0.072 C 
ATOM      2  N   UNL     1       1.083   1.801   0.001  0.00  0.00    -0.392 N 
ATOM      3  H   UNL     1       0.807   2.790   0.009  0.00  0.00    +0.159 HD
ENDROOT
BRANCH   1   4
ATOM      4  C   UNL     1      -1.276   1.305   0.015  0.00  0.00    +0.200 C 
ATOM      5  C   UNL     1      -1.889   0.888   1.339  0.00  0.00    +0.238 C 
ATOM      6  O   UNL     1      -1.427   1.269   2.393  0.00  0.00    -0.274 OA
ATOM      7  N   UNL     1      -2.969   0.079   1.299  0.00  0.00    -0.255 N 
ATOM      8  C   UNL     1      -3.490  -0.350   0.144  0.00  0.00    +0.148 C 
ATOM      9  S   UNL     1      -4.860  -1.374   0.224  0.00  0.00    -0.018 S 
ATOM     10  N   UNL     1      -3.020  -0.038  -1.069  0.00  0.00    -0.255 N 
ATOM     11  C   UNL     1      -1.946   0.763  -1.234  0.00  0.00    +0.238 C 
ATOM     12  O   UNL     1      -1.531   1.038  -2.339  0.00  0.00    -0.274 OA
ATOM     13  C   UNL     1      -3.691  -0.579  -2.253  0.00  0.00    +0.140 C 
ATOM     14  C   UNL     1      -3.588  -0.343   2.558  0.00  0.00    +0.140 C 
ENDBRANCH   1   4
BRANCH   2  15
ATOM     15  C   UNL     1       2.539   1.427  -0.015  0.00  0.00    +0.118 C 
BRANCH  15  21
ATOM     16  C   UNL     1       5.726   3.044  -3.056  0.00  0.00    +0.011 C 
ATOM     17  C   UNL     1       5.356   1.617  -2.643  0.00  0.00    -0.032 C 
ATOM     18  C   UNL     1       4.565   0.930  -3.747  0.00  0.00    +0.037 C 
ATOM     19  C   UNL     1       3.122   1.406  -3.818  0.00  0.00    +0.116 C 
ATOM     20  C   UNL     1       2.425   1.235  -2.477  0.00  0.00    +0.039 C 
ATOM     21  C   UNL     1       3.161   1.929  -1.340  0.00  0.00    -0.012 C 
ATOM     22  C   UNL     1       4.641   1.601  -1.305  0.00  0.00    +0.015 C 
ATOM     23  C   UNL     1       2.930   3.442  -1.396  0.00  0.00    +0.013 C 
ATOM     24  C   UNL     1       6.683   0.839  -2.473  0.00  0.00    +0.011 C 
BRANCH  19  25
ATOM     25  O   UNL     1       3.038   2.749  -4.283  0.00  0.00    -0.392 OA
ATOM     26  H   UNL     1       3.407   2.884  -5.166  0.00  0.00    +0.210 HD
ENDBRANCH  19  25
ENDBRANCH  15  21
ENDBRANCH   2  15
TORSDOF 4
