REMARK  Name = ZINC41189547
REMARK  6 active torsions:
REMARK  status: ('A' for Active; 'I' for Inactive)
REMARK    1  A    between atoms: C_1  and  C_2
REMARK    2  A    between atoms: C_2  and  N_3
REMARK    3  A    between atoms: N_3  and  C_4
REMARK    4  A    between atoms: C_4  and  C_6
REMARK    5  A    between atoms: C_4  and  C_16
REMARK    6  A    between atoms: C_18  and  C_21
REMARK                            x       y       z     vdW  Elec       q    Type
REMARK                         _______ _______ _______ _____ _____    ______ ____
ROOT
ATOM      1  C   UNL     1      -1.356  -1.981   0.004  0.00  0.00    +0.016 C 
ENDROOT
BRANCH   1   2
ATOM      2  C   UNL     1      -0.737  -2.482   1.284  0.00  0.00    -0.050 A 
ATOM      3  C   UNL     1       0.126  -3.563   1.255  0.00  0.00    +0.052 A 
ATOM      4  C   UNL     1       0.697  -4.025   2.429  0.00  0.00    +0.168 A 
ATOM      5  C   UNL     1       0.401  -3.400   3.638  0.00  0.00    +0.184 A 
ATOM      6  C   UNL     1      -0.466  -2.318   3.659  0.00  0.00    +0.087 A 
ATOM      7  C   UNL     1      -1.028  -1.858   2.482  0.00  0.00    +0.026 A 
ATOM      8 CL   UNL     1      -0.839  -1.534   5.163  0.00  0.00    -0.080 Cl
ATOM      9  O   UNL     1       1.081  -4.035   4.637  0.00  0.00    -0.451 OA
ATOM     10  C   UNL     1       1.475  -5.305   4.086  0.00  0.00    +0.466 C 
ATOM     11  O   UNL     1       1.564  -5.052   2.671  0.00  0.00    -0.453 OA
ENDBRANCH   1   2
BRANCH   1  12
ATOM     12  C   UNL     1      -2.766  -2.502  -0.109  0.00  0.00    +0.069 A 
ATOM     13  N   UNL     1      -3.219  -3.463  -0.875  0.00  0.00    -0.251 NA
ATOM     14  C   UNL     1      -4.491  -3.808  -0.862  0.00  0.00    +0.046 A 
ATOM     15  C   UNL     1      -5.306  -3.122  -0.020  0.00  0.00    +0.069 A 
ATOM     16  S   UNL     1      -4.138  -1.995   0.724  0.00  0.00    -0.082 S 
ATOM     17  C   UNL     1      -5.017  -4.913  -1.742  0.00  0.00    +0.066 C 
ENDBRANCH   1  12
BRANCH   1  18
ATOM     18  N   UNL     1      -1.376  -0.512   0.012  0.00  0.00    +0.387 N 
ATOM     19  H   UNL     1      -1.848  -0.187   0.843  0.00  0.00    -0.084 HD
ATOM     20  H   UNL     1      -1.864  -0.178  -0.805  0.00  0.00    -0.084 HD
BRANCH  18  22
ATOM     21  C   UNL     1      -0.019   1.526   0.010  0.00  0.00    -0.017 C 
ATOM     22  C   UNL     1       0.002  -0.004   0.002  0.00  0.00    -0.085 C 
ENDBRANCH  18  22
ENDBRANCH   1  18
TORSDOF 4
