REMARK  Name = ZINC65381374
REMARK  10 active torsions:
REMARK  status: ('A' for Active; 'I' for Inactive)
REMARK    1  A    between atoms: C_1  and  C_2
REMARK    2  A    between atoms: C_2  and  C_3
REMARK    3  A    between atoms: C_3  and  C_26
REMARK    4  A    between atoms: N_7  and  C_25
REMARK    5  A    between atoms: C_11  and  C_14
REMARK    6  A    between atoms: C_17  and  C_20
REMARK    7  A    between atoms: C_21  and  C_22
REMARK    8  A    between atoms: C_22  and  C_23
REMARK    9  A    between atoms: C_23  and  O_24
REMARK   10  A    between atoms: C_26  and  O_27
REMARK                            x       y       z     vdW  Elec       q    Type
REMARK                         _______ _______ _______ _____ _____    ______ ____
ROOT
ATOM      1  C   UNL     1       0.528  -0.055   1.403  0.00  0.00    +0.044 C 
ATOM      2  C   UNL     1       1.186  -1.444   1.265  0.00  0.00    -0.002 C 
ATOM      3  C   UNL     1       2.501  -1.454   2.073  0.00  0.00    -0.074 C 
ATOM      4  N   UNL     1       2.487  -2.750   2.799  0.00  0.00    +0.378 N 
ATOM      5  C   UNL     1       1.074  -2.913   3.226  0.00  0.00    -0.074 C 
ATOM      6  C   UNL     1       0.234  -2.413   2.015  0.00  0.00    -0.003 C 
ATOM      7  C   UNL     1      -0.910  -1.518   2.536  0.00  0.00    +0.086 C 
ATOM      8  N   UNL     1      -0.318  -0.158   2.618  0.00  0.00    -0.301 NA
ATOM      9  C   UNL     1       3.374  -2.693   3.968  0.00  0.00    -0.096 C 
ATOM     10  H   UNL     1       0.236  -0.055   3.455  0.00  0.00    +0.123 HD
ATOM     11  H   UNL     1       2.759  -3.502   2.183  0.00  0.00    -0.082 HD
ENDROOT
BRANCH   7  12
ATOM     12  C   UNL     1      -1.360  -1.980   3.898  0.00  0.00    -0.030 A 
ATOM     13  C   UNL     1      -0.790  -1.435   5.034  0.00  0.00    +0.006 A 
ATOM     14  C   UNL     1      -1.197  -1.853   6.284  0.00  0.00    +0.017 A 
ATOM     15  C   UNL     1      -2.187  -2.830   6.401  0.00  0.00    +0.025 A 
ATOM     16  C   UNL     1      -2.759  -3.376   5.251  0.00  0.00    +0.017 A 
ATOM     17  C   UNL     1      -2.346  -2.945   4.007  0.00  0.00    +0.006 A 
BRANCH  15  18
ATOM     18  C   UNL     1      -2.615  -3.269   7.695  0.00  0.00    -0.066 C 
ATOM     19  C   UNL     1      -2.965  -3.630   8.756  0.00  0.00    -0.095 C 
BRANCH  19  20
ATOM     20  C   UNL     1      -3.405  -4.081  10.086  0.00  0.00    +0.117 C 
BRANCH  20  21
ATOM     21  C   UNL     1      -4.490  -5.148   9.930  0.00  0.00    +0.168 C 
BRANCH  21  22
ATOM     22  O   UNL     1      -4.917  -5.586  11.221  0.00  0.00    -0.394 OA
ATOM     23  H   UNL     1      -5.606  -6.264  11.198  0.00  0.00    +0.209 HD
ENDBRANCH  21  22
ENDBRANCH  20  21
ENDBRANCH  19  20
ENDBRANCH  15  18
ENDBRANCH   7  12
BRANCH   1  25
ATOM     24  C   UNL     1      -1.170   1.504   0.440  0.00  0.00    +0.006 C 
ATOM     25  C   UNL     1      -0.335   0.249   0.176  0.00  0.00    +0.021 C 
ENDBRANCH   1  25
BRANCH   1  26
ATOM     26  C   UNL     1       1.594   1.027   1.585  0.00  0.00    +0.178 C 
BRANCH  26  27
ATOM     27  O   UNL     1       2.514   0.978   0.493  0.00  0.00    -0.393 OA
ATOM     28  H   UNL     1       3.219   1.638   0.543  0.00  0.00    +0.209 HD
ENDBRANCH  26  27
ENDBRANCH   1  26
TORSDOF 8
