REMARK  Name = ZINC03847475
REMARK  10 active torsions:
REMARK  status: ('A' for Active; 'I' for Inactive)
REMARK    1  A    between atoms: C_1  and  N_50
REMARK    2  A    between atoms: C_6  and  O_24
REMARK    3  A    between atoms: C_7  and  O_23
REMARK    4  A    between atoms: C_10  and  C_12
REMARK    5  A    between atoms: C_12  and  C_13
REMARK    6  A    between atoms: C_13  and  C_14
REMARK    7  A    between atoms: C_17  and  O_22
REMARK    8  A    between atoms: C_18  and  O_20
REMARK    9  A    between atoms: O_20  and  C_21
REMARK   10  A    between atoms: O_24  and  C_25
REMARK                            x       y       z     vdW  Elec       q    Type
REMARK                         _______ _______ _______ _____ _____    ______ ____
ROOT
ATOM      1  C   UNL     1      -2.663   0.955  -2.191  0.00  0.00    -0.095 C 
ATOM      2  C   UNL     1      -0.608   1.379  -0.979  0.00  0.00    -0.074 C 
ATOM      3  C   UNL     1       0.027   1.184   0.399  0.00  0.00    +0.017 C 
ATOM      4  C   UNL     1      -0.737   1.974   1.431  0.00  0.00    -0.044 A 
ATOM      5  C   UNL     1      -0.128   2.216   2.656  0.00  0.00    +0.053 A 
ATOM      6  C   UNL     1      -0.790   2.933   3.636  0.00  0.00    +0.162 A 
ATOM      7  C   UNL     1      -2.073   3.414   3.390  0.00  0.00    +0.159 A 
ATOM      8  C   UNL     1      -2.673   3.171   2.168  0.00  0.00    +0.051 A 
ATOM      9  C   UNL     1      -2.004   2.451   1.187  0.00  0.00    -0.054 A 
ATOM     10  C   UNL     1      -2.701   2.217  -0.128  0.00  0.00    -0.037 C 
ATOM     11  N   UNL     1      -2.055   1.109  -0.851  0.00  0.00    +0.383 N 
ATOM     12  H   UNL     1      -2.189   0.240  -0.322  0.00  0.00    -0.081 HD
ENDROOT
BRANCH   7  13
ATOM     13  O   UNL     1      -2.733   4.119   4.347  0.00  0.00    -0.503 OA
ATOM     14  H   UNL     1      -3.266   3.572   4.941  0.00  0.00    +0.292 HD
ENDBRANCH   7  13
BRANCH   6  15
ATOM     15  O   UNL     1      -0.190   3.168   4.834  0.00  0.00    -0.491 OA
ATOM     16  C   UNL     1       1.127   2.644   5.014  0.00  0.00    +0.277 C 
ENDBRANCH   6  15
BRANCH  10  17
ATOM     17  C   UNL     1      -4.163   1.851   0.134  0.00  0.00    -0.006 C 
BRANCH  17  18
ATOM     18  C   UNL     1      -4.226   0.546   0.931  0.00  0.00    +0.034 C 
BRANCH  18  19
ATOM     19  C   UNL     1      -5.665   0.130   1.100  0.00  0.00    -0.044 A 
ATOM     20  C   UNL     1      -6.383   0.561   2.200  0.00  0.00    +0.007 A 
ATOM     21  C   UNL     1      -7.705   0.186   2.356  0.00  0.00    +0.049 A 
ATOM     22  C   UNL     1      -8.308  -0.633   1.415  0.00  0.00    +0.158 A 
ATOM     23  C   UNL     1      -7.584  -1.071   0.311  0.00  0.00    +0.162 A 
ATOM     24  C   UNL     1      -6.261  -0.687   0.158  0.00  0.00    +0.053 A 
BRANCH  23  25
ATOM     25  O   UNL     1      -8.172  -1.875  -0.615  0.00  0.00    -0.491 OA
ATOM     26  C   UNL     1      -7.367  -2.286  -1.721  0.00  0.00    +0.277 C 
ENDBRANCH  23  25
BRANCH  22  27
ATOM     27  O   UNL     1      -9.607  -1.007   1.571  0.00  0.00    -0.503 OA
ATOM     28  H   UNL     1      -9.723  -1.827   2.068  0.00  0.00    +0.292 HD
ENDBRANCH  22  27
ENDBRANCH  18  19
ENDBRANCH  17  18
ENDBRANCH  10  17
TORSDOF 7
