REMARK  Name = ZINC37359061
REMARK  4 active torsions:
REMARK  status: ('A' for Active; 'I' for Inactive)
REMARK    1  A    between atoms: C_6  and  N_7
REMARK    2  A    between atoms: C_8  and  N_28
REMARK    3  A    between atoms: C_10  and  C_20
REMARK    4  A    between atoms: N_16  and  C_17
REMARK                            x       y       z     vdW  Elec       q    Type
REMARK                         _______ _______ _______ _____ _____    ______ ____
ROOT
ATOM      1  N   UNL     1      -1.376  -0.554  -0.349  0.00  0.00    -0.216 N 
ATOM      2  C   UNL     1      -1.563  -1.762  -0.915  0.00  0.00    +0.131 A 
ATOM      3  C   UNL     1      -2.816  -2.218  -0.523  0.00  0.00    +0.086 A 
ATOM      4  C   UNL     1      -3.592  -3.375  -0.760  0.00  0.00    +0.091 A 
ATOM      5  N   UNL     1      -4.789  -3.456  -0.192  0.00  0.00    -0.214 NA
ATOM      6  C   UNL     1      -5.271  -2.490   0.584  0.00  0.00    +0.218 A 
ATOM      7  N   UNL     1      -4.616  -1.379   0.856  0.00  0.00    -0.193 NA
ATOM      8  C   UNL     1      -3.388  -1.171   0.343  0.00  0.00    +0.189 A 
ATOM      9  N   UNL     1      -2.494  -0.209   0.419  0.00  0.00    -0.144 NA
ATOM     10  N   UNL     1      -6.529  -2.659   1.134  0.00  0.00    -0.311 N 
ATOM     11  H   UNL     1      -7.034  -3.466   0.950  0.00  0.00    +0.149 HD
ENDROOT
BRANCH   4  12
ATOM     12  C   UNL     1      -3.084  -4.467  -1.618  0.00  0.00    +0.037 A 
ATOM     13  C   UNL     1      -1.887  -5.111  -1.298  0.00  0.00    +0.016 A 
ATOM     14  C   UNL     1      -1.417  -6.128  -2.101  0.00  0.00    +0.039 A 
ATOM     15  C   UNL     1      -2.131  -6.513  -3.226  0.00  0.00    +0.126 A 
ATOM     16  C   UNL     1      -3.318  -5.879  -3.551  0.00  0.00    +0.077 A 
ATOM     17  C   UNL     1      -3.803  -4.862  -2.750  0.00  0.00    +0.135 A 
ATOM     18  F   UNL     1      -4.965  -4.248  -3.063  0.00  0.00    -0.205 F 
ATOM     19  F   UNL     1      -1.664  -7.510  -4.009  0.00  0.00    -0.205 F 
ENDBRANCH   4  12
BRANCH   1  25
ATOM     20  C   UNL     1      -0.341   1.621  -0.543  0.00  0.00    +0.030 A 
ATOM     21  C   UNL     1       0.790   2.399  -0.693  0.00  0.00    +0.040 A 
ATOM     22  C   UNL     1       2.034   1.800  -0.802  0.00  0.00    +0.124 A 
ATOM     23  C   UNL     1       2.147   0.420  -0.761  0.00  0.00    +0.040 A 
ATOM     24  C   UNL     1       1.018  -0.361  -0.612  0.00  0.00    +0.030 A 
ATOM     25  C   UNL     1      -0.230   0.237  -0.501  0.00  0.00    +0.068 A 
ATOM     26  F   UNL     1       3.139   2.563  -0.949  0.00  0.00    -0.205 F 
ENDBRANCH   1  25
BRANCH  10  27
ATOM     27  C   UNL     1      -7.098  -1.618   1.994  0.00  0.00    +0.073 C 
ATOM     28  C   UNL     1      -7.801  -2.068   3.276  0.00  0.00    +0.024 C 
ATOM     29  C   UNL     1      -8.622  -1.543   2.098  0.00  0.00    +0.024 C 
ENDBRANCH  10  27
BRANCH   2  30
ATOM     30  N   UNL     1      -0.672  -2.427  -1.736  0.00  0.00    -0.342 N 
ATOM     31  H   UNL     1       0.143  -1.987  -2.024  0.00  0.00    +0.144 HD
ATOM     32  H   UNL     1      -0.861  -3.334  -2.023  0.00  0.00    +0.144 HD
ENDBRANCH   2  30
TORSDOF 4
