REMARK  Name = ZINC20649317
REMARK  8 active torsions:
REMARK  status: ('A' for Active; 'I' for Inactive)
REMARK    1  A    between atoms: C_1  and  C_2
REMARK    2  A    between atoms: C_4  and  O_32
REMARK    3  A    between atoms: C_5  and  C_22
REMARK    4  A    between atoms: C_11  and  C_12
REMARK    5  A    between atoms: C_22  and  N_23
REMARK    6  A    between atoms: N_26  and  C_29
REMARK    7  A    between atoms: C_29  and  C_30
REMARK    8  A    between atoms: C_30  and  O_31
REMARK                            x       y       z     vdW  Elec       q    Type
REMARK                         _______ _______ _______ _____ _____    ______ ____
ROOT
ATOM      1  C   UNL     1       3.311   2.567  -0.063  0.00  0.00    +0.045 C 
ATOM      2  C   UNL     1       2.553   1.264  -0.050  0.00  0.00    -0.033 A 
ATOM      3  C   UNL     1       3.231   0.078  -0.021  0.00  0.00    +0.050 A 
ATOM      4  C   UNL     1       2.532  -1.126  -0.008  0.00  0.00    +0.122 A 
ATOM      5  C   UNL     1       1.147  -1.138  -0.025  0.00  0.00    +0.020 A 
ATOM      6  C   UNL     1       0.442   0.059  -0.055  0.00  0.00    +0.145 A 
ATOM      7  C   UNL     1       1.158   1.268  -0.067  0.00  0.00    +0.071 A 
ATOM      8  C   UNL     1       0.152   2.345  -0.098  0.00  0.00    +0.232 C 
ATOM      9  O   UNL     1       0.348   3.548  -0.117  0.00  0.00    -0.283 OA
ATOM     10  C   UNL     1      -1.139   1.645  -0.102  0.00  0.00    +0.179 C 
ATOM     11  C   UNL     1      -2.370   2.227  -0.132  0.00  0.00    +0.096 C 
ATOM     12  O   UNL     1      -0.883   0.316  -0.076  0.00  0.00    -0.451 OA
ENDROOT
BRANCH  11  13
ATOM     13  C   UNL     1      -3.534   1.422  -0.138  0.00  0.00    +0.133 A 
ATOM     14  C   UNL     1      -4.815   1.888  -0.162  0.00  0.00    +0.058 A 
ATOM     15  C   UNL     1      -5.665   0.754  -0.162  0.00  0.00    +0.021 A 
ATOM     16  C   UNL     1      -7.054   0.586  -0.183  0.00  0.00    +0.011 A 
ATOM     17  C   UNL     1      -7.585  -0.673  -0.172  0.00  0.00    +0.001 A 
ATOM     18  C   UNL     1      -6.756  -1.786  -0.138  0.00  0.00    +0.004 A 
ATOM     19  C   UNL     1      -5.385  -1.643  -0.117  0.00  0.00    +0.047 A 
ATOM     20  C   UNL     1      -4.822  -0.373  -0.129  0.00  0.00    +0.136 A 
ATOM     21  O   UNL     1      -3.549   0.071  -0.115  0.00  0.00    -0.455 OA
ENDBRANCH  11  13
BRANCH   4  22
ATOM     22  O   UNL     1       3.215  -2.299   0.021  0.00  0.00    -0.506 OA
ATOM     23  H   UNL     1       2.668  -3.253   0.032  0.00  0.00    +0.292 HD
ENDBRANCH   4  22
BRANCH   5  24
ATOM     24  C   UNL     1       0.404  -2.449  -0.011  0.00  0.00    -0.035 C 
BRANCH  24  25
ATOM     25  N   UNL     1       0.179  -2.899  -1.391  0.00  0.00    +0.384 N 
ATOM     26  C   UNL     1      -0.734  -1.992  -2.099  0.00  0.00    -0.063 C 
ATOM     27  C   UNL     1      -0.879  -2.450  -3.553  0.00  0.00    +0.066 C 
ATOM     28  N   UNL     1      -1.386  -3.829  -3.581  0.00  0.00    -0.304 NA
ATOM     29  C   UNL     1      -0.472  -4.737  -2.873  0.00  0.00    +0.066 C 
ATOM     30  C   UNL     1      -0.327  -4.279  -1.419  0.00  0.00    -0.063 C 
ATOM     31  H   UNL     1       1.148  -2.882  -1.913  0.00  0.00    -0.081 HD
BRANCH  28  32
ATOM     32  C   UNL     1      -1.610  -4.279  -4.961  0.00  0.00    +0.112 C 
BRANCH  32  33
ATOM     33  C   UNL     1      -2.562  -5.477  -4.958  0.00  0.00    +0.171 C 
BRANCH  33  34
ATOM     34  O   UNL     1      -3.843  -5.066  -4.473  0.00  0.00    -0.394 OA
ATOM     35  H   UNL     1      -4.662  -5.796  -4.399  0.00  0.00    +0.209 HD
ENDBRANCH  33  34
ENDBRANCH  32  33
ENDBRANCH  28  32
ENDBRANCH  24  25
ENDBRANCH   5  24
TORSDOF 7
