REMARK  Name = ZINC35914486
REMARK  6 active torsions:
REMARK  status: ('A' for Active; 'I' for Inactive)
REMARK    1  A    between atoms: C_1  and  C_2
REMARK    2  A    between atoms: C_5  and  C_23
REMARK    3  A    between atoms: C_6  and  C_8
REMARK    4  A    between atoms: C_8  and  N_9
REMARK    5  A    between atoms: N_13  and  C_16
REMARK    6  A    between atoms: C_21  and  N_22
REMARK                            x       y       z     vdW  Elec       q    Type
REMARK                         _______ _______ _______ _____ _____    ______ ____
ROOT
ATOM      1  N   UNL     1       1.275  -3.755   2.478  0.00  0.00    -0.281 N 
ATOM      2  C   UNL     1       1.750  -4.909   1.713  0.00  0.00    +0.111 C 
ATOM      3  C   UNL     1       3.276  -4.834   1.585  0.00  0.00    +0.038 C 
ATOM      4  C   UNL     1       3.879  -4.733   2.990  0.00  0.00    +0.117 C 
ATOM      5  N   UNL     1       3.289  -3.588   3.685  0.00  0.00    -0.254 N 
ATOM      6  C   UNL     1       2.047  -3.165   3.403  0.00  0.00    +0.309 C 
ATOM      7  O   UNL     1       1.602  -2.212   4.014  0.00  0.00    -0.252 OA
ENDROOT
BRANCH   5   8
ATOM      8  C   UNL     1       4.038  -2.917   4.661  0.00  0.00    +0.058 A 
ATOM      9  C   UNL     1       4.841  -1.844   4.306  0.00  0.00    +0.025 A 
ATOM     10  C   UNL     1       5.579  -1.184   5.270  0.00  0.00    +0.002 A 
ATOM     11  C   UNL     1       5.519  -1.589   6.591  0.00  0.00    +0.002 A 
ATOM     12  C   UNL     1       4.721  -2.657   6.954  0.00  0.00    +0.024 A 
ATOM     13  C   UNL     1       3.972  -3.322   5.994  0.00  0.00    +0.046 A 
BRANCH  13  14
ATOM     14  N   UNL     1       3.159  -4.400   6.361  0.00  0.00    -0.357 N 
ATOM     15  H   UNL     1       2.639  -4.866   5.687  0.00  0.00    +0.142 HD
ATOM     16  H   UNL     1       3.114  -4.680   7.288  0.00  0.00    +0.142 HD
ENDBRANCH  13  14
ENDBRANCH   5   8
BRANCH   1  17
ATOM     17  C   UNL     1      -0.068  -3.229   2.223  0.00  0.00    +0.144 C 
BRANCH  17  23
ATOM     18  C   UNL     1       2.611  -0.428  -0.942  0.00  0.00    +0.044 C 
ATOM     19  C   UNL     1       1.277  -0.858  -0.388  0.00  0.00    -0.050 A 
ATOM     20  C   UNL     1       0.112  -0.306  -0.886  0.00  0.00    +0.003 A 
ATOM     21  C   UNL     1      -1.112  -0.699  -0.378  0.00  0.00    +0.004 A 
ATOM     22  C   UNL     1      -1.170  -1.646   0.628  0.00  0.00    -0.046 A 
ATOM     23  C   UNL     1      -0.005  -2.198   1.126  0.00  0.00    -0.027 A 
ATOM     24  C   UNL     1       1.219  -1.807   0.615  0.00  0.00    +0.008 A 
ATOM     25  C   UNL     1      -2.504  -2.074   1.183  0.00  0.00    +0.044 C 
ENDBRANCH  17  23
ENDBRANCH   1  17
TORSDOF 4
