REMARK  Name = ZINC62997986
REMARK  5 active torsions:
REMARK  status: ('A' for Active; 'I' for Inactive)
REMARK    1  A    between atoms: C_1  and  C_2
REMARK    2  A    between atoms: C_4  and  N_21
REMARK    3  A    between atoms: C_5  and  C_20
REMARK    4  A    between atoms: C_7  and  O_8
REMARK    5  A    between atoms: O_8  and  C_9
REMARK                            x       y       z     vdW  Elec       q    Type
REMARK                         _______ _______ _______ _____ _____    ______ ____
ROOT
ATOM      1  O   UNL     1       0.025  -0.030   2.381  0.00  0.00    -0.436 OA
ENDROOT
BRANCH   1   2
ATOM      2  C   UNL     1       1.215   0.387   2.871  0.00  0.00    +0.249 C 
ATOM      3  N   UNL     1       2.296   0.234   2.179  0.00  0.00    -0.090 NA
ATOM      4  S   UNL     1       3.531   0.866   3.116  0.00  0.00    +0.103 S 
ATOM      5  O   UNL     1       4.368  -0.212   3.513  0.00  0.00    -0.146 OA
ATOM      6  O   UNL     1       4.014   2.034   2.466  0.00  0.00    -0.146 OA
ATOM      7  C   UNL     1       2.603   1.381   4.535  0.00  0.00    +0.125 A 
ATOM      8  C   UNL     1       1.290   1.022   4.195  0.00  0.00    +0.065 A 
ATOM      9  C   UNL     1       0.282   1.305   5.129  0.00  0.00    +0.015 A 
ATOM     10  C   UNL     1       0.593   1.917   6.323  0.00  0.00    +0.001 A 
ATOM     11  C   UNL     1       1.897   2.263   6.628  0.00  0.00    +0.002 A 
ATOM     12  C   UNL     1       2.909   1.982   5.720  0.00  0.00    +0.030 A 
ENDBRANCH   1   2
BRANCH   1  19
ATOM     13  C   UNL     1      -0.084   1.539   0.036  0.00  0.00    +0.047 C 
ATOM     14  C   UNL     1      -0.032   0.034   0.003  0.00  0.00    -0.006 A 
ATOM     15  C   UNL     1      -0.030  -0.631  -1.208  0.00  0.00    +0.030 A 
ATOM     16  C   UNL     1       0.018  -2.018  -1.238  0.00  0.00    +0.028 A 
ATOM     17  C   UNL     1       0.064  -2.737  -0.050  0.00  0.00    -0.026 A 
ATOM     18  C   UNL     1       0.063  -2.071   1.159  0.00  0.00    +0.051 A 
ATOM     19  C   UNL     1       0.021  -0.685   1.189  0.00  0.00    +0.134 A 
ATOM     20  C   UNL     1       0.116  -4.243  -0.082  0.00  0.00    +0.046 C 
BRANCH  16  21
ATOM     21  N   UNL     1       0.018  -2.692  -2.464  0.00  0.00    -0.358 N 
ATOM     22  H   UNL     1      -0.014  -2.190  -3.293  0.00  0.00    +0.142 HD
ATOM     23  H   UNL     1       0.052  -3.661  -2.485  0.00  0.00    +0.142 HD
ENDBRANCH  16  21
ENDBRANCH   1  19
TORSDOF 3
