REMARK  Name = ZINC45573665
REMARK  5 active torsions:
REMARK  status: ('A' for Active; 'I' for Inactive)
REMARK    1  A    between atoms: C_1  and  C_2
REMARK    2  A    between atoms: C_5  and  O_23
REMARK    3  A    between atoms: C_6  and  C_8
REMARK    4  A    between atoms: N_13  and  C_16
REMARK    5  A    between atoms: C_21  and  O_22
REMARK                            x       y       z     vdW  Elec       q    Type
REMARK                         _______ _______ _______ _____ _____    ______ ____
ROOT
ATOM      1  C   UNL     1       0.053  -2.841   2.459  0.00  0.00    +0.250 C 
ATOM      2  O   UNL     1       0.116  -2.224   1.413  0.00  0.00    -0.270 OA
ATOM      3  N   UNL     1      -0.051  -2.177   3.627  0.00  0.00    -0.294 N 
ATOM      4  C   UNL     1      -0.189  -0.714   3.647  0.00  0.00    +0.127 C 
ATOM      5  C   UNL     1      -1.452  -0.351   4.438  0.00  0.00    +0.124 C 
ATOM      6  N   UNL     1      -1.431  -1.078   5.715  0.00  0.00    -0.324 N 
ATOM      7  C   UNL     1      -1.294  -2.541   5.695  0.00  0.00    +0.124 C 
ATOM      8  C   UNL     1      -0.037  -2.905   4.904  0.00  0.00    +0.127 C 
ENDROOT
BRANCH   1  14
ATOM      9  C   UNL     1       2.104  -7.111   4.016  0.00  0.00    +0.044 C 
ATOM     10  C   UNL     1       1.076  -6.376   3.195  0.00  0.00    -0.050 A 
ATOM     11  C   UNL     1       0.166  -7.088   2.431  0.00  0.00    +0.007 A 
ATOM     12  C   UNL     1      -0.780  -6.426   1.674  0.00  0.00    +0.046 A 
ATOM     13  C   UNL     1      -0.826  -5.040   1.676  0.00  0.00    +0.129 A 
ATOM     14  C   UNL     1       0.092  -4.316   2.449  0.00  0.00    +0.078 A 
ATOM     15  C   UNL     1       1.042  -4.999   3.213  0.00  0.00    +0.020 A 
BRANCH  13  16
ATOM     16  O   UNL     1      -1.755  -4.387   0.933  0.00  0.00    -0.506 OA
ATOM     17  H   UNL     1      -2.584  -4.218   1.401  0.00  0.00    +0.292 HD
ENDBRANCH  13  16
ENDBRANCH   1  14
BRANCH   6  18
ATOM     18  C   UNL     1      -1.540  -0.389   6.928  0.00  0.00    +0.072 A 
ATOM     19  C   UNL     1      -2.788  -0.163   7.490  0.00  0.00    +0.027 A 
ATOM     20  C   UNL     1      -2.893   0.517   8.689  0.00  0.00    +0.002 A 
ATOM     21  C   UNL     1      -1.757   0.974   9.331  0.00  0.00    +0.004 A 
ATOM     22  C   UNL     1      -0.509   0.752   8.777  0.00  0.00    +0.047 A 
ATOM     23  C   UNL     1      -0.395   0.066   7.578  0.00  0.00    +0.138 A 
BRANCH  23  24
ATOM     24  O   UNL     1       0.832  -0.157   7.035  0.00  0.00    -0.505 OA
ATOM     25  H   UNL     1       1.131   0.543   6.439  0.00  0.00    +0.292 HD
ENDBRANCH  23  24
ENDBRANCH   6  18
TORSDOF 4
