REMARK  Name = ZINC36233054
REMARK  1 active torsions:
REMARK  status: ('A' for Active; 'I' for Inactive)
REMARK    1  A    between atoms: C_2  and  C_9
REMARK                            x       y       z     vdW  Elec       q    Type
REMARK                         _______ _______ _______ _____ _____    ______ ____
ROOT
ATOM      1  C   UNL     1       1.171   3.566   0.009  0.00  0.00    +0.250 C 
ATOM      2  O   UNL     1       0.113   4.164   0.022  0.00  0.00    -0.270 OA
ATOM      3  N   UNL     1       2.332   4.250   0.002  0.00  0.00    -0.261 N 
ATOM      4  C   UNL     1       2.320   5.639   0.009  0.00  0.00    +0.165 A 
ATOM      5  N   UNL     1       1.282   6.447   0.029  0.00  0.00    -0.229 NA
ATOM      6  C   UNL     1       1.423   7.767   0.033  0.00  0.00    +0.050 A 
ATOM      7  C   UNL     1       2.709   8.208   0.014  0.00  0.00    -0.003 A 
ATOM      8  S   UNL     1       3.632   6.698   0.002  0.00  0.00    -0.059 S 
ATOM      9  C   UNL     1       3.170   9.624   0.008  0.00  0.00    -0.037 C 
ATOM     10  N   UNL     1       2.021  10.481  -0.346  0.00  0.00    +0.382 N 
ATOM     11  C   UNL     1       0.868  10.129   0.493  0.00  0.00    -0.076 C 
ATOM     12  C   UNL     1       0.285   8.780   0.062  0.00  0.00    +0.037 C 
ATOM     13  H   UNL     1       3.177   3.773  -0.008  0.00  0.00    +0.157 HD
ATOM     14  H   UNL     1       2.265  11.449  -0.194  0.00  0.00    -0.085 HD
ATOM     15  H   UNL     1       1.785  10.343  -1.317  0.00  0.00    -0.085 HD
ENDROOT
BRANCH   1  17
ATOM     16  C   UNL     1      -0.017   1.377   0.010  0.00  0.00    +0.033 A 
ATOM     17  C   UNL     1       1.184   2.088   0.002  0.00  0.00    +0.040 A 
ATOM     18  C   UNL     1       2.397   1.398  -0.013  0.00  0.00    +0.033 A 
ATOM     19  C   UNL     1       2.403   0.017  -0.021  0.00  0.00    +0.043 A 
ATOM     20  C   UNL     1       1.209  -0.683  -0.014  0.00  0.00    +0.040 A 
ATOM     21  C   UNL     1       0.002  -0.004   0.002  0.00  0.00    +0.043 A 
ATOM     22 CL   UNL     1      -1.490  -0.891   0.012  0.00  0.00    -0.083 Cl
ATOM     23 CL   UNL     1       3.911  -0.843  -0.040  0.00  0.00    -0.083 Cl
ENDBRANCH   1  17
TORSDOF 1
