REMARK  Name = ZINC63780703
REMARK  5 active torsions:
REMARK  status: ('A' for Active; 'I' for Inactive)
REMARK    1  A    between atoms: C_1  and  C_2
REMARK    2  A    between atoms: C_2  and  C_3
REMARK    3  A    between atoms: C_10  and  C_12
REMARK    4  A    between atoms: C_12  and  C_13
REMARK    5  A    between atoms: C_13  and  C_14
REMARK                            x       y       z     vdW  Elec       q    Type
REMARK                         _______ _______ _______ _____ _____    ______ ____
ROOT
ATOM      1  C   UNL     1       0.718  -0.497  -1.257  0.00  0.00    +0.153 C 
ATOM      2  N   UNL     1       0.743  -1.976  -1.318  0.00  0.00    -0.253 N 
ATOM      3  N   UNL     1       1.997  -2.544  -1.296  0.00  0.00    -0.163 NA
ATOM      4  C   UNL     1       3.091  -1.851  -1.226  0.00  0.00    +0.179 C 
ATOM      5  S   UNL     1       2.525  -0.157  -1.177  0.00  0.00    -0.065 S 
ATOM      6  N   UNL     1       4.402  -2.319  -1.198  0.00  0.00    -0.264 N 
ATOM      7  C   UNL     1       4.646  -3.643  -1.245  0.00  0.00    +0.219 C 
ATOM      8  O   UNL     1       3.724  -4.428  -1.312  0.00  0.00    -0.275 OA
ATOM      9  H   UNL     1      -0.067  -2.508  -1.371  0.00  0.00    +0.169 HD
ATOM     10  H   UNL     1       5.139  -1.691  -1.144  0.00  0.00    +0.157 HD
ENDROOT
BRANCH   1  12
ATOM     11  C   UNL     1      -0.019   1.526   0.010  0.00  0.00    +0.006 C 
ATOM     12  C   UNL     1       0.002  -0.004   0.002  0.00  0.00    +0.032 C 
ENDBRANCH   1  12
BRANCH   7  13
ATOM     13  C   UNL     1       6.065  -4.149  -1.213  0.00  0.00    +0.100 C 
BRANCH  13  14
ATOM     14  C   UNL     1       6.063  -5.678  -1.278  0.00  0.00    +0.042 C 
BRANCH  14  15
ATOM     15  C   UNL     1       7.482  -6.184  -1.247  0.00  0.00    -0.041 C 
ATOM     16  C   UNL     1       8.175  -6.596  -0.161  0.00  0.00    -0.001 A 
ATOM     17  C   UNL     1       7.828  -6.692   1.262  0.00  0.00    +0.010 A 
ATOM     18  C   UNL     1       8.754  -7.153   2.133  0.00  0.00    +0.001 A 
ATOM     19  C   UNL     1      10.034  -7.540   1.712  0.00  0.00    +0.002 A 
ATOM     20  C   UNL     1      10.426  -7.481   0.422  0.00  0.00    +0.026 A 
ATOM     21  C   UNL     1       9.533  -7.012  -0.580  0.00  0.00    +0.043 A 
ATOM     22  N   UNL     1       9.674  -6.862  -1.875  0.00  0.00    -0.380 N 
ATOM     23  C   UNL     1       8.418  -6.340  -2.425  0.00  0.00    +0.144 C 
ATOM     24  H   UNL     1      10.473  -7.066  -2.384  0.00  0.00    +0.160 HD
ENDBRANCH  14  15
ENDBRANCH  13  14
ENDBRANCH   7  13
TORSDOF 4
