REMARK  Name = ZINC00570492
REMARK  4 active torsions:
REMARK  status: ('A' for Active; 'I' for Inactive)
REMARK    1  A    between atoms: C_1  and  O_2
REMARK    2  A    between atoms: O_2  and  C_3
REMARK    3  A    between atoms: C_5  and  N_20
REMARK    4  A    between atoms: C_8  and  N_9
REMARK                            x       y       z     vdW  Elec       q    Type
REMARK                         _______ _______ _______ _____ _____    ______ ____
ROOT
ATOM      1  C   UNL     1      -2.459   3.712   0.033  0.00  0.00    +0.144 A 
ATOM      2  C   UNL     1      -1.250   3.037   0.030  0.00  0.00    +0.070 A 
ATOM      3  C   UNL     1      -1.232   1.649   0.017  0.00  0.00    +0.028 A 
ATOM      4  C   UNL     1      -2.425   0.938   0.019  0.00  0.00    +0.025 A 
ATOM      5  C   UNL     1      -3.632   1.610   0.028  0.00  0.00    +0.029 A 
ATOM      6  C   UNL     1      -3.654   2.996   0.035  0.00  0.00    +0.086 A 
ENDROOT
BRANCH   6   7
ATOM      7  N   UNL     1      -4.883   3.679   0.044  0.00  0.00    -0.199 N 
ATOM      8  C   UNL     1      -5.550   4.060  -1.061  0.00  0.00    +0.258 C 
ATOM      9  O   UNL     1      -5.191   3.871  -2.206  0.00  0.00    -0.269 OA
ATOM     10  C   UNL     1      -6.793   4.744  -0.648  0.00  0.00    +0.050 A 
ATOM     11  C   UNL     1      -7.847   5.331  -1.329  0.00  0.00    +0.014 A 
ATOM     12  C   UNL     1      -8.888   5.909  -0.619  0.00  0.00    +0.001 A 
ATOM     13  C   UNL     1      -8.883   5.901   0.763  0.00  0.00    +0.001 A 
ATOM     14  C   UNL     1      -7.835   5.318   1.458  0.00  0.00    +0.014 A 
ATOM     15  C   UNL     1      -6.787   4.737   0.762  0.00  0.00    +0.050 A 
ATOM     16  C   UNL     1      -5.543   4.043   1.158  0.00  0.00    +0.258 C 
ATOM     17  O   UNL     1      -5.178   3.838   2.298  0.00  0.00    -0.269 OA
ENDBRANCH   6   7
BRANCH   3  18
ATOM     18  N   UNL     1      -0.011   0.966   0.007  0.00  0.00    -0.358 N 
ATOM     19  H   UNL     1       0.002  -0.004   0.002  0.00  0.00    +0.142 HD
ATOM     20  H   UNL     1       0.822   1.462   0.002  0.00  0.00    +0.142 HD
ENDBRANCH   3  18
BRANCH   1  22
ATOM     21  C   UNL     1      -1.217   5.739   0.039  0.00  0.00    +0.277 C 
ATOM     22  O   UNL     1      -2.480   5.071   0.041  0.00  0.00    -0.493 OA
ENDBRANCH   1  22
TORSDOF 3
