REMARK  Name = ZINC61406112
REMARK  7 active torsions:
REMARK  status: ('A' for Active; 'I' for Inactive)
REMARK    1  A    between atoms: C_1  and  C_2
REMARK    2  A    between atoms: C_2  and  C_3
REMARK    3  A    between atoms: C_3  and  C_5
REMARK    4  A    between atoms: C_3  and  N_22
REMARK    5  A    between atoms: C_5  and  C_7
REMARK    6  A    between atoms: C_5  and  S_12
REMARK    7  A    between atoms: S_12  and  C_13
REMARK                            x       y       z     vdW  Elec       q    Type
REMARK                         _______ _______ _______ _____ _____    ______ ____
ROOT
ATOM      1  C   UNL     1       0.630  -2.023  -1.329  0.00  0.00    +0.106 C 
ENDROOT
BRANCH   1   2
ATOM      2  C   UNL     1       1.391  -2.625  -0.175  0.00  0.00    +0.117 A 
ATOM      3  C   UNL     1       0.875  -3.423   0.776  0.00  0.00    +0.046 A 
ATOM      4  C   UNL     1       1.934  -3.754   1.653  0.00  0.00    +0.041 A 
ATOM      5  C   UNL     1       3.034  -3.138   1.184  0.00  0.00    +0.195 A 
ATOM      6  O   UNL     1       2.701  -2.460   0.073  0.00  0.00    -0.467 OA
ENDBRANCH   1   2
BRANCH   1   7
ATOM      7  C   UNL     1       0.718  -0.497  -1.257  0.00  0.00    -0.054 C 
BRANCH   7   8
ATOM      8  N   UNL     1       2.129  -0.090  -1.209  0.00  0.00    +0.381 N 
ATOM      9  H   UNL     1       2.187   0.916  -1.162  0.00  0.00    -0.090 HD
ATOM     10  H   UNL     1       2.567  -0.491  -0.394  0.00  0.00    -0.090 HD
ATOM     11  H   UNL     1       2.601  -0.415  -2.039  0.00  0.00    -0.090 HD
ENDBRANCH   7   8
BRANCH   7  13
ATOM     12  C   UNL     1      -0.019   1.526   0.010  0.00  0.00    +0.002 C 
ATOM     13  C   UNL     1       0.002  -0.004   0.002  0.00  0.00    -0.018 C 
ENDBRANCH   7  13
ENDBRANCH   1   7
BRANCH   1  14
ATOM     14  S   UNL     1       1.349  -2.597  -2.892  0.00  0.00    -0.076 S 
BRANCH  14  15
ATOM     15  C   UNL     1       1.042  -4.332  -2.891  0.00  0.00    +0.197 A 
ATOM     16  N   UNL     1       0.423  -5.013  -1.952  0.00  0.00    -0.122 NA
ATOM     17  N   UNL     1       0.369  -6.259  -2.266  0.00  0.00    -0.129 NA
ATOM     18  C   UNL     1       0.955  -6.450  -3.434  0.00  0.00    +0.162 A 
ATOM     19  N   UNL     1       1.397  -5.217  -3.866  0.00  0.00    -0.278 N 
ATOM     20  C   UNL     1       2.047  -5.095  -5.063  0.00  0.00    +0.095 A 
ATOM     21  C   UNL     1       2.261  -6.178  -5.837  0.00  0.00    +0.018 A 
ATOM     22  C   UNL     1       1.819  -7.448  -5.424  0.00  0.00    +0.005 A 
ATOM     23  C   UNL     1       1.179  -7.588  -4.234  0.00  0.00    +0.049 A 
ENDBRANCH  14  15
ENDBRANCH   1  14
TORSDOF 6
