REMARK  Name = ZINC09829614
REMARK  9 active torsions:
REMARK  status: ('A' for Active; 'I' for Inactive)
REMARK    1  A    between atoms: C_1  and  C_2
REMARK    2  A    between atoms: C_5  and  C_8
REMARK    3  A    between atoms: C_8  and  N_9
REMARK    4  A    between atoms: C_10  and  C_12
REMARK    5  A    between atoms: N_14  and  C_15
REMARK    6  A    between atoms: C_15  and  C_16
REMARK    7  A    between atoms: C_16  and  C_18
REMARK    8  A    between atoms: C_16  and  N_63
REMARK    9  A    between atoms: N_25  and  C_28
REMARK                            x       y       z     vdW  Elec       q    Type
REMARK                         _______ _______ _______ _____ _____    ______ ____
ROOT
ATOM      1  C   UNL     1       1.219  -7.814  -4.592  0.00  0.00    +0.017 C 
ENDROOT
BRANCH   1   7
ATOM      2  C   UNL     1      -0.043  -7.503  -2.549  0.00  0.00    -0.059 C 
ATOM      3  C   UNL     1      -1.322  -7.909  -1.813  0.00  0.00    +0.086 C 
ATOM      4  N   UNL     1      -1.311  -9.361  -1.583  0.00  0.00    -0.331 N 
ATOM      5  C   UNL     1      -1.227 -10.092  -2.856  0.00  0.00    +0.086 C 
ATOM      6  C   UNL     1       0.052  -9.685  -3.591  0.00  0.00    -0.059 C 
ATOM      7  N   UNL     1       0.018  -8.228  -3.835  0.00  0.00    +0.389 N 
ATOM      8  H   UNL     1      -0.818  -8.001  -4.386  0.00  0.00    -0.081 HD
BRANCH   4   9
ATOM      9  C   UNL     1      -2.432  -9.760  -0.849  0.00  0.00    +0.065 A 
ATOM     10  C   UNL     1      -2.574 -11.086  -0.462  0.00  0.00    +0.026 A 
ATOM     11  C   UNL     1      -3.681 -11.477   0.267  0.00  0.00    +0.002 A 
ATOM     12  C   UNL     1      -4.652 -10.552   0.604  0.00  0.00    +0.003 A 
ATOM     13  C   UNL     1      -4.517  -9.231   0.216  0.00  0.00    +0.040 A 
ATOM     14  C   UNL     1      -3.410  -8.832  -0.510  0.00  0.00    +0.144 A 
ATOM     15  F   UNL     1      -3.279  -7.542  -0.889  0.00  0.00    -0.204 F 
ENDBRANCH   4   9
ENDBRANCH   1   7
BRANCH   1  16
ATOM     16  C   UNL     1       1.255  -8.562  -5.900  0.00  0.00    +0.093 A 
ATOM     17  C   UNL     1       2.357  -9.056  -6.494  0.00  0.00    +0.043 A 
ATOM     18  C   UNL     1       1.933  -9.678  -7.691  0.00  0.00    +0.041 A 
ATOM     19  C   UNL     1       0.599  -9.520  -7.761  0.00  0.00    +0.195 A 
ATOM     20  O   UNL     1       0.194  -8.843  -6.674  0.00  0.00    -0.469 OA
ENDBRANCH   1  16
BRANCH   1  21
ATOM     21  C   UNL     1       1.140  -6.311  -4.866  0.00  0.00    +0.097 C 
BRANCH  21  24
ATOM     22  C   UNL     1      -0.388  -4.745  -5.939  0.00  0.00    +0.299 C 
ATOM     23  O   UNL     1       0.447  -3.876  -5.793  0.00  0.00    -0.265 OA
ATOM     24  N   UNL     1      -0.139  -5.998  -5.509  0.00  0.00    -0.309 N 
ATOM     25  H   UNL     1      -0.806  -6.692  -5.625  0.00  0.00    +0.149 HD
BRANCH  22  27
ATOM     26  N   UNL     1      -1.942  -3.173  -7.024  0.00  0.00    -0.303 N 
ATOM     27  C   UNL     1      -1.693  -4.426  -6.594  0.00  0.00    +0.299 C 
ATOM     28  O   UNL     1      -2.527  -5.295  -6.739  0.00  0.00    -0.265 OA
ATOM     29  H   UNL     1      -1.275  -2.479  -6.908  0.00  0.00    +0.149 HD
BRANCH  26  30
ATOM     30  C   UNL     1      -3.221  -2.860  -7.666  0.00  0.00    +0.140 C 
BRANCH  30  35
ATOM     31  C   UNL     1      -3.323   2.727  -9.139  0.00  0.00    +0.044 C 
ATOM     32  C   UNL     1      -3.297   1.270  -8.755  0.00  0.00    -0.050 A 
ATOM     33  C   UNL     1      -2.815   0.329  -9.645  0.00  0.00    +0.003 A 
ATOM     34  C   UNL     1      -2.790  -1.008  -9.293  0.00  0.00    +0.005 A 
ATOM     35  C   UNL     1      -3.247  -1.403  -8.050  0.00  0.00    -0.030 A 
ATOM     36  C   UNL     1      -3.729  -0.462  -7.159  0.00  0.00    +0.005 A 
ATOM     37  C   UNL     1      -3.753   0.874  -7.511  0.00  0.00    +0.003 A 
ENDBRANCH  30  35
ENDBRANCH  26  30
ENDBRANCH  22  27
ENDBRANCH  21  24
ENDBRANCH   1  21
TORSDOF 8
