REMARK  Name = ZINC39693361
REMARK  10 active torsions:
REMARK  status: ('A' for Active; 'I' for Inactive)
REMARK    1  A    between atoms: C_1  and  C_2
REMARK    2  A    between atoms: C_6  and  C_15
REMARK    3  A    between atoms: N_17  and  C_18
REMARK    4  A    between atoms: C_18  and  C_19
REMARK    5  A    between atoms: C_19  and  N_20
REMARK    6  A    between atoms: C_21  and  O_23
REMARK    7  A    between atoms: O_23  and  C_24
REMARK    8  A    between atoms: C_24  and  C_25
REMARK    9  A    between atoms: C_24  and  C_26
REMARK   10  A    between atoms: C_24  and  C_27
REMARK                            x       y       z     vdW  Elec       q    Type
REMARK                         _______ _______ _______ _____ _____    ______ ____
ROOT
ATOM      1  C   UNL     1      -0.137   1.761  -0.239  0.00  0.00    +0.109 C 
ATOM      2  C   UNL     1      -0.115   0.259  -0.125  0.00  0.00    +0.212 C 
ATOM      3  O   UNL     1      -0.132  -0.267   0.968  0.00  0.00    -0.276 OA
ATOM      4  N   UNL     1      -0.075  -0.501  -1.237  0.00  0.00    -0.300 N 
ATOM      5  C   UNL     1      -0.043  -0.046  -2.647  0.00  0.00    +0.121 C 
ATOM      6  C   UNL     1       0.936  -1.015  -3.348  0.00  0.00    +0.100 C 
ATOM      7  C   UNL     1       0.922  -2.283  -2.478  0.00  0.00    -0.004 C 
ATOM      8  C   UNL     1      -0.048  -1.981  -1.327  0.00  0.00    +0.115 C 
ATOM      9  C   UNL     1       2.317  -2.560  -1.925  0.00  0.00    -0.010 C 
ATOM     10  C   UNL     1       2.290  -3.856  -1.110  0.00  0.00    -0.082 C 
ATOM     11  N   UNL     1       1.852  -4.965  -1.967  0.00  0.00    +0.379 N 
ATOM     12  C   UNL     1       0.475  -4.735  -2.419  0.00  0.00    -0.082 C 
ATOM     13  C   UNL     1       0.425  -3.476  -3.289  0.00  0.00    -0.010 C 
ATOM     14  H   UNL     1       2.462  -5.030  -2.768  0.00  0.00    -0.086 HD
ATOM     15  H   UNL     1       1.894  -5.828  -1.445  0.00  0.00    -0.086 HD
ENDROOT
BRANCH   6  16
ATOM     16  C   UNL     1       2.320  -0.422  -3.393  0.00  0.00    +0.218 C 
ATOM     17  O   UNL     1       2.684   0.336  -2.518  0.00  0.00    -0.275 OA
ATOM     18  N   UNL     1       3.154  -0.733  -4.405  0.00  0.00    -0.314 N 
ATOM     19  H   UNL     1       2.863  -1.338  -5.104  0.00  0.00    +0.149 HD
BRANCH  18  20
ATOM     20  C   UNL     1       4.500  -0.156  -4.448  0.00  0.00    +0.123 C 
BRANCH  20  21
ATOM     21  C   UNL     1       5.234  -0.667  -5.690  0.00  0.00    +0.126 C 
BRANCH  21  22
ATOM     22  N   UNL     1       6.580  -0.090  -5.733  0.00  0.00    -0.280 N 
ATOM     23  C   UNL     1       7.414  -0.401  -6.745  0.00  0.00    +0.401 C 
ATOM     24  O   UNL     1       7.049  -1.160  -7.622  0.00  0.00    -0.226 OA
ATOM     25  H   UNL     1       6.871   0.515  -5.034  0.00  0.00    +0.152 HD
BRANCH  23  26
ATOM     26  O   UNL     1       8.651   0.129  -6.785  0.00  0.00    -0.445 OA
BRANCH  26  27
ATOM     27  C   UNL     1       9.481  -0.244  -7.887  0.00  0.00    +0.107 C 
ATOM     28  C   UNL     1       8.811   0.177  -9.197  0.00  0.00    +0.055 C 
ATOM     29  C   UNL     1      10.838   0.452  -7.762  0.00  0.00    +0.055 C 
ATOM     30  C   UNL     1       9.684  -1.760  -7.882  0.00  0.00    +0.055 C 
ENDBRANCH  26  27
ENDBRANCH  23  26
ENDBRANCH  21  22
ENDBRANCH  20  21
ENDBRANCH  18  20
ENDBRANCH   6  16
TORSDOF 6
