REMARK  Name = ZINC49631370
REMARK  6 active torsions:
REMARK  status: ('A' for Active; 'I' for Inactive)
REMARK    1  A    between atoms: N_3  and  C_6
REMARK    2  A    between atoms: C_6  and  C_7
REMARK    3  A    between atoms: C_7  and  N_8
REMARK    4  A    between atoms: N_8  and  S_9
REMARK    5  A    between atoms: S_9  and  C_12
REMARK    6  A    between atoms: C_12  and  C_13
REMARK                            x       y       z     vdW  Elec       q    Type
REMARK                         _______ _______ _______ _____ _____    ______ ____
ROOT
ATOM      1  S   UNL     1       6.355   0.956   2.775  0.00  0.00    +0.028 S 
ATOM      2  O   UNL     1       7.721   0.867   2.394  0.00  0.00    -0.158 OA
ATOM      3  O   UNL     1       5.809   2.186   3.231  0.00  0.00    -0.158 OA
ENDROOT
BRANCH   1   4
ATOM      4  N   UNL     1       5.509   0.604   1.395  0.00  0.00    -0.193 NA
ATOM      5  H   UNL     1       5.983   0.384   0.578  0.00  0.00    +0.148 HD
BRANCH   4   6
ATOM      6  C   UNL     1       4.044   0.624   1.409  0.00  0.00    +0.127 C 
BRANCH   6   7
ATOM      7  C   UNL     1       3.521   0.638  -0.028  0.00  0.00    +0.139 C 
BRANCH   7  10
ATOM      8  C   UNL     1      -0.016   1.337   0.009  0.00  0.00    +0.101 A 
ATOM      9  C   UNL     1       1.259   1.771  -0.000  0.00  0.00    +0.104 A 
ATOM     10  N   UNL     1       2.056   0.658  -0.014  0.00  0.00    -0.337 N 
ATOM     11  C   UNL     1       1.240  -0.418  -0.012  0.00  0.00    +0.173 A 
ATOM     12  N   UNL     1       0.002  -0.004   0.002  0.00  0.00    -0.352 N 
ATOM     13  H   UNL     1      -0.781  -0.576   0.007  0.00  0.00    +0.166 HD
ENDBRANCH   7  10
ENDBRANCH   6   7
ENDBRANCH   4   6
ENDBRANCH   1   4
BRANCH   1  14
ATOM     14  C   UNL     1       5.940  -0.379   3.930  0.00  0.00    +0.169 C 
BRANCH  14  15
ATOM     15  C   UNL     1       6.673  -0.154   5.254  0.00  0.00    -0.049 C 
ATOM     16  C   UNL     1       6.423  -1.343   6.183  0.00  0.00    -0.014 C 
ATOM     17  C   UNL     1       7.160  -1.114   7.506  0.00  0.00    -0.003 C 
ATOM     18  C   UNL     1       6.690   0.209   8.118  0.00  0.00    -0.019 C 
ATOM     19  C   UNL     1       6.930   1.341   7.117  0.00  0.00    -0.082 C 
ATOM     20  N   UNL     1       6.179   1.076   5.884  0.00  0.00    +0.382 N 
ATOM     21  H   UNL     1       6.296   1.850   5.248  0.00  0.00    -0.085 HD
ATOM     22  H   UNL     1       5.200   0.969   6.104  0.00  0.00    -0.085 HD
ENDBRANCH  14  15
ENDBRANCH   1  14
TORSDOF 6
