REMARK  Name = ZINC03040724
REMARK  6 active torsions:
REMARK  status: ('A' for Active; 'I' for Inactive)
REMARK    1  A    between atoms: C_1  and  C_2
REMARK    2  A    between atoms: C_2  and  O_3
REMARK    3  A    between atoms: O_3  and  C_4
REMARK    4  A    between atoms: C_7  and  C_10
REMARK    5  A    between atoms: C_14  and  C_16
REMARK    6  A    between atoms: C_21  and  O_22
REMARK                            x       y       z     vdW  Elec       q    Type
REMARK                         _______ _______ _______ _____ _____    ______ ____
ROOT
ATOM      1  C   UNL     1       1.144  -6.059   1.764  0.00  0.00    +0.182 C 
ATOM      2  N   UNL     1       2.326  -6.419   2.580  0.00  0.00    -0.250 N 
ATOM      3  N   UNL     1       2.048  -7.072   3.760  0.00  0.00    -0.178 NA
ATOM      4  C   UNL     1       0.841  -7.362   4.147  0.00  0.00    +0.127 C 
ATOM      5  S   UNL     1      -0.195  -6.727   2.836  0.00  0.00    -0.075 S 
ATOM      6  H   UNL     1       3.232  -6.209   2.304  0.00  0.00    +0.170 HD
ENDROOT
BRANCH   1  10
ATOM      7  C   UNL     1       0.802  -1.824   1.306  0.00  0.00    +0.121 A 
ATOM      8  C   UNL     1       0.260  -2.673   0.351  0.00  0.00    +0.046 A 
ATOM      9  C   UNL     1       0.372  -4.041   0.502  0.00  0.00    +0.010 A 
ATOM     10  C   UNL     1       1.024  -4.566   1.603  0.00  0.00    -0.015 A 
ATOM     11  C   UNL     1       1.565  -3.722   2.555  0.00  0.00    +0.010 A 
ATOM     12  C   UNL     1       1.460  -2.353   2.406  0.00  0.00    +0.046 A 
BRANCH   7  13
ATOM     13  O   UNL     1       0.693  -0.477   1.160  0.00  0.00    -0.492 OA
BRANCH  13  15
ATOM     14  C   UNL     1      -0.019   1.526   0.010  0.00  0.00    +0.048 C 
ATOM     15  C   UNL     1       0.002  -0.004   0.002  0.00  0.00    +0.225 C 
ENDBRANCH  13  15
ENDBRANCH   7  13
ENDBRANCH   1  10
BRANCH   4  16
ATOM     16  C   UNL     1       0.422  -8.055   5.383  0.00  0.00    +0.050 A 
ATOM     17  C   UNL     1      -0.931  -8.287   5.633  0.00  0.00    +0.014 A 
ATOM     18  C   UNL     1      -1.315  -8.935   6.788  0.00  0.00    +0.001 A 
ATOM     19  C   UNL     1      -0.364  -9.356   7.702  0.00  0.00    +0.004 A 
ATOM     20  C   UNL     1       0.979  -9.130   7.466  0.00  0.00    +0.046 A 
ATOM     21  C   UNL     1       1.382  -8.486   6.307  0.00  0.00    +0.127 A 
BRANCH  21  22
ATOM     22  O   UNL     1       2.702  -8.270   6.071  0.00  0.00    -0.506 OA
ATOM     23  H   UNL     1       3.031  -7.430   6.421  0.00  0.00    +0.292 HD
ENDBRANCH  21  22
ENDBRANCH   4  16
TORSDOF 5
