REMARK  Name = ZINC66565275
REMARK  9 active torsions:
REMARK  status: ('A' for Active; 'I' for Inactive)
REMARK    1  A    between atoms: C_1  and  C_2
REMARK    2  A    between atoms: C_2  and  C_4
REMARK    3  A    between atoms: C_2  and  N_11
REMARK    4  A    between atoms: C_12  and  C_14
REMARK    5  A    between atoms: C_14  and  C_16
REMARK    6  A    between atoms: C_14  and  N_17
REMARK    7  A    between atoms: N_17  and  C_18
REMARK    8  A    between atoms: N_17  and  C_19
REMARK    9  A    between atoms: C_19  and  C_20
REMARK                            x       y       z     vdW  Elec       q    Type
REMARK                         _______ _______ _______ _____ _____    ______ ____
ROOT
ATOM      1  C   UNL     1      -3.242  -1.227  -1.253  0.00  0.00    +0.016 C 
ATOM      2  C   UNL     1      -3.408  -2.639  -0.688  0.00  0.00    -0.004 C 
ENDROOT
BRANCH   1   4
ATOM      3  N   UNL     1      -0.974  -0.508  -0.576  0.00  0.00    -0.310 N 
ATOM      4  C   UNL     1      -1.786  -0.972  -1.546  0.00  0.00    +0.200 C 
ATOM      5  O   UNL     1      -1.344  -1.185  -2.656  0.00  0.00    -0.278 OA
ATOM      6  H   UNL     1      -1.327  -0.337   0.311  0.00  0.00    +0.149 HD
BRANCH   3   8
ATOM      7  C   UNL     1       0.603   1.138  -1.463  0.00  0.00    +0.033 C 
ATOM      8  C   UNL     1       0.441  -0.260  -0.861  0.00  0.00    +0.100 C 
BRANCH   8   9
ATOM      9  C   UNL     1       1.235  -0.351   0.417  0.00  0.00    -0.027 A 
ATOM     10  C   UNL     1       0.719   0.170   1.589  0.00  0.00    +0.008 A 
ATOM     11  C   UNL     1       1.446   0.086   2.761  0.00  0.00    +0.038 A 
ATOM     12  C   UNL     1       2.691  -0.521   2.762  0.00  0.00    +0.123 A 
ATOM     13  C   UNL     1       3.206  -1.042   1.587  0.00  0.00    +0.038 A 
ATOM     14  C   UNL     1       2.475  -0.962   0.417  0.00  0.00    +0.008 A 
ATOM     15  F   UNL     1       3.402  -0.603   3.908  0.00  0.00    -0.205 F 
ENDBRANCH   8   9
ENDBRANCH   3   8
ENDBRANCH   1   4
BRANCH   1  16
ATOM     16  N   UNL     1      -4.020  -1.101  -2.492  0.00  0.00    +0.391 N 
ATOM     17  C   UNL     1      -3.906   0.271  -3.005  0.00  0.00    -0.094 C 
ATOM     18  H   UNL     1      -3.665  -1.748  -3.180  0.00  0.00    -0.080 HD
BRANCH  16  19
ATOM     19  C   UNL     1      -5.431  -1.405  -2.217  0.00  0.00    +0.019 C 
BRANCH  19  20
ATOM     20  C   UNL     1      -6.208  -1.396  -3.509  0.00  0.00    +0.199 C 
ATOM     21  O   UNL     1      -5.642  -1.159  -4.555  0.00  0.00    -0.278 OA
ATOM     22  N   UNL     1      -7.531  -1.650  -3.501  0.00  0.00    -0.299 N 
ATOM     23  C   UNL     1      -8.241  -1.934  -2.243  0.00  0.00    +0.136 C 
ATOM     24  C   UNL     1      -9.475  -1.028  -2.169  0.00  0.00    +0.179 C 
ATOM     25  O   UNL     1     -10.234  -1.168  -3.372  0.00  0.00    -0.377 OA
ATOM     26  C   UNL     1      -9.540  -0.760  -4.554  0.00  0.00    +0.179 C 
ATOM     27  C   UNL     1      -8.311  -1.647  -4.749  0.00  0.00    +0.136 C 
ENDBRANCH  19  20
ENDBRANCH  16  19
ENDBRANCH   1  16
TORSDOF 6
