REMARK  Name = ZINC31935312
REMARK  6 active torsions:
REMARK  status: ('A' for Active; 'I' for Inactive)
REMARK    1  A    between atoms: C_1  and  C_2
REMARK    2  A    between atoms: C_7  and  C_16
REMARK    3  A    between atoms: C_8  and  C_11
REMARK    4  A    between atoms: C_11  and  C_13
REMARK    5  A    between atoms: C_11  and  C_14
REMARK    6  A    between atoms: C_14  and  N_15
REMARK                            x       y       z     vdW  Elec       q    Type
REMARK                         _______ _______ _______ _____ _____    ______ ____
ROOT
ATOM      1  C   UNL     1       7.691  -7.992   2.155  0.00  0.00    +0.045 C 
ATOM      2  C   UNL     1       6.476  -7.179   2.523  0.00  0.00    -0.034 A 
ATOM      3  C   UNL     1       5.448  -7.762   3.282  0.00  0.00    +0.008 A 
ATOM      4  C   UNL     1       4.354  -7.026   3.612  0.00  0.00    +0.047 A 
ATOM      5  C   UNL     1       4.269  -5.684   3.185  0.00  0.00    +0.138 A 
ATOM      6  N   UNL     1       3.343  -4.753   3.362  0.00  0.00    -0.228 NA
ATOM      7  C   UNL     1       3.732  -3.625   2.748  0.00  0.00    +0.093 A 
ATOM      8  C   UNL     1       4.947  -3.848   2.172  0.00  0.00    +0.052 A 
ATOM      9  N   UNL     1       5.289  -5.143   2.445  0.00  0.00    -0.303 N 
ATOM     10  C   UNL     1       6.382  -5.894   2.122  0.00  0.00    +0.096 A 
ENDROOT
BRANCH   7  11
ATOM     11  C   UNL     1       2.973  -2.351   2.707  0.00  0.00    +0.006 A 
ATOM     12  C   UNL     1       2.401  -1.916   1.513  0.00  0.00    +0.014 A 
ATOM     13  C   UNL     1       1.695  -0.732   1.476  0.00  0.00    +0.050 A 
ATOM     14  C   UNL     1       1.550   0.030   2.626  0.00  0.00    +0.166 A 
ATOM     15  C   UNL     1       2.120  -0.400   3.823  0.00  0.00    +0.167 A 
ATOM     16  C   UNL     1       2.829  -1.587   3.863  0.00  0.00    +0.059 A 
ATOM     17  O   UNL     1       1.836   0.517   4.795  0.00  0.00    -0.453 OA
ATOM     18  C   UNL     1       1.439   1.710   4.093  0.00  0.00    +0.466 C 
ATOM     19  O   UNL     1       0.910   1.215   2.849  0.00  0.00    -0.453 OA
ENDBRANCH   7  11
BRANCH   8  20
ATOM     20  C   UNL     1       5.760  -2.855   1.383  0.00  0.00    +0.018 C 
ATOM     21  C   UNL     1       5.911  -1.563   2.189  0.00  0.00    +0.012 C 
BRANCH  20  22
ATOM     22  C   UNL     1       5.052  -2.551   0.061  0.00  0.00    -0.077 C 
BRANCH  22  23
ATOM     23  N   UNL     1       4.857  -3.800  -0.688  0.00  0.00    +0.379 N 
ATOM     24  H   UNL     1       4.348  -3.581  -1.638  0.00  0.00    -0.090 HD
ATOM     25  H   UNL     1       4.243  -4.492  -0.093  0.00  0.00    -0.090 HD
ATOM     26  H   UNL     1       5.835  -4.260  -0.893  0.00  0.00    -0.090 HD
ENDBRANCH  22  23
ENDBRANCH  20  22
ENDBRANCH   8  20
TORSDOF 4
