REMARK  Name = ZINC52565629
REMARK  4 active torsions:
REMARK  status: ('A' for Active; 'I' for Inactive)
REMARK    1  A    between atoms: C_3  and  C_6
REMARK    2  A    between atoms: C_13  and  N_16
REMARK    3  A    between atoms: N_16  and  C_17
REMARK    4  A    between atoms: C_17  and  C_18
REMARK                            x       y       z     vdW  Elec       q    Type
REMARK                         _______ _______ _______ _____ _____    ______ ____
ROOT
ATOM      1  C   UNL     1       3.740   1.825  -0.024  0.00  0.00    -0.011 A 
ATOM      2  C   UNL     1       3.996   3.197  -0.014  0.00  0.00    +0.009 A 
ATOM      3  C   UNL     1       5.297   3.651  -0.025  0.00  0.00    +0.004 A 
ATOM      4  C   UNL     1       6.353   2.752  -0.045  0.00  0.00    -0.046 A 
ATOM      5  C   UNL     1       6.106   1.391  -0.055  0.00  0.00    -0.045 A 
ATOM      6  C   UNL     1       4.804   0.925  -0.039  0.00  0.00    +0.013 A 
ATOM      7  C   UNL     1       7.416   0.633  -0.078  0.00  0.00    +0.020 C 
ATOM      8  C   UNL     1       8.483   1.658   0.360  0.00  0.00    -0.063 C 
ATOM      9  C   UNL     1       7.847   3.000  -0.060  0.00  0.00    +0.020 C 
ENDROOT
BRANCH   1  12
ATOM     10  C   UNL     1      -0.016   1.353   0.009  0.00  0.00    +0.008 A 
ATOM     11  C   UNL     1       1.178   2.041   0.002  0.00  0.00    +0.016 A 
ATOM     12  C   UNL     1       2.347   1.329  -0.013  0.00  0.00    +0.019 A 
ATOM     13  S   UNL     1       1.752  -0.354  -0.017  0.00  0.00    -0.097 S 
ATOM     14  C   UNL     1       0.002  -0.004   0.002  0.00  0.00    +0.046 A 
ENDBRANCH   1  12
BRANCH   8  15
ATOM     15  N   UNL     1       9.749   1.431  -0.350  0.00  0.00    +0.384 N 
ATOM     16  H   UNL     1      10.045   0.476  -0.212  0.00  0.00    -0.085 HD
ATOM     17  H   UNL     1       9.617   1.603  -1.335  0.00  0.00    -0.085 HD
BRANCH  15  18
ATOM     18  C   UNL     1      10.775   2.342   0.174  0.00  0.00    -0.048 C 
BRANCH  18  19
ATOM     19  C   UNL     1      12.074   2.108  -0.554  0.00  0.00    -0.058 C 
ATOM     20  C   UNL     1      12.539   2.788  -1.625  0.00  0.00    -0.000 A 
ATOM     21  C   UNL     1      12.022   3.906  -2.423  0.00  0.00    +0.029 A 
ATOM     22  C   UNL     1      12.763   4.358  -3.461  0.00  0.00    +0.111 A 
ATOM     23  N   UNL     1      13.940   3.842  -3.797  0.00  0.00    -0.261 NA
ATOM     24  C   UNL     1      14.516   2.851  -3.178  0.00  0.00    +0.136 A 
ATOM     25  C   UNL     1      13.854   2.229  -2.021  0.00  0.00    +0.061 A 
ATOM     26  N   UNL     1      14.187   1.247  -1.229  0.00  0.00    -0.379 N 
ATOM     27  C   UNL     1      13.125   1.068  -0.231  0.00  0.00    +0.142 C 
ATOM     28  H   UNL     1      15.002   0.724  -1.287  0.00  0.00    +0.160 HD
ENDBRANCH  18  19
ENDBRANCH  15  18
ENDBRANCH   8  15
TORSDOF 4
