REMARK  Name = ZINC34666342
REMARK  6 active torsions:
REMARK  status: ('A' for Active; 'I' for Inactive)
REMARK    1  A    between atoms: C_1  and  C_2
REMARK    2  A    between atoms: C_2  and  C_4
REMARK    3  A    between atoms: C_2  and  N_19
REMARK    4  A    between atoms: C_9  and  O_10
REMARK    5  A    between atoms: O_10  and  C_11
REMARK    6  A    between atoms: N_19  and  C_20
REMARK                            x       y       z     vdW  Elec       q    Type
REMARK                         _______ _______ _______ _____ _____    ______ ____
ROOT
ATOM      1  C   UNL     1      -1.291  -0.695  -0.017  0.00  0.00    -0.017 A 
ATOM      2  C   UNL     1      -1.734  -1.300   1.143  0.00  0.00    +0.044 A 
ATOM      3  C   UNL     1      -2.835  -2.139   1.110  0.00  0.00    +0.124 A 
ATOM      4  C   UNL     1      -3.493  -2.373  -0.086  0.00  0.00    +0.042 A 
ATOM      5  C   UNL     1      -3.052  -1.769  -1.247  0.00  0.00    +0.049 A 
ATOM      6  C   UNL     1      -1.952  -0.923  -1.214  0.00  0.00    +0.130 A 
ATOM      7  F   UNL     1      -3.267  -2.732   2.245  0.00  0.00    -0.205 F 
ENDROOT
BRANCH   1   9
ATOM      8  C   UNL     1      -0.560   1.667   0.172  0.00  0.00    -0.009 C 
ATOM      9  C   UNL     1      -0.092   0.218   0.020  0.00  0.00    -0.041 C 
BRANCH   9  10
ATOM     10  N   UNL     1       0.763  -0.142   1.159  0.00  0.00    +0.382 N 
ATOM     11  C   UNL     1       1.988   0.667   1.127  0.00  0.00    -0.100 C 
ATOM     12  H   UNL     1       0.267   0.033   2.021  0.00  0.00    -0.085 HD
ATOM     13  H   UNL     1       1.004  -1.120   1.103  0.00  0.00    -0.085 HD
ENDBRANCH   9  10
ENDBRANCH   1   9
BRANCH   6  14
ATOM     14  O   UNL     1      -1.520  -0.324  -2.355  0.00  0.00    -0.456 OA
BRANCH  14  15
ATOM     15  C   UNL     1      -2.200  -0.575  -3.505  0.00  0.00    +0.129 A 
ATOM     16  C   UNL     1      -3.267   0.234  -3.872  0.00  0.00    +0.046 A 
ATOM     17  C   UNL     1      -3.956  -0.024  -5.041  0.00  0.00    +0.005 A 
ATOM     18  C   UNL     1      -3.585  -1.087  -5.845  0.00  0.00    +0.014 A 
ATOM     19  C   UNL     1      -2.523  -1.894  -5.480  0.00  0.00    +0.017 A 
ATOM     20  C   UNL     1      -1.826  -1.637  -4.315  0.00  0.00    +0.060 A 
ATOM     21  I   UNL     1      -1.966  -3.504  -6.700  0.00  0.00    -0.044 I 
ENDBRANCH  14  15
ENDBRANCH   6  14
TORSDOF 4
