REMARK  Name = ZINC03281298
REMARK  4 active torsions:
REMARK  status: ('A' for Active; 'I' for Inactive)
REMARK    1  A    between atoms: N_13  and  C_17
REMARK    2  A    between atoms: C_17  and  C_18
REMARK    3  A    between atoms: N_20  and  C_21
REMARK    4  A    between atoms: C_24  and  N_27
REMARK                            x       y       z     vdW  Elec       q    Type
REMARK                         _______ _______ _______ _____ _____    ______ ____
ROOT
ATOM      1  C   UNL     1       2.370   0.020  -0.005  0.00  0.00    +0.001 A 
ATOM      2  C   UNL     1       1.176  -0.678   0.008  0.00  0.00    +0.004 A 
ATOM      3  C   UNL     1      -0.022   0.007   0.021  0.00  0.00    +0.046 A 
ATOM      4  C   UNL     1      -0.033   1.398   0.022  0.00  0.00    +0.126 A 
ATOM      5  C   UNL     1       1.165   2.094   0.012  0.00  0.00    +0.027 A 
ATOM      6  C   UNL     1       2.363   1.401  -0.004  0.00  0.00    +0.010 A 
ATOM      7  C   UNL     1       1.189   3.597   0.025  0.00  0.00    +0.144 C 
ATOM      8  C   UNL     1      -0.173   4.164  -0.363  0.00  0.00    +0.081 C 
ATOM      9  C   UNL     1      -1.254   3.411   0.425  0.00  0.00    +0.232 C 
ATOM     10  O   UNL     1      -1.230   2.039   0.027  0.00  0.00    -0.492 OA
ATOM     11  C   UNL     1       1.604   4.107   1.385  0.00  0.00    +0.252 C 
ATOM     12  O   UNL     1       1.034   3.931   2.441  0.00  0.00    -0.272 OA
ATOM     13  N   UNL     1       2.744   4.799   1.179  0.00  0.00    -0.215 N 
ATOM     14  C   UNL     1       3.097   4.794  -0.112  0.00  0.00    +0.310 C 
ATOM     15  O   UNL     1       4.087   5.351  -0.545  0.00  0.00    -0.252 OA
ATOM     16  N   UNL     1       2.232   4.101  -0.878  0.00  0.00    -0.281 N 
ATOM     17  H   UNL     1       2.287   3.962  -1.836  0.00  0.00    +0.152 HD
ENDROOT
BRANCH  13  18
ATOM     18  C   UNL     1       3.502   5.471   2.237  0.00  0.00    +0.214 C 
BRANCH  18  19
ATOM     19  C   UNL     1       4.519   4.518   2.810  0.00  0.00    +0.235 C 
ATOM     20  O   UNL     1       4.602   3.388   2.378  0.00  0.00    -0.274 OA
ATOM     21  N   UNL     1       5.336   4.921   3.804  0.00  0.00    -0.284 N 
ATOM     22  H   UNL     1       5.316   5.843   4.104  0.00  0.00    +0.155 HD
BRANCH  21  23
ATOM     23  C   UNL     1       6.214   4.008   4.403  0.00  0.00    +0.034 A 
ATOM     24  C   UNL     1       6.500   4.107   5.758  0.00  0.00    +0.025 A 
ATOM     25  C   UNL     1       7.361   3.204   6.350  0.00  0.00    +0.025 A 
ATOM     26  C   UNL     1       7.949   2.204   5.587  0.00  0.00    +0.030 A 
ATOM     27  C   UNL     1       7.667   2.108   4.231  0.00  0.00    +0.025 A 
ATOM     28  C   UNL     1       6.802   3.007   3.640  0.00  0.00    +0.025 A 
BRANCH  26  29
ATOM     29  N   UNL     1       8.826   1.292   6.185  0.00  0.00    -0.330 N 
ATOM     30  C   UNL     1       8.382  -0.090   5.961  0.00  0.00    +0.105 C 
ATOM     31  C   UNL     1       9.436  -1.059   6.501  0.00  0.00    +0.019 C 
ATOM     32  C   UNL     1       9.638  -0.805   7.997  0.00  0.00    +0.003 C 
ATOM     33  C   UNL     1      10.053   0.654   8.207  0.00  0.00    +0.019 C 
ATOM     34  C   UNL     1       8.981   1.574   7.618  0.00  0.00    +0.105 C 
ENDBRANCH  26  29
ENDBRANCH  21  23
ENDBRANCH  18  19
ENDBRANCH  13  18
TORSDOF 4
