REMARK  Name = ZINC66481826
REMARK  8 active torsions:
REMARK  status: ('A' for Active; 'I' for Inactive)
REMARK    1  A    between atoms: C_1  and  C_2
REMARK    2  A    between atoms: C_2  and  C_3
REMARK    3  A    between atoms: C_3  and  C_25
REMARK    4  A    between atoms: N_6  and  C_10
REMARK    5  A    between atoms: C_10  and  C_11
REMARK    6  A    between atoms: C_11  and  C_13
REMARK    7  A    between atoms: C_11  and  O_24
REMARK    8  A    between atoms: C_13  and  N_14
REMARK                            x       y       z     vdW  Elec       q    Type
REMARK                         _______ _______ _______ _____ _____    ______ ____
ROOT
ATOM      1  C   UNL     1       0.913  -4.154   3.805  0.00  0.00    +0.116 C 
ENDROOT
BRANCH   1   2
ATOM      2  O   UNL     1       2.119  -4.155   3.039  0.00  0.00    -0.392 OA
ATOM      3  H   UNL     1       2.090  -4.727   2.260  0.00  0.00    +0.210 HD
ENDBRANCH   1   2
BRANCH   1   4
ATOM      4  C   UNL     1      -0.245  -3.667   2.932  0.00  0.00    +0.147 C 
BRANCH   4   8
ATOM      5  C   UNL     1       0.742  -0.511   1.242  0.00  0.00    +0.109 C 
ATOM      6  C   UNL     1       0.685  -2.024   1.315  0.00  0.00    +0.246 C 
ATOM      7  O   UNL     1       1.132  -2.813   0.511  0.00  0.00    -0.273 OA
ATOM      8  N   UNL     1       0.035  -2.309   2.461  0.00  0.00    -0.222 N 
ATOM      9  C   UNL     1      -0.323  -1.198   3.115  0.00  0.00    +0.309 C 
ATOM     10  O   UNL     1      -0.920  -1.199   4.173  0.00  0.00    -0.252 OA
ATOM     11  N   UNL     1       0.053  -0.079   2.470  0.00  0.00    -0.285 N 
ATOM     12  C   UNL     1       2.192  -0.023   1.238  0.00  0.00    +0.041 C 
ATOM     13  H   UNL     1      -0.100   0.835   2.757  0.00  0.00    +0.151 HD
BRANCH   5  15
ATOM     14  C   UNL     1      -0.019   1.526   0.010  0.00  0.00    +0.006 C 
ATOM     15  C   UNL     1       0.002  -0.004   0.002  0.00  0.00    +0.031 C 
ENDBRANCH   5  15
ENDBRANCH   4   8
ENDBRANCH   1   4
BRANCH   1  16
ATOM     16  C   UNL     1       0.620  -5.573   4.297  0.00  0.00    -0.045 C 
BRANCH  16  17
ATOM     17  N   UNL     1       1.673  -5.995   5.230  0.00  0.00    +0.384 N 
ATOM     18  C   UNL     1       1.452  -7.396   5.620  0.00  0.00    -0.074 C 
ATOM     19  C   UNL     1       2.705  -7.906   6.334  0.00  0.00    +0.017 C 
ATOM     20  C   UNL     1       3.097  -6.944   7.426  0.00  0.00    -0.048 A 
ATOM     21  C   UNL     1       3.979  -7.375   8.406  0.00  0.00    +0.004 A 
ATOM     22  C   UNL     1       4.364  -6.521   9.420  0.00  0.00    +0.000 A 
ATOM     23  C   UNL     1       3.867  -5.231   9.460  0.00  0.00    +0.000 A 
ATOM     24  C   UNL     1       2.987  -4.803   8.486  0.00  0.00    +0.002 A 
ATOM     25  C   UNL     1       2.599  -5.660   7.466  0.00  0.00    -0.061 A 
ATOM     26  C   UNL     1       1.631  -5.153   6.430  0.00  0.00    -0.043 C 
ATOM     27  H   UNL     1       2.574  -5.904   4.786  0.00  0.00    -0.081 HD
ENDBRANCH  16  17
ENDBRANCH   1  16
TORSDOF 6
