REMARK  Name = ZINC66863709
REMARK  10 active torsions:
REMARK  status: ('A' for Active; 'I' for Inactive)
REMARK    1  A    between atoms: C_1  and  C_2
REMARK    2  A    between atoms: C_3  and  N_9
REMARK    3  A    between atoms: C_4  and  C_8
REMARK    4  A    between atoms: N_5  and  C_7
REMARK    5  A    between atoms: C_10  and  C_12
REMARK    6  A    between atoms: C_12  and  C_14
REMARK    7  A    between atoms: C_12  and  N_15
REMARK    8  A    between atoms: N_15  and  C_16
REMARK    9  A    between atoms: C_21  and  C_26
REMARK   10  A    between atoms: C_23  and  C_25
REMARK                            x       y       z     vdW  Elec       q    Type
REMARK                         _______ _______ _______ _____ _____    ______ ____
ROOT
ATOM      1  C   UNL     1      -0.221   1.438  -4.129  0.00  0.00    +0.014 C 
ATOM      2  C   UNL     1       0.320   0.513  -5.221  0.00  0.00    -0.004 C 
ENDROOT
BRANCH   1   4
ATOM      3  N   UNL     1      -0.288  -0.339  -2.409  0.00  0.00    -0.284 N 
ATOM      4  C   UNL     1       0.143   0.885  -2.775  0.00  0.00    +0.203 C 
ATOM      5  O   UNL     1       0.825   1.540  -2.015  0.00  0.00    -0.277 OA
ATOM      6  H   UNL     1      -0.795  -0.881  -3.033  0.00  0.00    +0.155 HD
BRANCH   3   9
ATOM      7  C   UNL     1      -0.143   1.420   0.158  0.00  0.00    +0.069 C 
ATOM      8  C   UNL     1       0.070  -0.068   0.055  0.00  0.00    +0.081 A 
ATOM      9  C   UNL     1      -0.003  -0.829  -1.121  0.00  0.00    +0.077 A 
ATOM     10  C   UNL     1       0.249  -2.123  -0.796  0.00  0.00    +0.057 A 
ATOM     11  N   UNL     1       0.474  -2.172   0.543  0.00  0.00    -0.270 N 
ATOM     12  N   UNL     1       0.360  -0.870   1.047  0.00  0.00    -0.175 NA
ATOM     13  C   UNL     1       0.785  -3.374   1.321  0.00  0.00    +0.172 C 
ATOM     14  C   UNL     1       0.275  -3.291  -1.747  0.00  0.00    +0.067 C 
ENDBRANCH   3   9
ENDBRANCH   1   4
BRANCH   1  15
ATOM     15  N   UNL     1       0.366   2.776  -4.285  0.00  0.00    +0.388 N 
ATOM     16  H   UNL     1       0.064   3.366  -3.524  0.00  0.00    -0.084 HD
ATOM     17  H   UNL     1       1.372   2.704  -4.277  0.00  0.00    -0.084 HD
BRANCH  15  18
ATOM     18  C   UNL     1      -0.073   3.357  -5.560  0.00  0.00    -0.068 C 
ATOM     19  C   UNL     1       0.624   4.703  -5.774  0.00  0.00    -0.015 C 
ATOM     20  C   UNL     1       0.166   5.309  -7.102  0.00  0.00    -0.001 C 
ATOM     21  C   UNL     1      -1.349   5.518  -7.072  0.00  0.00    +0.003 C 
ATOM     22  C   UNL     1      -2.046   4.173  -6.859  0.00  0.00    -0.013 C 
ATOM     23  C   UNL     1      -1.589   3.567  -5.530  0.00  0.00    -0.025 C 
ATOM     24  C   UNL     1      -1.950   4.516  -4.386  0.00  0.00    +0.006 C 
ATOM     25  C   UNL     1      -3.561   4.383  -6.829  0.00  0.00    +0.008 C 
ENDBRANCH  15  18
ENDBRANCH   1  15
TORSDOF 4
