REMARK  Name = ZINC53879029
REMARK  9 active torsions:
REMARK  status: ('A' for Active; 'I' for Inactive)
REMARK    1  A    between atoms: C_1  and  C_2
REMARK    2  A    between atoms: C_2  and  C_3
REMARK    3  A    between atoms: C_6  and  N_9
REMARK    4  A    between atoms: N_9  and  C_10
REMARK    5  A    between atoms: N_9  and  C_11
REMARK    6  A    between atoms: C_11  and  C_12
REMARK    7  A    between atoms: C_17  and  N_19
REMARK    8  A    between atoms: N_19  and  C_20
REMARK    9  A    between atoms: C_20  and  C_21
REMARK                            x       y       z     vdW  Elec       q    Type
REMARK                         _______ _______ _______ _____ _____    ______ ____
ROOT
ATOM      1  N   UNL     1       3.478  -2.383  -3.819  0.00  0.00    +0.380 N 
ATOM      2  C   UNL     1       3.384  -3.828  -4.068  0.00  0.00    -0.096 C 
ATOM      3  H   UNL     1       3.200  -1.881  -4.649  0.00  0.00    -0.082 HD
ENDROOT
BRANCH   1   7
ATOM      4  C   UNL     1       0.323  -0.499  -1.644  0.00  0.00    -0.011 C 
ATOM      5  C   UNL     1       1.766  -0.136  -1.287  0.00  0.00    +0.002 C 
ATOM      6  C   UNL     1       2.689  -0.515  -2.447  0.00  0.00    -0.015 C 
ATOM      7  C   UNL     1       2.591  -2.019  -2.706  0.00  0.00    -0.069 C 
ATOM      8  C   UNL     1       1.149  -2.383  -3.063  0.00  0.00    -0.015 C 
ATOM      9  C   UNL     1       0.225  -2.004  -1.903  0.00  0.00    +0.002 C 
BRANCH   4  11
ATOM     10  C   UNL     1      -0.598   1.399  -0.306  0.00  0.00    +0.004 C 
ATOM     11  C   UNL     1      -0.601  -0.121  -0.484  0.00  0.00    -0.000 C 
ENDBRANCH   4  11
ENDBRANCH   1   7
BRANCH   1  12
ATOM     12  C   UNL     1       4.863  -2.034  -3.477  0.00  0.00    -0.077 C 
BRANCH  12  13
ATOM     13  C   UNL     1       5.757  -2.232  -4.702  0.00  0.00    -0.042 C 
ATOM     14  C   UNL     1       5.913  -3.737  -5.005  0.00  0.00    -0.000 C 
ATOM     15  C   UNL     1       7.381  -3.879  -5.478  0.00  0.00    -0.001 C 
ATOM     16  C   UNL     1       8.134  -2.888  -4.556  0.00  0.00    -0.016 C 
ATOM     17  C   UNL     1       7.169  -1.692  -4.417  0.00  0.00    -0.070 C 
BRANCH  17  18
ATOM     18  N   UNL     1       7.234  -1.148  -3.054  0.00  0.00    +0.381 N 
ATOM     19  H   UNL     1       6.512  -0.454  -2.934  0.00  0.00    -0.086 HD
ATOM     20  H   UNL     1       7.099  -1.893  -2.388  0.00  0.00    -0.086 HD
BRANCH  18  21
ATOM     21  C   UNL     1       8.549  -0.528  -2.837  0.00  0.00    -0.086 C 
ATOM     22  C   UNL     1       8.616   0.038  -1.417  0.00  0.00    -0.017 C 
ENDBRANCH  18  21
ENDBRANCH  17  18
ENDBRANCH  12  13
ENDBRANCH   1  12
TORSDOF 6
