REMARK  Name = ZINC50866654
REMARK  5 active torsions:
REMARK  status: ('A' for Active; 'I' for Inactive)
REMARK    1  A    between atoms: C_1  and  C_2
REMARK    2  A    between atoms: C_2  and  C_3
REMARK    3  A    between atoms: C_3  and  C_4
REMARK    4  A    between atoms: C_6  and  N_19
REMARK    5  A    between atoms: C_8  and  C_10
REMARK                            x       y       z     vdW  Elec       q    Type
REMARK                         _______ _______ _______ _____ _____    ______ ____
ROOT
ATOM      1  C   UNL     1       0.762  -2.018   1.233  0.00  0.00    +0.047 A 
ATOM      2  C   UNL     1       1.960  -2.700   1.328  0.00  0.00    +0.066 A 
ATOM      3  C   UNL     1       1.935  -4.097   1.317  0.00  0.00    +0.120 A 
ATOM      4  N   UNL     1       0.765  -4.720   1.217  0.00  0.00    -0.213 NA
ATOM      5  C   UNL     1      -0.362  -4.028   1.128  0.00  0.00    +0.162 A 
ATOM      6  N   UNL     1      -0.367  -2.702   1.141  0.00  0.00    -0.232 NA
ENDROOT
BRANCH   5   7
ATOM      7  C   UNL     1      -1.649  -4.755   1.016  0.00  0.00    +0.023 A 
ATOM      8  C   UNL     1      -2.845  -4.045   0.916  0.00  0.00    +0.015 A 
ATOM      9  C   UNL     1      -4.043  -4.722   0.813  0.00  0.00    +0.050 A 
ATOM     10  C   UNL     1      -4.061  -6.109   0.808  0.00  0.00    +0.166 A 
ATOM     11  C   UNL     1      -2.868  -6.824   0.908  0.00  0.00    +0.167 A 
ATOM     12  C   UNL     1      -1.665  -6.149   1.006  0.00  0.00    +0.061 A 
ATOM     13  O   UNL     1      -3.155  -8.158   0.880  0.00  0.00    -0.453 OA
ATOM     14  C   UNL     1      -4.562  -8.255   1.173  0.00  0.00    +0.466 C 
ATOM     15  O   UNL     1      -5.094  -6.997   0.717  0.00  0.00    -0.453 OA
ENDBRANCH   5   7
BRANCH   3  16
ATOM     16  N   UNL     1       3.112  -4.823   1.409  0.00  0.00    -0.343 N 
ATOM     17  H   UNL     1       3.962  -4.361   1.482  0.00  0.00    +0.144 HD
ATOM     18  H   UNL     1       3.086  -5.792   1.401  0.00  0.00    +0.144 HD
ENDBRANCH   3  16
BRANCH   1  19
ATOM     19  C   UNL     1       0.742  -0.511   1.242  0.00  0.00    +0.055 C 
BRANCH  19  21
ATOM     20  C   UNL     1      -0.019   1.526   0.010  0.00  0.00    +0.004 C 
ATOM     21  C   UNL     1       0.002  -0.004   0.002  0.00  0.00    +0.003 C 
ENDBRANCH  19  21
ENDBRANCH   1  19
TORSDOF 4
