REMARK  Name = ZINC19578686
REMARK  5 active torsions:
REMARK  status: ('A' for Active; 'I' for Inactive)
REMARK    1  A    between atoms: C_1  and  N_2
REMARK    2  A    between atoms: N_2  and  O_25
REMARK    3  A    between atoms: C_3  and  C_5
REMARK    4  A    between atoms: C_5  and  N_6
REMARK    5  A    between atoms: O_25  and  C_26
REMARK                            x       y       z     vdW  Elec       q    Type
REMARK                         _______ _______ _______ _____ _____    ______ ____
ROOT
ATOM      1  N   UNL     1      -1.760  -2.082   3.124  0.00  0.00    -0.292 N 
ATOM      2  C   UNL     1      -2.151  -2.059   4.543  0.00  0.00    +0.112 C 
ATOM      3  C   UNL     1      -3.682  -2.069   4.624  0.00  0.00    +0.062 C 
ATOM      4  C   UNL     1      -4.222  -3.491   4.602  0.00  0.00    +0.105 C 
ATOM      5  C   UNL     1      -3.989  -4.205   3.280  0.00  0.00    +0.052 C 
ATOM      6  C   UNL     1      -2.496  -4.437   3.040  0.00  0.00    +0.099 C 
ATOM      7  C   UNL     1      -1.911  -3.193   2.404  0.00  0.00    +0.216 C 
ATOM      8  O   UNL     1      -1.580  -3.208   1.237  0.00  0.00    -0.276 OA
ATOM      9  N   UNL     1      -3.603  -4.260   5.685  0.00  0.00    -0.323 N 
ATOM     10  C   UNL     1      -4.046  -5.518   6.080  0.00  0.00    +0.055 A 
ATOM     11  C   UNL     1      -3.163  -6.363   6.751  0.00  0.00    +0.025 A 
ATOM     12  C   UNL     1      -3.578  -7.609   7.171  0.00  0.00    +0.002 A 
ATOM     13  C   UNL     1      -4.873  -8.031   6.930  0.00  0.00    +0.002 A 
ATOM     14  C   UNL     1      -5.754  -7.201   6.260  0.00  0.00    +0.030 A 
ATOM     15  C   UNL     1      -5.340  -5.958   5.832  0.00  0.00    +0.126 A 
ATOM     16  S   UNL     1      -6.455  -4.915   4.941  0.00  0.00    +0.062 S 
ATOM     17  O   UNL     1      -6.528  -5.423   3.615  0.00  0.00    -0.153 OA
ATOM     18  O   UNL     1      -7.602  -4.738   5.761  0.00  0.00    -0.153 OA
ATOM     19  N   UNL     1      -5.681  -3.441   4.856  0.00  0.00    -0.167 NA
ATOM     20  H   UNL     1      -2.742  -3.846   6.231  0.00  0.00    +0.148 HD
ATOM     21  H   UNL     1      -6.158  -2.491   5.139  0.00  0.00    +0.150 HD
ENDROOT
BRANCH   1  22
ATOM     22  C   UNL     1      -1.196  -0.881   2.503  0.00  0.00    +0.205 C 
BRANCH  22  25
ATOM     23  C   UNL     1      -3.105   1.918   0.721  0.00  0.00    +0.166 C 
ATOM     24  N   UNL     1      -2.024   1.110   1.291  0.00  0.00    -0.183 N 
ATOM     25  C   UNL     1      -2.308  -0.049   1.917  0.00  0.00    +0.255 C 
ATOM     26  O   UNL     1      -3.458  -0.423   2.009  0.00  0.00    -0.272 OA
BRANCH  24  27
ATOM     27  O   UNL     1      -0.682   1.547   1.184  0.00  0.00    -0.281 OA
ATOM     28  C   UNL     1      -0.013   1.086   0.008  0.00  0.00    +0.227 C 
ENDBRANCH  24  27
ENDBRANCH  22  25
ENDBRANCH   1  22
TORSDOF 3
