REMARK  Name = ZINC37747146
REMARK  7 active torsions:
REMARK  status: ('A' for Active; 'I' for Inactive)
REMARK    1  A    between atoms: C_1  and  O_2
REMARK    2  A    between atoms: O_2  and  C_3
REMARK    3  A    between atoms: C_3  and  C_4
REMARK    4  A    between atoms: C_4  and  C_5
REMARK    5  A    between atoms: C_5  and  O_6
REMARK    6  A    between atoms: O_6  and  C_7
REMARK    7  A    between atoms: C_19  and  N_21
REMARK                            x       y       z     vdW  Elec       q    Type
REMARK                         _______ _______ _______ _____ _____    ______ ____
ROOT
ATOM      1  C   UNL     1       1.935  -4.800  -3.388  0.00  0.00    +0.104 C 
ATOM      2  C   UNL     1       3.428  -5.037  -3.154  0.00  0.00    +0.030 C 
ATOM      3  C   UNL     1       3.879  -4.264  -1.913  0.00  0.00    +0.002 C 
ATOM      4  C   UNL     1       4.582  -5.217  -0.945  0.00  0.00    +0.000 C 
ATOM      5  C   UNL     1       3.934  -5.111   0.437  0.00  0.00    +0.000 C 
ATOM      6  C   UNL     1       3.525  -6.505   0.917  0.00  0.00    +0.000 C 
ATOM      7  C   UNL     1       2.046  -6.494   1.311  0.00  0.00    -0.000 C 
ATOM      8  C   UNL     1       1.312  -7.613   0.570  0.00  0.00    -0.000 C 
ATOM      9  C   UNL     1       0.103  -7.030  -0.164  0.00  0.00    -0.000 C 
ATOM     10  C   UNL     1       0.158  -7.434  -1.639  0.00  0.00    -0.002 C 
ATOM     11  C   UNL     1       0.047  -6.184  -2.514  0.00  0.00    -0.014 C 
ATOM     12  C   UNL     1       1.216  -6.146  -3.501  0.00  0.00    -0.046 C 
ENDROOT
BRANCH  12  13
ATOM     13  N   UNL     1       2.156  -7.231  -3.188  0.00  0.00    +0.382 N 
ATOM     14  H   UNL     1       2.505  -7.113  -2.248  0.00  0.00    -0.090 HD
ATOM     15  H   UNL     1       1.682  -8.118  -3.262  0.00  0.00    -0.090 HD
ATOM     16  H   UNL     1       2.927  -7.206  -3.838  0.00  0.00    -0.090 HD
ENDBRANCH  12  13
BRANCH   1  17
ATOM     17  O   UNL     1       1.393  -4.060  -2.293  0.00  0.00    -0.378 OA
BRANCH  17  18
ATOM     18  C   UNL     1       1.447  -2.642  -2.466  0.00  0.00    +0.162 C 
BRANCH  18  19
ATOM     19  C   UNL     1       0.842  -1.956  -1.240  0.00  0.00    +0.056 C 
BRANCH  19  20
ATOM     20  C   UNL     1       0.900  -0.438  -1.425  0.00  0.00    +0.161 C 
BRANCH  20  22
ATOM     21  C   UNL     1       0.340   1.630  -0.351  0.00  0.00    +0.193 C 
ATOM     22  O   UNL     1       0.335   0.203  -0.279  0.00  0.00    -0.383 OA
ENDBRANCH  20  22
ENDBRANCH  19  20
ENDBRANCH  18  19
ENDBRANCH  17  18
ENDBRANCH   1  17
TORSDOF 6
