REMARK  Name = ZINC08920557
REMARK  12 active torsions:
REMARK  status: ('A' for Active; 'I' for Inactive)
REMARK    1  A    between atoms: C_1  and  C_2
REMARK    2  A    between atoms: C_2  and  N_62
REMARK    3  A    between atoms: C_8  and  N_18
REMARK    4  A    between atoms: C_9  and  C_10
REMARK    5  A    between atoms: C_13  and  O_15
REMARK    6  A    between atoms: O_15  and  C_16
REMARK    7  A    between atoms: C_16  and  C_17
REMARK    8  A    between atoms: C_19  and  C_21
REMARK    9  A    between atoms: C_24  and  S_27
REMARK   10  A    between atoms: S_27  and  N_30
REMARK   11  A    between atoms: N_30  and  C_31
REMARK   12  A    between atoms: N_30  and  C_32
REMARK                            x       y       z     vdW  Elec       q    Type
REMARK                         _______ _______ _______ _____ _____    ______ ____
ROOT
ATOM      1  C   UNL     1       5.827   3.026  -0.481  0.00  0.00    -0.074 C 
ATOM      2  C   UNL     1       5.041   1.788  -0.040  0.00  0.00    +0.018 C 
ATOM      3  C   UNL     1       3.560   2.147  -0.021  0.00  0.00    -0.027 A 
ATOM      4  C   UNL     1       3.177   3.444  -0.011  0.00  0.00    -0.021 A 
ATOM      5  S   UNL     1       1.409   3.392  -0.001  0.00  0.00    -0.079 S 
ATOM      6  C   UNL     1       1.179   1.675  -0.000  0.00  0.00    +0.085 A 
ATOM      7  C   UNL     1       2.478   1.181  -0.015  0.00  0.00    +0.069 A 
ATOM      8  C   UNL     1       4.080   4.638  -0.012  0.00  0.00    -0.035 C 
ATOM      9  N   UNL     1       5.440   4.177   0.359  0.00  0.00    +0.383 N 
ATOM     10  H   UNL     1       5.437   3.886   1.344  0.00  0.00    -0.081 HD
ENDROOT
BRANCH   7  11
ATOM     11  C   UNL     1       2.744  -0.260  -0.025  0.00  0.00    +0.255 C 
ATOM     12  O   UNL     1       2.844  -0.853  -1.083  0.00  0.00    -0.270 OA
ATOM     13  N   UNL     1       2.879  -0.928   1.137  0.00  0.00    -0.217 N 
ATOM     14  C   UNL     1       3.124  -2.253   1.128  0.00  0.00    +0.407 C 
ATOM     15  O   UNL     1       3.224  -2.845   0.072  0.00  0.00    -0.226 OA
ATOM     16  H   UNL     1       2.799  -0.456   1.981  0.00  0.00    +0.161 HD
BRANCH  14  17
ATOM     17  O   UNL     1       3.258  -2.921   2.289  0.00  0.00    -0.450 OA
BRANCH  17  18
ATOM     18  C   UNL     1       3.521  -4.346   2.204  0.00  0.00    +0.230 C 
ATOM     19  C   UNL     1       3.641  -4.928   3.614  0.00  0.00    +0.048 C 
ENDBRANCH  17  18
ENDBRANCH  14  17
ENDBRANCH   7  11
BRANCH   6  20
ATOM     20  N   UNL     1      -0.011   0.966   0.007  0.00  0.00    -0.275 N 
ATOM     21  C   UNL     1      -1.187   1.624   0.017  0.00  0.00    +0.249 C 
ATOM     22  O   UNL     1      -1.204   2.839   0.023  0.00  0.00    -0.270 OA
ATOM     23  H   UNL     1       0.002  -0.004   0.002  0.00  0.00    +0.156 HD
BRANCH  21  24
ATOM     24  C   UNL     1      -2.457   0.868   0.018  0.00  0.00    +0.037 A 
ATOM     25  C   UNL     1      -2.442  -0.528   0.005  0.00  0.00    +0.015 A 
ATOM     26  C   UNL     1      -3.631  -1.228   0.013  0.00  0.00    +0.029 A 
ATOM     27  C   UNL     1      -4.836  -0.550   0.022  0.00  0.00    +0.105 A 
ATOM     28  C   UNL     1      -4.859   0.834   0.030  0.00  0.00    +0.029 A 
ATOM     29  C   UNL     1      -3.677   1.546   0.028  0.00  0.00    +0.015 A 
BRANCH  27  30
ATOM     30  S   UNL     1      -6.350  -1.451   0.024  0.00  0.00    +0.060 S 
ATOM     31  O   UNL     1      -6.059  -2.732   0.567  0.00  0.00    -0.153 OA
ATOM     32  O   UNL     1      -7.334  -0.592   0.585  0.00  0.00    -0.153 OA
BRANCH  30  33
ATOM     33  N   UNL     1      -6.778  -1.693  -1.557  0.00  0.00    -0.183 NA
ATOM     34  C   UNL     1      -6.319  -2.890  -2.265  0.00  0.00    +0.131 C 
ATOM     35  C   UNL     1      -7.617  -0.710  -2.247  0.00  0.00    +0.131 C 
ENDBRANCH  30  33
ENDBRANCH  27  30
ENDBRANCH  21  24
ENDBRANCH   6  20
BRANCH   9  37
ATOM     36  C   UNL     1       5.856   6.545   0.842  0.00  0.00    -0.017 C 
ATOM     37  C   UNL     1       6.411   5.279   0.187  0.00  0.00    -0.082 C 
ENDBRANCH   9  37
TORSDOF 8
