REMARK  Name = ZINC00178959
REMARK  6 active torsions:
REMARK  status: ('A' for Active; 'I' for Inactive)
REMARK    1  A    between atoms: C_1  and  C_2
REMARK    2  A    between atoms: C_2  and  C_4
REMARK    3  A    between atoms: C_7  and  N_10
REMARK    4  A    between atoms: C_12  and  C_23
REMARK    5  A    between atoms: C_18  and  O_21
REMARK    6  A    between atoms: O_21  and  C_22
REMARK                            x       y       z     vdW  Elec       q    Type
REMARK                         _______ _______ _______ _____ _____    ______ ____
ROOT
ATOM      1  N   UNL     1      -1.295   7.056   2.168  0.00  0.00    -0.325 N 
ATOM      2  C   UNL     1      -0.729   7.925   1.352  0.00  0.00    +0.212 A 
ATOM      3  C   UNL     1      -0.774   9.372   1.633  0.00  0.00    +0.097 A 
ATOM      4  C   UNL     1       0.255  10.150   1.116  0.00  0.00    +0.030 A 
ATOM      5  C   UNL     1       1.290   9.465   0.341  0.00  0.00    +0.022 A 
ATOM      6  C   UNL     1       2.489  10.113   0.014  0.00  0.00    +0.012 A 
ATOM      7  C   UNL     1       3.444   9.452  -0.705  0.00  0.00    +0.004 A 
ATOM      8  C   UNL     1       3.240   8.143  -1.116  0.00  0.00    +0.049 A 
ATOM      9  C   UNL     1       2.062   7.483  -0.808  0.00  0.00    +0.163 A 
ATOM     10  C   UNL     1       1.075   8.139  -0.077  0.00  0.00    +0.179 A 
ATOM     11  O   UNL     1      -0.083   7.514   0.233  0.00  0.00    -0.435 OA
ATOM     12  H   UNL     1      -1.885   7.411   3.026  0.00  0.00    +0.169 HD
ENDROOT
BRANCH   1  16
ATOM     13  C   UNL     1      -0.852   3.009   1.502  0.00  0.00    +0.017 A 
ATOM     14  C   UNL     1      -1.977   3.683   1.003  0.00  0.00    +0.013 A 
ATOM     15  C   UNL     1      -2.125   5.019   1.228  0.00  0.00    +0.026 A 
ATOM     16  C   UNL     1      -1.149   5.722   1.948  0.00  0.00    +0.042 A 
ATOM     17  C   UNL     1      -0.022   5.050   2.442  0.00  0.00    +0.026 A 
ATOM     18  C   UNL     1       0.124   3.712   2.223  0.00  0.00    +0.013 A 
BRANCH  13  20
ATOM     19  C   UNL     1      -1.744   0.816   0.491  0.00  0.00    +0.091 C 
ATOM     20  C   UNL     1      -0.695   1.571   1.266  0.00  0.00    +0.160 C 
ATOM     21  O   UNL     1       0.280   0.989   1.693  0.00  0.00    -0.292 OA
ENDBRANCH  13  20
ENDBRANCH   1  16
BRANCH   3  22
ATOM     22  C   UNL     1      -1.863   9.967   2.428  0.00  0.00    +0.247 C 
ATOM     23  O   UNL     1      -2.750   9.261   2.868  0.00  0.00    -0.270 OA
ATOM     24  N   UNL     1      -1.876  11.293   2.667  0.00  0.00    -0.325 N 
ATOM     25  H   UNL     1      -2.688  11.738   3.260  0.00  0.00    +0.145 HD
ATOM     26  H   UNL     1      -1.073  11.932   2.269  0.00  0.00    +0.145 HD
ENDBRANCH   3  22
BRANCH   9  27
ATOM     27  O   UNL     1       1.871   6.200  -1.216  0.00  0.00    -0.491 OA
ATOM     28  C   UNL     1       2.928   5.592  -1.962  0.00  0.00    +0.277 C 
ENDBRANCH   9  27
TORSDOF 4
