REMARK  Name = ZINC44611136
REMARK  6 active torsions:
REMARK  status: ('A' for Active; 'I' for Inactive)
REMARK    1  A    between atoms: C_1  and  C_2
REMARK    2  A    between atoms: C_4  and  C_7
REMARK    3  A    between atoms: C_7  and  N_8
REMARK    4  A    between atoms: N_8  and  C_9
REMARK    5  A    between atoms: C_13  and  C_15
REMARK    6  A    between atoms: C_15  and  C_17
REMARK                            x       y       z     vdW  Elec       q    Type
REMARK                         _______ _______ _______ _____ _____    ______ ____
ROOT
ATOM      1  N   UNL     1      -2.447  -3.317   1.371  0.00  0.00    -0.283 N 
ATOM      2  C   UNL     1      -3.473  -2.450   1.958  0.00  0.00    +0.134 C 
ATOM      3  C   UNL     1      -1.915  -4.319   2.099  0.00  0.00    +0.309 C 
ATOM      4  O   UNL     1      -1.064  -5.037   1.612  0.00  0.00    -0.252 OA
ATOM      5  N   UNL     1      -2.327  -4.524   3.365  0.00  0.00    -0.239 N 
ATOM      6  C   UNL     1      -1.795  -5.527   4.092  0.00  0.00    +0.238 C 
ATOM      7  O   UNL     1      -0.946  -6.244   3.607  0.00  0.00    -0.274 OA
ATOM      8  H   UNL     1      -3.006  -3.951   3.753  0.00  0.00    +0.159 HD
ENDROOT
BRANCH   6   9
ATOM      9  C   UNL     1      -2.256  -5.757   5.509  0.00  0.00    +0.163 C 
ATOM     10  C   UNL     1      -1.041  -5.990   6.409  0.00  0.00    +0.034 C 
ATOM     11 CL   UNL     1      -3.331  -7.203   5.564  0.00  0.00    -0.112 Cl
ENDBRANCH   6   9
BRANCH   1  12
ATOM     12  C   UNL     1      -1.999  -3.093  -0.006  0.00  0.00    +0.164 C 
BRANCH  12  16
ATOM     13  C   UNL     1      -0.018   1.503   0.010  0.00  0.00    +0.073 C 
ATOM     14  C   UNL     1       0.002  -0.004   0.002  0.00  0.00    +0.076 A 
ATOM     15  N   UNL     1      -1.013  -0.832   0.002  0.00  0.00    -0.248 NA
ATOM     16  C   UNL     1      -0.834  -2.137  -0.006  0.00  0.00    +0.066 A 
ATOM     17  C   UNL     1       0.449  -2.582  -0.014  0.00  0.00    +0.071 A 
ATOM     18  S   UNL     1       1.335  -1.032  -0.017  0.00  0.00    -0.080 S 
ENDBRANCH  12  16
ENDBRANCH   1  12
TORSDOF 3
