REMARK  Name = ZINC39630079
REMARK  6 active torsions:
REMARK  status: ('A' for Active; 'I' for Inactive)
REMARK    1  A    between atoms: N_3  and  C_6
REMARK    2  A    between atoms: C_6  and  C_7
REMARK    3  A    between atoms: C_7  and  C_8
REMARK    4  A    between atoms: C_8  and  N_9
REMARK    5  A    between atoms: C_10  and  C_12
REMARK    6  A    between atoms: C_23  and  C_25
REMARK                            x       y       z     vdW  Elec       q    Type
REMARK                         _______ _______ _______ _____ _____    ______ ____
ROOT
ATOM      1  C   UNL     1       7.919   0.555   4.420  0.00  0.00    +0.100 C 
ATOM      2  C   UNL     1       7.364  -0.669   5.183  0.00  0.00    +0.121 C 
ATOM      3  N   UNL     1       8.419  -1.701   5.052  0.00  0.00    -0.300 N 
ATOM      4  C   UNL     1       9.690  -0.949   5.192  0.00  0.00    +0.115 C 
ATOM      5  C   UNL     1       9.445   0.369   4.432  0.00  0.00    -0.004 C 
ATOM      6  C   UNL     1      10.113   1.531   5.162  0.00  0.00    -0.010 C 
ATOM      7  C   UNL     1      11.633   1.354   5.110  0.00  0.00    -0.082 C 
ATOM      8  N   UNL     1      12.075   1.310   3.711  0.00  0.00    +0.379 N 
ATOM      9  C   UNL     1      11.501   0.136   3.041  0.00  0.00    -0.082 C 
ATOM     10  C   UNL     1       9.975   0.262   3.006  0.00  0.00    -0.010 C 
ATOM     11  C   UNL     1       8.261  -3.024   4.851  0.00  0.00    +0.219 C 
ATOM     12  O   UNL     1       9.232  -3.746   4.765  0.00  0.00    -0.275 OA
ATOM     13  H   UNL     1      11.771   2.148   3.237  0.00  0.00    -0.086 HD
ATOM     14  H   UNL     1      13.082   1.255   3.679  0.00  0.00    -0.086 HD
ENDROOT
BRANCH   1  16
ATOM     15  N   UNL     1       7.261   1.740   2.351  0.00  0.00    -0.315 N 
ATOM     16  C   UNL     1       7.403   0.570   3.005  0.00  0.00    +0.218 C 
ATOM     17  O   UNL     1       7.115  -0.472   2.453  0.00  0.00    -0.275 OA
ATOM     18  H   UNL     1       7.491   2.572   2.792  0.00  0.00    +0.149 HD
BRANCH  15  19
ATOM     19  C   UNL     1       6.760   1.754   0.975  0.00  0.00    +0.106 C 
BRANCH  19  20
ATOM     20  C   UNL     1       6.695   3.197   0.470  0.00  0.00    +0.040 C 
BRANCH  20  21
ATOM     21  C   UNL     1       6.172   3.211  -0.968  0.00  0.00    +0.124 C 
BRANCH  21  24
ATOM     22  C   UNL     1       6.631   6.505  -2.360  0.00  0.00    +0.101 A 
ATOM     23  C   UNL     1       7.107   5.273  -2.095  0.00  0.00    +0.104 A 
ATOM     24  N   UNL     1       6.110   4.593  -1.451  0.00  0.00    -0.338 N 
ATOM     25  C   UNL     1       5.058   5.433  -1.343  0.00  0.00    +0.173 A 
ATOM     26  N   UNL     1       5.377   6.575  -1.889  0.00  0.00    -0.352 N 
ATOM     27  H   UNL     1       4.799   7.352  -1.945  0.00  0.00    +0.166 HD
ENDBRANCH  21  24
ENDBRANCH  20  21
ENDBRANCH  19  20
ENDBRANCH  15  19
ENDBRANCH   1  16
BRANCH  11  28
ATOM     28  C   UNL     1       6.876  -3.608   4.733  0.00  0.00    +0.075 C 
ATOM     29  C   UNL     1       6.207  -3.885   6.090  0.00  0.00    +0.013 C 
ATOM     30  C   UNL     1       5.669  -5.185   5.470  0.00  0.00    +0.001 C 
ATOM     31  C   UNL     1       6.866  -5.129   4.506  0.00  0.00    +0.013 C 
ENDBRANCH  11  28
TORSDOF 6
