REMARK  Name = ZINC37711113
REMARK  7 active torsions:
REMARK  status: ('A' for Active; 'I' for Inactive)
REMARK    1  A    between atoms: C_1  and  C_2
REMARK    2  A    between atoms: C_2  and  C_3
REMARK    3  A    between atoms: C_5  and  C_8
REMARK    4  A    between atoms: C_8  and  O_9
REMARK    5  A    between atoms: O_9  and  C_10
REMARK    6  A    between atoms: C_19  and  C_20
REMARK    7  A    between atoms: C_20  and  N_21
REMARK                            x       y       z     vdW  Elec       q    Type
REMARK                         _______ _______ _______ _____ _____    ______ ____
ROOT
ATOM      1  C   UNL     1       5.636  -0.546   3.999  0.00  0.00    +0.123 A 
ATOM      2  C   UNL     1       6.241  -1.805   3.932  0.00  0.00    +0.046 A 
ATOM      3  C   UNL     1       7.502  -2.001   4.402  0.00  0.00    +0.012 A 
ATOM      4  C   UNL     1       8.211  -0.925   4.964  0.00  0.00    -0.017 A 
ATOM      5  C   UNL     1       9.516  -1.093   5.459  0.00  0.00    +0.008 A 
ATOM      6  C   UNL     1      10.174  -0.029   5.997  0.00  0.00    +0.001 A 
ATOM      7  C   UNL     1       9.573   1.227   6.065  0.00  0.00    +0.001 A 
ATOM      8  C   UNL     1       8.312   1.426   5.595  0.00  0.00    +0.009 A 
ATOM      9  C   UNL     1       7.601   0.352   5.033  0.00  0.00    -0.013 A 
ATOM     10  C   UNL     1       6.299   0.522   4.534  0.00  0.00    -0.015 A 
ENDROOT
BRANCH   1  11
ATOM     11  O   UNL     1       4.375  -0.382   3.520  0.00  0.00    -0.482 OA
BRANCH  11  12
ATOM     12  C   UNL     1       3.734  -1.535   2.973  0.00  0.00    +0.327 C 
BRANCH  12  15
ATOM     13  C   UNL     1       0.731  -0.503   1.223  0.00  0.00    +0.172 A 
ATOM     14  N   UNL     1       2.045  -0.740   1.302  0.00  0.00    -0.193 NA
ATOM     15  C   UNL     1       2.353  -1.163   2.496  0.00  0.00    +0.265 A 
ATOM     16  O   UNL     1       1.232  -1.210   3.226  0.00  0.00    -0.334 OA
ATOM     17  N   UNL     1       0.185  -0.769   2.375  0.00  0.00    -0.061 NA
BRANCH  13  19
ATOM     18  C   UNL     1      -0.019   1.526   0.010  0.00  0.00    +0.012 C 
ATOM     19  C   UNL     1       0.002  -0.004   0.002  0.00  0.00    +0.076 C 
ENDBRANCH  13  19
ENDBRANCH  12  15
ENDBRANCH  11  12
ENDBRANCH   1  11
BRANCH  10  20
ATOM     20  C   UNL     1       5.635   1.873   4.593  0.00  0.00    -0.046 C 
BRANCH  20  21
ATOM     21  N   UNL     1       4.905   2.005   5.861  0.00  0.00    +0.381 N 
ATOM     22  H   UNL     1       4.461   2.910   5.901  0.00  0.00    -0.090 HD
ATOM     23  H   UNL     1       4.203   1.282   5.922  0.00  0.00    -0.090 HD
ATOM     24  H   UNL     1       5.550   1.913   6.632  0.00  0.00    -0.090 HD
ENDBRANCH  20  21
ENDBRANCH  10  20
TORSDOF 6
