REMARK  Name = ZINC63744040
REMARK  9 active torsions:
REMARK  status: ('A' for Active; 'I' for Inactive)
REMARK    1  A    between atoms: C_1  and  C_2
REMARK    2  A    between atoms: C_2  and  N_3
REMARK    3  A    between atoms: N_3  and  C_4
REMARK    4  A    between atoms: C_4  and  N_6
REMARK    5  A    between atoms: N_8  and  C_9
REMARK    6  A    between atoms: C_9  and  C_10
REMARK    7  A    between atoms: C_10  and  C_11
REMARK    8  A    between atoms: C_23  and  C_28
REMARK    9  A    between atoms: C_25  and  C_27
REMARK                            x       y       z     vdW  Elec       q    Type
REMARK                         _______ _______ _______ _____ _____    ______ ____
ROOT
ATOM      1  N   UNL     1      -2.858  -2.303   0.012  0.00  0.00    -0.160 NA
ATOM      2  C   UNL     1      -3.085  -3.602  -0.087  0.00  0.00    +0.195 C 
ATOM      3  N   UNL     1      -2.038  -4.478  -0.102  0.00  0.00    -0.357 N 
ATOM      4  N   UNL     1      -4.369  -4.068  -0.176  0.00  0.00    -0.297 N 
ATOM      5  C   UNL     1      -5.433  -3.176  -0.161  0.00  0.00    +0.231 A 
ATOM      6  N   UNL     1      -5.188  -1.879  -0.066  0.00  0.00    -0.217 NA
ATOM      7  C   UNL     1      -6.179  -1.002  -0.048  0.00  0.00    +0.044 A 
ATOM      8  C   UNL     1      -7.486  -1.458  -0.131  0.00  0.00    +0.046 A 
ATOM      9  C   UNL     1      -7.706  -2.823  -0.230  0.00  0.00    +0.044 A 
ATOM     10  N   UNL     1      -6.669  -3.644  -0.247  0.00  0.00    -0.217 NA
ATOM     11  C   UNL     1      -9.109  -3.364  -0.322  0.00  0.00    +0.066 C 
ATOM     12  C   UNL     1      -5.891   0.473   0.061  0.00  0.00    +0.066 C 
ATOM     13  H   UNL     1      -1.134  -4.156   0.036  0.00  0.00    +0.162 HD
ATOM     14  H   UNL     1      -4.535  -5.021  -0.249  0.00  0.00    +0.171 HD
ENDROOT
BRANCH   1  15
ATOM     15  C   UNL     1      -1.601  -1.838  -0.014  0.00  0.00    +0.157 C 
ATOM     16  S   UNL     1      -0.576  -2.216  -1.332  0.00  0.00    -0.017 S 
BRANCH  15  17
ATOM     17  N   UNL     1      -1.144  -1.073   0.997  0.00  0.00    -0.325 N 
ATOM     18  H   UNL     1      -1.725  -0.859   1.744  0.00  0.00    +0.148 HD
BRANCH  17  20
ATOM     19  C   UNL     1       0.491   0.269   2.224  0.00  0.00    +0.024 C 
ATOM     20  C   UNL     1       0.230  -0.565   0.968  0.00  0.00    +0.100 C 
ENDBRANCH  17  20
ENDBRANCH  15  17
ENDBRANCH   1  15
BRANCH   3  21
ATOM     21  C   UNL     1      -2.281  -5.905  -0.328  0.00  0.00    +0.120 C 
BRANCH  21  22
ATOM     22  C   UNL     1      -0.943  -6.641  -0.421  0.00  0.00    +0.054 C 
BRANCH  22  23
ATOM     23  C   UNL     1      -1.193  -8.109  -0.653  0.00  0.00    -0.040 C 
ATOM     24  C   UNL     1      -1.212  -8.753  -1.843  0.00  0.00    -0.001 A 
ATOM     25  C   UNL     1      -1.015  -8.296  -3.224  0.00  0.00    +0.010 A 
ATOM     26  C   UNL     1      -1.097  -9.195  -4.230  0.00  0.00    +0.001 A 
ATOM     27  C   UNL     1      -1.365 -10.550  -3.988  0.00  0.00    +0.002 A 
ATOM     28  C   UNL     1      -1.557 -11.045  -2.747  0.00  0.00    +0.026 A 
ATOM     29  C   UNL     1      -1.493 -10.188  -1.614  0.00  0.00    +0.043 A 
ATOM     30  N   UNL     1      -1.642 -10.423  -0.333  0.00  0.00    -0.380 N 
ATOM     31  C   UNL     1      -1.466  -9.162   0.398  0.00  0.00    +0.144 C 
ATOM     32  H   UNL     1      -1.833 -11.286   0.066  0.00  0.00    +0.160 HD
ENDBRANCH  22  23
ENDBRANCH  21  22
ENDBRANCH   3  21
TORSDOF 6
