REMARK  Name = ZINC66829348
REMARK  6 active torsions:
REMARK  status: ('A' for Active; 'I' for Inactive)
REMARK    1  A    between atoms: C_1  and  C_2
REMARK    2  A    between atoms: C_2  and  C_4
REMARK    3  A    between atoms: C_2  and  C_7
REMARK    4  A    between atoms: C_4  and  S_5
REMARK    5  A    between atoms: S_5  and  C_6
REMARK    6  A    between atoms: C_13  and  N_16
REMARK                            x       y       z     vdW  Elec       q    Type
REMARK                         _______ _______ _______ _____ _____    ______ ____
ROOT
ATOM      1  C   UNL     1      -1.427  -0.468   0.121  0.00  0.00    +0.219 C 
ATOM      2  O   UNL     1      -1.893  -1.216  -0.712  0.00  0.00    -0.275 OA
ATOM      3  N   UNL     1      -2.188  -0.048   1.151  0.00  0.00    -0.299 N 
ATOM      4  C   UNL     1      -1.678   0.951   2.100  0.00  0.00    +0.108 C 
ATOM      5  C   UNL     1      -2.680   2.107   2.186  0.00  0.00    +0.021 C 
ATOM      6  C   UNL     1      -4.062   1.553   2.538  0.00  0.00    +0.025 C 
ATOM      7  C   UNL     1      -4.525   0.594   1.440  0.00  0.00    +0.095 C 
ATOM      8  C   UNL     1      -3.546  -0.575   1.342  0.00  0.00    +0.130 C 
ENDROOT
BRANCH   7   9
ATOM      9  N   UNL     1      -5.862   0.089   1.762  0.00  0.00    -0.280 N 
ATOM     10  C   UNL     1      -7.061   0.259   0.928  0.00  0.00    +0.128 C 
ATOM     11  C   UNL     1      -8.170  -0.454   1.726  0.00  0.00    +0.124 C 
ATOM     12  N   UNL     1      -7.478  -0.950   2.925  0.00  0.00    -0.298 N 
ATOM     13  C   UNL     1      -6.185  -0.606   2.861  0.00  0.00    +0.303 C 
ATOM     14  O   UNL     1      -5.378  -0.895   3.724  0.00  0.00    -0.253 OA
ATOM     15  H   UNL     1      -7.891  -1.450   3.646  0.00  0.00    +0.150 HD
ENDBRANCH   7   9
BRANCH   1  17
ATOM     16  C   UNL     1       0.049   1.341  -0.714  0.00  0.00    +0.018 C 
ATOM     17  C   UNL     1       0.004  -0.008   0.005  0.00  0.00    +0.082 C 
BRANCH  17  18
ATOM     18  C   UNL     1       0.807  -1.038  -0.792  0.00  0.00    +0.081 C 
BRANCH  18  19
ATOM     19  S   UNL     1       2.557  -0.560  -0.807  0.00  0.00    -0.163 S 
ATOM     20  C   UNL     1       3.360  -1.865  -1.778  0.00  0.00    +0.084 C 
ENDBRANCH  18  19
ENDBRANCH  17  18
ENDBRANCH   1  17
TORSDOF 4
