REMARK  Name = ZINC63136747
REMARK  6 active torsions:
REMARK  status: ('A' for Active; 'I' for Inactive)
REMARK    1  A    between atoms: C_1  and  O_2
REMARK    2  A    between atoms: O_2  and  C_3
REMARK    3  A    between atoms: C_9  and  C_12
REMARK    4  A    between atoms: C_12  and  C_13
REMARK    5  A    between atoms: C_13  and  N_14
REMARK    6  A    between atoms: C_15  and  C_17
REMARK                            x       y       z     vdW  Elec       q    Type
REMARK                         _______ _______ _______ _____ _____    ______ ____
ROOT
ATOM      1  C   UNL     1      -1.908  -5.176   0.009  0.00  0.00    +0.052 C 
ENDROOT
BRANCH   1   8
ATOM      2  C   UNL     1      -1.200  -0.637   0.010  0.00  0.00    +0.121 A 
ATOM      3  C   UNL     1      -2.375   0.135   0.020  0.00  0.00    +0.047 A 
ATOM      4  C   UNL     1      -3.607  -0.415   0.028  0.00  0.00    +0.029 A 
ATOM      5  C   UNL     1      -3.753  -1.875   0.027  0.00  0.00    +0.043 A 
ATOM      6  N   UNL     1      -4.809  -2.650   0.034  0.00  0.00    -0.380 N 
ATOM      7  C   UNL     1      -4.362  -4.047   0.029  0.00  0.00    +0.144 C 
ATOM      8  C   UNL     1      -2.851  -4.000   0.018  0.00  0.00    -0.040 C 
ATOM      9  C   UNL     1      -2.516  -2.690   0.016  0.00  0.00    +0.002 A 
ATOM     10  C   UNL     1      -1.226  -1.992   0.003  0.00  0.00    +0.055 A 
ATOM     11  H   UNL     1      -5.731  -2.350   0.042  0.00  0.00    +0.160 HD
BRANCH   2  13
ATOM     12  C   UNL     1      -0.017   1.425   0.010  0.00  0.00    +0.277 C 
ATOM     13  O   UNL     1       0.002  -0.004   0.002  0.00  0.00    -0.495 OA
ENDBRANCH   2  13
ENDBRANCH   1   8
BRANCH   1  14
ATOM     14  C   UNL     1      -1.676  -5.655   1.443  0.00  0.00    +0.108 C 
BRANCH  14  15
ATOM     15  N   UNL     1      -0.759  -6.798   1.434  0.00  0.00    -0.314 N 
ATOM     16  C   UNL     1      -0.408  -7.389   2.593  0.00  0.00    +0.225 C 
ATOM     17  O   UNL     1      -0.851  -6.975   3.644  0.00  0.00    -0.275 OA
ATOM     18  H   UNL     1      -0.405  -7.128   0.594  0.00  0.00    +0.149 HD
BRANCH  16  19
ATOM     19  C   UNL     1       0.535  -8.564   2.584  0.00  0.00    +0.160 C 
ATOM     20  C   UNL     1       0.769  -9.039   4.020  0.00  0.00    +0.023 C 
ATOM     21  C   UNL     1       1.498 -10.387   3.972  0.00  0.00    +0.020 C 
ATOM     22  C   UNL     1       0.552 -11.435   3.385  0.00  0.00    +0.104 C 
ATOM     23  N   UNL     1      -0.025 -10.958   2.135  0.00  0.00    -0.315 N 
ATOM     24  C   UNL     1      -0.062  -9.677   1.771  0.00  0.00    +0.225 C 
ATOM     25  O   UNL     1      -0.607  -9.394   0.725  0.00  0.00    -0.275 OA
ATOM     26  H   UNL     1      -0.407 -11.614   1.530  0.00  0.00    +0.149 HD
ENDBRANCH  16  19
ENDBRANCH  14  15
ENDBRANCH   1  14
TORSDOF 5
