REMARK  Name = ZINC61273471
REMARK  7 active torsions:
REMARK  status: ('A' for Active; 'I' for Inactive)
REMARK    1  A    between atoms: C_1  and  C_2
REMARK    2  A    between atoms: C_3  and  C_8
REMARK    3  A    between atoms: C_5  and  C_7
REMARK    4  A    between atoms: C_8  and  C_10
REMARK    5  A    between atoms: C_8  and  N_11
REMARK    6  A    between atoms: C_12  and  C_14
REMARK    7  A    between atoms: C_14  and  N_15
REMARK                            x       y       z     vdW  Elec       q    Type
REMARK                         _______ _______ _______ _____ _____    ______ ____
ROOT
ATOM      1  N   UNL     1      -0.978  -0.991  -3.359  0.00  0.00    -0.310 N 
ATOM      2  C   UNL     1      -1.540  -0.459  -4.462  0.00  0.00    +0.197 C 
ATOM      3  O   UNL     1      -1.243   0.664  -4.813  0.00  0.00    -0.278 OA
ATOM      4  H   UNL     1      -1.216  -1.889  -3.079  0.00  0.00    +0.149 HD
ENDROOT
BRANCH   1   5
ATOM      5  C   UNL     1      -0.008  -0.215  -2.583  0.00  0.00    +0.108 C 
ATOM      6  C   UNL     1       1.384  -0.381  -3.194  0.00  0.00    +0.033 C 
BRANCH   5   9
ATOM      7  C   UNL     1      -0.018   1.503   0.010  0.00  0.00    +0.066 C 
ATOM      8  C   UNL     1       0.002  -0.004   0.002  0.00  0.00    +0.051 A 
ATOM      9  C   UNL     1       0.006  -0.708  -1.159  0.00  0.00    +0.032 A 
ATOM     10  S   UNL     1       0.032  -2.379  -0.531  0.00  0.00    -0.075 S 
ATOM     11  C   UNL     1       0.036  -2.009   1.111  0.00  0.00    +0.076 A 
ATOM     12  N   UNL     1       0.023  -0.699   1.122  0.00  0.00    -0.249 NA
ATOM     13  C   UNL     1       0.055  -2.955   2.284  0.00  0.00    +0.073 C 
ENDBRANCH   5   9
ENDBRANCH   1   5
BRANCH   2  14
ATOM     14  C   UNL     1      -2.538  -1.258  -5.261  0.00  0.00    +0.019 C 
BRANCH  14  15
ATOM     15  N   UNL     1      -2.999  -0.461  -6.405  0.00  0.00    +0.386 N 
ATOM     16  C   UNL     1      -4.115  -1.173  -7.064  0.00  0.00    -0.077 C 
ATOM     17  C   UNL     1      -4.920  -0.180  -7.863  0.00  0.00    -0.003 C 
ATOM     18  C   UNL     1      -4.455  -0.108  -9.328  0.00  0.00    +0.079 C 
ATOM     19  N   UNL     1      -2.979  -0.142  -9.450  0.00  0.00    -0.318 NA
ATOM     20  C   UNL     1      -2.298   0.659  -8.459  0.00  0.00    +0.062 C 
ATOM     21  C   UNL     1      -1.919  -0.239  -7.266  0.00  0.00    -0.063 C 
ATOM     22  H   UNL     1      -2.638  -1.092  -9.445  0.00  0.00    +0.122 HD
ATOM     23  H   UNL     1      -3.336   0.429  -6.068  0.00  0.00    -0.081 HD
ENDBRANCH  14  15
ENDBRANCH   2  14
TORSDOF 4
