REMARK  Name = ZINC42312979
REMARK  7 active torsions:
REMARK  status: ('A' for Active; 'I' for Inactive)
REMARK    1  A    between atoms: C_1  and  C_2
REMARK    2  A    between atoms: C_5  and  C_7
REMARK    3  A    between atoms: C_10  and  C_12
REMARK    4  A    between atoms: C_12  and  N_13
REMARK    5  A    between atoms: N_13  and  C_14
REMARK    6  A    between atoms: C_14  and  C_16
REMARK    7  A    between atoms: C_14  and  C_17
REMARK                            x       y       z     vdW  Elec       q    Type
REMARK                         _______ _______ _______ _____ _____    ______ ____
ROOT
ATOM      1  N   UNL     1      -2.278  -5.518   0.663  0.00  0.00    +0.388 N 
ATOM      2  H   UNL     1      -2.928  -5.240   1.382  0.00  0.00    -0.084 HD
ATOM      3  H   UNL     1      -2.348  -4.882  -0.117  0.00  0.00    -0.084 HD
ENDROOT
BRANCH   1   4
ATOM      4  C   UNL     1      -2.596  -6.880   0.214  0.00  0.00    -0.043 C 
ATOM      5  C   UNL     1      -2.613  -7.823   1.419  0.00  0.00    -0.009 C 
BRANCH   4   6
ATOM      6  C   UNL     1      -3.950  -6.887  -0.448  0.00  0.00    -0.062 A 
ATOM      7  C   UNL     1      -4.981  -6.131   0.079  0.00  0.00    +0.003 A 
ATOM      8  C   UNL     1      -6.223  -6.137  -0.528  0.00  0.00    +0.015 A 
ATOM      9  C   UNL     1      -6.434  -6.899  -1.663  0.00  0.00    +0.018 A 
ATOM     10  C   UNL     1      -5.402  -7.655  -2.189  0.00  0.00    +0.015 A 
ATOM     11  C   UNL     1      -4.159  -7.644  -1.585  0.00  0.00    +0.003 A 
ATOM     12 BR   UNL     1      -8.133  -6.908  -2.493  0.00  0.00    -0.050 Br
ENDBRANCH   4   6
ENDBRANCH   1   4
BRANCH   1  13
ATOM     13  C   UNL     1      -0.911  -5.486   1.200  0.00  0.00    -0.006 C 
BRANCH  13  17
ATOM     14  C   UNL     1       0.118  -2.011   1.645  0.00  0.00    +0.108 A 
ATOM     15  C   UNL     1      -0.345  -2.257   2.884  0.00  0.00    +0.045 A 
ATOM     16  C   UNL     1      -0.798  -3.596   2.893  0.00  0.00    +0.043 A 
ATOM     17  C   UNL     1      -0.584  -4.089   1.660  0.00  0.00    +0.088 A 
ATOM     18  O   UNL     1      -0.034  -3.122   0.906  0.00  0.00    -0.466 OA
BRANCH  14  22
ATOM     19  C   UNL     1      -0.019   1.526   0.010  0.00  0.00    +0.008 C 
ATOM     20  C   UNL     1       0.002  -0.004   0.002  0.00  0.00    -0.003 C 
ATOM     21  C   UNL     1       1.351  -0.691  -0.221  0.00  0.00    +0.015 C 
ATOM     22  C   UNL     1       0.703  -0.708   1.166  0.00  0.00    +0.058 C 
ENDBRANCH  14  22
ENDBRANCH  13  17
ENDBRANCH   1  13
TORSDOF 5
