REMARK  Name = ZINC19721766
REMARK  7 active torsions:
REMARK  status: ('A' for Active; 'I' for Inactive)
REMARK    1  A    between atoms: C_1  and  C_2
REMARK    2  A    between atoms: C_2  and  C_3
REMARK    3  A    between atoms: C_2  and  C_4
REMARK    4  A    between atoms: C_5  and  C_11
REMARK    5  A    between atoms: C_6  and  N_10
REMARK    6  A    between atoms: N_7  and  C_9
REMARK    7  A    between atoms: C_14  and  N_17
REMARK                            x       y       z     vdW  Elec       q    Type
REMARK                         _______ _______ _______ _____ _____    ______ ____
ROOT
ATOM      1  C   UNL     1      -3.419   2.124   0.030  0.00  0.00    +0.075 A 
ATOM      2  C   UNL     1      -2.483   1.072   0.020  0.00  0.00    +0.044 A 
ATOM      3  C   UNL     1      -1.223   1.643   0.017  0.00  0.00    +0.122 A 
ATOM      4  N   UNL     1      -1.391   2.985   0.031  0.00  0.00    -0.253 N 
ATOM      5  N   UNL     1      -2.764   3.255   0.033  0.00  0.00    -0.174 NA
ATOM      6  C   UNL     1      -0.320   3.984   0.039  0.00  0.00    +0.174 C 
ENDROOT
BRANCH   2   7
ATOM      7  C   UNL     1      -2.791  -0.379   0.014  0.00  0.00    -0.013 A 
ATOM      8  C   UNL     1      -3.445  -0.951  -1.076  0.00  0.00    +0.011 A 
ATOM      9  C   UNL     1      -3.725  -2.302  -1.078  0.00  0.00    +0.033 A 
ATOM     10  C   UNL     1      -3.367  -3.087   0.003  0.00  0.00    +0.126 A 
ATOM     11  C   UNL     1      -2.722  -2.524   1.090  0.00  0.00    +0.033 A 
ATOM     12  C   UNL     1      -2.432  -1.175   1.101  0.00  0.00    +0.011 A 
BRANCH  10  13
ATOM     13  N   UNL     1      -3.675  -4.535  -0.003  0.00  0.00    +0.056 N 
ATOM     14  O   UNL     1      -3.361  -5.228   0.948  0.00  0.00    -0.126 OA
ATOM     15  O   UNL     1      -4.243  -5.033  -0.958  0.00  0.00    -0.126 OA
ENDBRANCH  10  13
ENDBRANCH   2   7
BRANCH   1  17
ATOM     16  C   UNL     1      -5.493   2.632   1.291  0.00  0.00    +0.014 C 
ATOM     17  C   UNL     1      -4.918   1.973   0.035  0.00  0.00    +0.034 C 
ATOM     18  C   UNL     1      -5.504   2.646  -1.208  0.00  0.00    +0.014 C 
ENDBRANCH   1  17
BRANCH   3  19
ATOM     19  N   UNL     1      -0.011   0.966   0.007  0.00  0.00    -0.343 N 
ATOM     20  H   UNL     1       0.934   1.529   0.006  0.00  0.00    +0.144 HD
ATOM     21  H   UNL     1       0.004  -0.134   0.001  0.00  0.00    +0.144 HD
ENDBRANCH   3  19
TORSDOF 4
