REMARK  Name = ZINC12794521
REMARK  7 active torsions:
REMARK  status: ('A' for Active; 'I' for Inactive)
REMARK    1  A    between atoms: C_1  and  C_2
REMARK    2  A    between atoms: C_2  and  C_4
REMARK    3  A    between atoms: C_2  and  N_51
REMARK    4  A    between atoms: C_11  and  C_12
REMARK    5  A    between atoms: C_11  and  N_51
REMARK    6  A    between atoms: C_12  and  C_13
REMARK    7  A    between atoms: N_15  and  N_16
REMARK                            x       y       z     vdW  Elec       q    Type
REMARK                         _______ _______ _______ _____ _____    ______ ____
ROOT
ATOM      1  C   UNL     1       6.746   3.917  -2.362  0.00  0.00    +0.228 C 
ATOM      2  O   UNL     1       6.669   5.125  -2.292  0.00  0.00    -0.274 OA
ATOM      3  N   UNL     1       7.809   3.344  -2.960  0.00  0.00    -0.224 N 
ATOM      4  H   UNL     1       7.871   2.377  -3.017  0.00  0.00    +0.174 HD
ENDROOT
BRANCH   3   5
ATOM      5  N   UNL     1       8.825   4.144  -3.500  0.00  0.00    -0.137 N 
ATOM      6  C   UNL     1      10.036   4.318  -2.932  0.00  0.00    +0.263 C 
ATOM      7  O   UNL     1      10.438   3.830  -1.897  0.00  0.00    -0.271 OA
ATOM      8  C   UNL     1      10.787   5.248  -3.857  0.00  0.00    +0.114 C 
ATOM      9  C   UNL     1      12.034   4.561  -4.403  0.00  0.00    +0.035 C 
ATOM     10  C   UNL     1      12.764   5.508  -5.359  0.00  0.00    +0.003 C 
ATOM     11  C   UNL     1      13.151   6.786  -4.612  0.00  0.00    +0.000 C 
ATOM     12  C   UNL     1      11.887   7.476  -4.092  0.00  0.00    +0.003 C 
ATOM     13  C   UNL     1      11.154   6.537  -3.131  0.00  0.00    +0.035 C 
ATOM     14  N   UNL     1       9.833   5.519  -4.940  0.00  0.00    -0.284 N 
ATOM     15  C   UNL     1       8.716   4.826  -4.647  0.00  0.00    +0.326 C 
ATOM     16  O   UNL     1       7.720   4.822  -5.344  0.00  0.00    -0.251 OA
ATOM     17  H   UNL     1       9.979   6.083  -5.715  0.00  0.00    +0.151 HD
ENDBRANCH   3   5
BRANCH   1  18
ATOM     18  C   UNL     1       5.654   3.057  -1.782  0.00  0.00    +0.078 C 
BRANCH  18  19
ATOM     19  C   UNL     1       4.574   3.950  -1.167  0.00  0.00    -0.072 C 
BRANCH  19  20
ATOM     20  N   UNL     1       3.509   3.100  -0.601  0.00  0.00    +0.384 N 
ATOM     21  H   UNL     1       3.102   2.524  -1.348  0.00  0.00    -0.085 HD
ATOM     22  H   UNL     1       3.910   2.490   0.121  0.00  0.00    -0.085 HD
BRANCH  20  24
ATOM     23  C   UNL     1       2.840   4.297   1.435  0.00  0.00    -0.009 C 
ATOM     24  C   UNL     1       2.452   3.936  -0.001  0.00  0.00    -0.043 C 
BRANCH  24  25
ATOM     25  C   UNL     1       1.157   3.165   0.008  0.00  0.00    -0.043 A 
ATOM     26  C   UNL     1       1.175   1.783   0.000  0.00  0.00    +0.003 A 
ATOM     27  C   UNL     1      -0.013   1.076   0.008  0.00  0.00    +0.000 A 
ATOM     28  C   UNL     1      -1.219   1.750   0.017  0.00  0.00    +0.001 A 
ATOM     29  C   UNL     1      -1.239   3.132   0.031  0.00  0.00    +0.020 A 
ATOM     30  C   UNL     1      -0.050   3.841   0.023  0.00  0.00    +0.043 A 
ATOM     31 CL   UNL     1      -0.074   5.576   0.033  0.00  0.00    -0.083 Cl
ENDBRANCH  24  25
ENDBRANCH  20  24
ENDBRANCH  19  20
ENDBRANCH  18  19
ENDBRANCH   1  18
TORSDOF 6
