REMARK  Name = ZINC50672043
REMARK  6 active torsions:
REMARK  status: ('A' for Active; 'I' for Inactive)
REMARK    1  A    between atoms: C_1  and  N_2
REMARK    2  A    between atoms: C_7  and  C_9
REMARK    3  A    between atoms: C_9  and  N_10
REMARK    4  A    between atoms: N_10  and  S_11
REMARK    5  A    between atoms: S_11  and  C_14
REMARK    6  A    between atoms: C_19  and  N_20
REMARK                            x       y       z     vdW  Elec       q    Type
REMARK                         _______ _______ _______ _____ _____    ______ ____
ROOT
ATOM      1  S   UNL     1       3.258   2.873   1.730  0.00  0.00    +0.062 S 
ATOM      2  O   UNL     1       2.889   4.243   1.654  0.00  0.00    -0.153 OA
ATOM      3  O   UNL     1       3.816   2.298   2.903  0.00  0.00    -0.153 OA
ENDROOT
BRANCH   1   4
ATOM      4  C   UNL     1       4.415   2.592   0.431  0.00  0.00    +0.146 A 
ATOM      5  C   UNL     1       5.615   1.951   0.688  0.00  0.00    +0.048 A 
ATOM      6  C   UNL     1       6.497   1.750  -0.366  0.00  0.00    +0.038 A 
ATOM      7  C   UNL     1       6.154   2.193  -1.629  0.00  0.00    +0.128 A 
ATOM      8  N   UNL     1       5.003   2.801  -1.843  0.00  0.00    -0.238 NA
ATOM      9  C   UNL     1       4.133   3.005  -0.867  0.00  0.00    +0.143 A 
ATOM     10 BR   UNL     1       8.151   0.881  -0.074  0.00  0.00    -0.049 Br
BRANCH   9  11
ATOM     11  N   UNL     1       2.929   3.644  -1.139  0.00  0.00    -0.342 N 
ATOM     12  H   UNL     1       2.305   3.830  -0.420  0.00  0.00    +0.144 HD
ATOM     13  H   UNL     1       2.713   3.905  -2.048  0.00  0.00    +0.144 HD
ENDBRANCH   9  11
ENDBRANCH   1   4
BRANCH   1  14
ATOM     14  N   UNL     1       1.899   1.996   1.373  0.00  0.00    -0.191 NA
ATOM     15  H   UNL     1       1.064   2.452   1.185  0.00  0.00    +0.148 HD
BRANCH  14  16
ATOM     16  C   UNL     1       1.959   0.533   1.341  0.00  0.00    +0.090 C 
BRANCH  16  23
ATOM     17  C   UNL     1       0.603   0.153   3.770  0.00  0.00    -0.096 C 
ATOM     18  N   UNL     1      -0.162   0.484   2.560  0.00  0.00    +0.381 N 
ATOM     19  C   UNL     1      -1.499  -0.116   2.649  0.00  0.00    -0.079 C 
ATOM     20  C   UNL     1      -2.328   0.293   1.430  0.00  0.00    -0.019 C 
ATOM     21  C   UNL     1      -1.630  -0.197   0.158  0.00  0.00    -0.003 C 
ATOM     22  C   UNL     1      -0.211   0.375   0.113  0.00  0.00    -0.014 C 
ATOM     23  C   UNL     1       0.540  -0.037   1.381  0.00  0.00    -0.053 C 
ATOM     24  H   UNL     1      -0.250   1.486   2.483  0.00  0.00    -0.082 HD
ENDBRANCH  16  23
ENDBRANCH  14  16
ENDBRANCH   1  14
TORSDOF 5
