REMARK  Name = ZINC38002882
REMARK  6 active torsions:
REMARK  status: ('A' for Active; 'I' for Inactive)
REMARK    1  A    between atoms: C_1  and  C_2
REMARK    2  A    between atoms: C_2  and  C_4
REMARK    3  A    between atoms: C_2  and  N_10
REMARK    4  A    between atoms: N_10  and  C_11
REMARK    5  A    between atoms: C_11  and  C_13
REMARK    6  A    between atoms: C_11  and  C_14
REMARK                            x       y       z     vdW  Elec       q    Type
REMARK                         _______ _______ _______ _____ _____    ______ ____
ROOT
ATOM      1  N   UNL     1      -1.376  -0.512   0.012  0.00  0.00    +0.390 N 
ATOM      2  H   UNL     1      -1.888  -0.113  -0.760  0.00  0.00    -0.084 HD
ATOM      3  H   UNL     1      -1.364  -1.518  -0.076  0.00  0.00    -0.084 HD
ENDROOT
BRANCH   1   5
ATOM      4  C   UNL     1      -0.019   1.526   0.010  0.00  0.00    -0.008 C 
ATOM      5  C   UNL     1       0.002  -0.004   0.002  0.00  0.00    -0.036 C 
BRANCH   5   6
ATOM      6  C   UNL     1       0.707  -0.490  -1.238  0.00  0.00    -0.023 A 
ATOM      7  C   UNL     1       1.980  -0.934  -1.377  0.00  0.00    +0.010 A 
ATOM      8  C   UNL     1       2.418  -1.335  -2.625  0.00  0.00    +0.023 A 
ATOM      9  C   UNL     1       1.561  -1.271  -3.674  0.00  0.00    +0.055 A 
ATOM     10  S   UNL     1       0.081  -0.638  -2.903  0.00  0.00    -0.088 S 
ATOM     11 BR   UNL     1       1.854  -1.740  -5.483  0.00  0.00    -0.043 Br
ENDBRANCH   5   6
ENDBRANCH   1   5
BRANCH   1  12
ATOM     12  C   UNL     1      -2.026  -0.140   1.276  0.00  0.00    -0.006 C 
ATOM     13  C   UNL     1      -1.325  -0.846   2.438  0.00  0.00    -0.006 C 
BRANCH  12  14
ATOM     14  C   UNL     1      -3.475  -0.553   1.237  0.00  0.00    +0.092 A 
ATOM     15  C   UNL     1      -4.493   0.175   1.714  0.00  0.00    +0.051 A 
ATOM     16  C   UNL     1      -5.709  -0.609   1.464  0.00  0.00    +0.020 A 
ATOM     17  C   UNL     1      -7.066  -0.412   1.717  0.00  0.00    +0.011 A 
ATOM     18  C   UNL     1      -7.970  -1.368   1.347  0.00  0.00    +0.001 A 
ATOM     19  C   UNL     1      -7.546  -2.532   0.722  0.00  0.00    +0.004 A 
ATOM     20  C   UNL     1      -6.209  -2.744   0.464  0.00  0.00    +0.047 A 
ATOM     21  C   UNL     1      -5.273  -1.786   0.831  0.00  0.00    +0.135 A 
ATOM     22  O   UNL     1      -3.933  -1.704   0.713  0.00  0.00    -0.461 OA
ENDBRANCH  12  14
ENDBRANCH   1  12
TORSDOF 4
