REMARK  Name = ZINC38777155
REMARK  6 active torsions:
REMARK  status: ('A' for Active; 'I' for Inactive)
REMARK    1  A    between atoms: C_1  and  C_2
REMARK    2  A    between atoms: C_6  and  C_8
REMARK    3  A    between atoms: C_12  and  C_15
REMARK    4  A    between atoms: C_18  and  C_21
REMARK    5  A    between atoms: C_21  and  C_22
REMARK    6  A    between atoms: C_21  and  C_23
REMARK                            x       y       z     vdW  Elec       q    Type
REMARK                         _______ _______ _______ _____ _____    ______ ____
ROOT
ATOM      1  C   UNL     1       0.054  -2.845   2.489  0.00  0.00    +0.233 C 
ATOM      2  N   UNL     1       0.884  -2.127   3.482  0.00  0.00    -0.223 NA
ATOM      3  N   UNL     1       1.573  -3.208   4.207  0.00  0.00    -0.225 NA
ATOM      4  C   UNL     1       1.823  -4.202   3.130  0.00  0.00    +0.232 C 
ATOM      5  O   UNL     1       0.649  -4.136   2.293  0.00  0.00    -0.335 OA
ATOM      6  H   UNL     1       0.309  -1.581   4.108  0.00  0.00    +0.144 HD
ATOM      7  H   UNL     1       2.441  -2.881   4.605  0.00  0.00    +0.143 HD
ENDROOT
BRANCH   1  13
ATOM      8  C   UNL     1      -0.018   1.503   0.010  0.00  0.00    +0.044 C 
ATOM      9  C   UNL     1       0.002  -0.004   0.002  0.00  0.00    -0.050 A 
ATOM     10  C   UNL     1       0.006  -0.689  -1.199  0.00  0.00    +0.003 A 
ATOM     11  C   UNL     1       0.025  -2.071  -1.207  0.00  0.00    +0.001 A 
ATOM     12  C   UNL     1       0.040  -2.768  -0.013  0.00  0.00    +0.007 A 
ATOM     13  C   UNL     1       0.037  -2.084   1.188  0.00  0.00    -0.003 A 
ATOM     14  C   UNL     1       0.023  -0.702   1.195  0.00  0.00    +0.011 A 
ENDBRANCH   1  13
BRANCH   4  15
ATOM     15  C   UNL     1       1.978  -5.604   3.722  0.00  0.00    +0.197 C 
ATOM     16  C   UNL     1       2.297  -6.614   2.635  0.00  0.00    +0.030 C 
ATOM     17  C   UNL     1       1.268  -7.464   2.674  0.00  0.00    +0.064 C 
ATOM     18  N   UNL     1       0.383  -7.102   3.630  0.00  0.00    -0.158 NA
ATOM     19  N   UNL     1       0.695  -6.085   4.262  0.00  0.00    -0.176 NA
BRANCH  17  20
ATOM     20  C   UNL     1       1.113  -8.663   1.775  0.00  0.00    +0.033 C 
ATOM     21  C   UNL     1       1.049  -9.933   2.626  0.00  0.00    +0.014 C 
ATOM     22  C   UNL     1      -0.175  -8.528   0.961  0.00  0.00    +0.014 C 
ENDBRANCH  17  20
ENDBRANCH   4  15
TORSDOF 3
