REMARK  Name = ZINC62752468
REMARK  4 active torsions:
REMARK  status: ('A' for Active; 'I' for Inactive)
REMARK    1  A    between atoms: C_1  and  C_2
REMARK    2  A    between atoms: C_2  and  C_3
REMARK    3  A    between atoms: C_7  and  C_20
REMARK    4  A    between atoms: C_9  and  N_12
REMARK                            x       y       z     vdW  Elec       q    Type
REMARK                         _______ _______ _______ _____ _____    ______ ____
ROOT
ATOM      1  C   UNL     1       2.440   0.028  -1.642  0.00  0.00    -0.013 C 
ATOM      2  C   UNL     1       3.537  -1.024  -1.824  0.00  0.00    +0.004 C 
ATOM      3  C   UNL     1       3.962  -1.559  -0.456  0.00  0.00    +0.013 C 
ATOM      4  C   UNL     1       2.756  -2.194   0.240  0.00  0.00    +0.089 C 
ATOM      5  C   UNL     1       1.660  -1.143   0.422  0.00  0.00    -0.054 C 
ATOM      6  C   UNL     1       1.235  -0.607  -0.946  0.00  0.00    -0.011 C 
ENDROOT
BRANCH   5   7
ATOM      7  N   UNL     1       0.502  -1.752   1.091  0.00  0.00    +0.384 N 
ATOM      8  C   UNL     1      -0.068  -2.781   0.219  0.00  0.00    -0.055 C 
ATOM      9  C   UNL     1      -1.036  -3.663   1.017  0.00  0.00    +0.147 C 
ATOM     10  S   UNL     1      -2.410  -2.625   1.604  0.00  0.00    -0.034 S 
ATOM     11  O   UNL     1      -3.116  -3.336   2.611  0.00  0.00    -0.174 OA
ATOM     12  O   UNL     1      -3.119  -2.131   0.476  0.00  0.00    -0.174 OA
ATOM     13  C   UNL     1      -1.519  -1.245   2.386  0.00  0.00    +0.147 C 
ATOM     14  C   UNL     1      -0.482  -0.711   1.392  0.00  0.00    -0.055 C 
ATOM     15  H   UNL     1       0.806  -2.180   1.953  0.00  0.00    -0.081 HD
ENDBRANCH   5   7
BRANCH   4  16
ATOM     16  C   UNL     1       3.175  -2.722   1.589  0.00  0.00    +0.357 C 
ATOM     17  O   UNL     1       3.587  -1.955   2.442  0.00  0.00    -0.246 OA
ATOM     18  O   UNL     1       3.102  -3.916   1.825  0.00  0.00    -0.246 OA
ENDBRANCH   4  16
BRANCH   1  20
ATOM     19  C   UNL     1       4.100   1.893  -1.540  0.00  0.00    +0.004 C 
ATOM     20  C   UNL     1       2.975   1.179  -0.788  0.00  0.00    -0.000 C 
ENDBRANCH   1  20
TORSDOF 3
