REMARK  Name = ZINC05074935
REMARK  5 active torsions:
REMARK  status: ('A' for Active; 'I' for Inactive)
REMARK    1  A    between atoms: C_1  and  C_2
REMARK    2  A    between atoms: C_5  and  C_8
REMARK    3  A    between atoms: C_8  and  S_9
REMARK    4  A    between atoms: S_9  and  C_10
REMARK    5  A    between atoms: C_18  and  C_28
REMARK                            x       y       z     vdW  Elec       q    Type
REMARK                         _______ _______ _______ _____ _____    ______ ____
ROOT
ATOM      1  C   UNL     1       1.632  -6.614  -0.043  0.00  0.00    +0.172 A 
ATOM      2  N   UNL     1       2.760  -7.379  -0.048  0.00  0.00    -0.322 N 
ATOM      3  H   UNL     1       3.632  -6.955  -0.047  0.00  0.00    +0.169 HD
ATOM      4  C   UNL     1       2.662  -8.745  -0.054  0.00  0.00    +0.111 A 
ATOM      5  C   UNL     1       1.432  -9.326  -0.052  0.00  0.00    +0.069 A 
ATOM      6  C   UNL     1       0.288  -8.498  -0.052  0.00  0.00    +0.280 A 
ATOM      7  O   UNL     1      -0.829  -8.993  -0.057  0.00  0.00    -0.265 OA
ATOM      8  N   UNL     1       0.435  -7.164  -0.039  0.00  0.00    -0.185 NA
ATOM      9  C   UNL     1       1.283 -10.819  -0.047  0.00  0.00    +0.092 C 
ATOM     10  C   UNL     1       2.561 -11.497  -0.472  0.00  0.00    +0.024 C 
ATOM     11  C   UNL     1       3.736 -10.834  -0.463  0.00  0.00    +0.017 C 
ATOM     12  N   UNL     1       3.795  -9.525  -0.065  0.00  0.00    -0.304 N 
ATOM     13  C   UNL     1       5.014 -11.510  -0.893  0.00  0.00    +0.051 C 
ATOM     14  C   UNL     1       4.939 -13.004  -0.571  0.00  0.00    +0.014 C 
ATOM     15  C   UNL     1       3.724 -13.595  -1.295  0.00  0.00    +0.080 C 
ATOM     16  C   UNL     1       2.491 -12.842  -0.877  0.00  0.00    +0.162 C 
ATOM     17  O   UNL     1       1.415 -13.406  -0.888  0.00  0.00    -0.292 OA
ATOM     18  H   UNL     1       4.644  -9.144   0.211  0.00  0.00    +0.153 HD
ENDROOT
BRANCH   9  19
ATOM     19  C   UNL     1       0.924 -11.274   1.344  0.00  0.00    -0.032 A 
ATOM     20  C   UNL     1       1.766 -11.017   2.415  0.00  0.00    +0.024 A 
ATOM     21  C   UNL     1       1.403 -11.449   3.676  0.00  0.00    +0.111 A 
ATOM     22  N   UNL     1       0.272 -12.099   3.867  0.00  0.00    -0.263 NA
ATOM     23  C   UNL     1      -0.553 -12.361   2.873  0.00  0.00    +0.111 A 
ATOM     24  C   UNL     1      -0.260 -11.954   1.585  0.00  0.00    +0.024 A 
ENDBRANCH   9  19
BRANCH   1  25
ATOM     25  S   UNL     1       1.777  -4.858  -0.034  0.00  0.00    -0.083 S 
BRANCH  25  26
ATOM     26  C   UNL     1       0.059  -4.275  -0.021  0.00  0.00    +0.112 C 
BRANCH  26  31
ATOM     27  C   UNL     1      -0.018   1.503   0.010  0.00  0.00    +0.044 C 
ATOM     28  C   UNL     1       0.002  -0.004   0.002  0.00  0.00    -0.050 A 
ATOM     29  C   UNL     1       0.006  -0.689  -1.199  0.00  0.00    +0.003 A 
ATOM     30  C   UNL     1       0.025  -2.071  -1.206  0.00  0.00    +0.005 A 
ATOM     31  C   UNL     1       0.040  -2.768  -0.013  0.00  0.00    -0.037 A 
ATOM     32  C   UNL     1       0.037  -2.084   1.188  0.00  0.00    +0.005 A 
ATOM     33  C   UNL     1       0.023  -0.702   1.195  0.00  0.00    +0.003 A 
ENDBRANCH  26  31
ENDBRANCH  25  26
ENDBRANCH   1  25
TORSDOF 4
