REMARK  Name = ZINC40636213
REMARK  5 active torsions:
REMARK  status: ('A' for Active; 'I' for Inactive)
REMARK    1  A    between atoms: C_1  and  N_2
REMARK    2  A    between atoms: N_2  and  C_3
REMARK    3  A    between atoms: C_12  and  C_14
REMARK    4  A    between atoms: C_17  and  O_21
REMARK    5  A    between atoms: O_21  and  C_22
REMARK                            x       y       z     vdW  Elec       q    Type
REMARK                         _______ _______ _______ _____ _____    ______ ____
ROOT
ATOM      1  C   UNL     1       0.013   1.427  -0.146  0.00  0.00    +0.133 C 
ATOM      2  N   UNL     1      -0.025  -0.030  -0.289  0.00  0.00    -0.292 N 
ATOM      3  C   UNL     1       1.165  -0.753  -0.745  0.00  0.00    +0.133 C 
ATOM      4  C   UNL     1      -1.155  -0.706  -0.002  0.00  0.00    +0.304 C 
ATOM      5  O   UNL     1      -2.200  -0.104   0.157  0.00  0.00    -0.252 OA
ATOM      6  N   UNL     1      -1.127  -2.049   0.110  0.00  0.00    -0.283 N 
ATOM      7  C   UNL     1       0.143  -2.755   0.332  0.00  0.00    +0.128 C 
ATOM      8  C   UNL     1       0.010  -3.619   1.592  0.00  0.00    +0.126 C 
ATOM      9  N   UNL     1      -1.229  -4.403   1.495  0.00  0.00    -0.300 N 
ATOM     10  C   UNL     1      -2.499  -3.697   1.274  0.00  0.00    +0.126 C 
ATOM     11  C   UNL     1      -2.367  -2.833   0.019  0.00  0.00    +0.128 C 
ATOM     12  C   UNL     1      -1.201  -5.746   1.607  0.00  0.00    +0.202 C 
ATOM     13  O   UNL     1      -0.147  -6.318   1.789  0.00  0.00    -0.277 OA
ENDROOT
BRANCH  12  14
ATOM     14  C   UNL     1      -2.480  -6.537   1.505  0.00  0.00    +0.019 C 
ATOM     15  C   UNL     1      -2.864  -6.754   0.020  0.00  0.00    +0.023 C 
ATOM     16  C   UNL     1      -3.742  -8.030   0.106  0.00  0.00    +0.100 C 
ATOM     17  C   UNL     1      -3.060  -8.846   1.224  0.00  0.00    -0.050 C 
ATOM     18  N   UNL     1      -2.288  -7.898   2.050  0.00  0.00    +0.388 N 
ATOM     19  H   UNL     1      -1.309  -8.141   2.020  0.00  0.00    -0.085 HD
ATOM     20  H   UNL     1      -2.615  -7.931   3.004  0.00  0.00    -0.085 HD
BRANCH  16  21
ATOM     21  O   UNL     1      -3.719  -8.743  -1.131  0.00  0.00    -0.382 OA
ATOM     22  C   UNL     1      -4.918  -9.473  -1.404  0.00  0.00    +0.194 C 
ENDBRANCH  16  21
ENDBRANCH  12  14
TORSDOF 2
