REMARK  Name = ZINC13759420
REMARK  10 active torsions:
REMARK  status: ('A' for Active; 'I' for Inactive)
REMARK    1  A    between atoms: C_1  and  C_2
REMARK    2  A    between atoms: C_5  and  C_26
REMARK    3  A    between atoms: C_11  and  N_23
REMARK    4  A    between atoms: C_12  and  N_22
REMARK    5  A    between atoms: N_16  and  C_17
REMARK    6  A    between atoms: C_17  and  C_18
REMARK    7  A    between atoms: C_18  and  C_19
REMARK    8  A    between atoms: C_19  and  N_54
REMARK    9  A    between atoms: C_20  and  N_54
REMARK   10  A    between atoms: C_21  and  N_54
REMARK                            x       y       z     vdW  Elec       q    Type
REMARK                         _______ _______ _______ _____ _____    ______ ____
ROOT
ATOM      1  C   UNL     1      -0.202   2.746  -1.386  0.00  0.00    +0.009 C 
ATOM      2  C   UNL     1      -0.862   1.564  -0.673  0.00  0.00    +0.004 C 
ATOM      3  C   UNL     1       0.185   0.479  -0.403  0.00  0.00    +0.009 C 
ATOM      4  C   UNL     1      -0.472  -0.672   0.363  0.00  0.00    +0.004 C 
ATOM      5  C   UNL     1      -1.077  -0.136   1.662  0.00  0.00    +0.109 C 
ATOM      6  N   UNL     1      -2.072   0.898   1.350  0.00  0.00    -0.313 N 
ATOM      7  C   UNL     1      -1.456   2.036   0.656  0.00  0.00    +0.109 C 
ATOM      8  C   UNL     1      -2.734   1.313   2.495  0.00  0.00    +0.159 A 
ATOM      9  C   UNL     1      -4.107   1.125   2.624  0.00  0.00    +0.205 A 
ATOM     10  C   UNL     1      -4.728   1.558   3.792  0.00  0.00    +0.154 A 
ATOM     11  N   UNL     1      -3.993   2.133   4.741  0.00  0.00    -0.197 NA
ATOM     12  C   UNL     1      -2.688   2.296   4.584  0.00  0.00    +0.219 A 
ATOM     13  N   UNL     1      -2.063   1.892   3.489  0.00  0.00    -0.197 NA
ATOM     14  N   UNL     1      -1.958   2.898   5.594  0.00  0.00    -0.313 N 
ATOM     15  C   UNL     1       0.580  -1.734   0.690  0.00  0.00    +0.009 C 
ATOM     16  H   UNL     1      -1.001   3.023   5.492  0.00  0.00    +0.149 HD
ENDROOT
BRANCH  10  17
ATOM     17  N   UNL     1      -6.093   1.391   3.964  0.00  0.00    -0.341 N 
ATOM     18  H   UNL     1      -6.622   0.971   3.268  0.00  0.00    +0.144 HD
ATOM     19  H   UNL     1      -6.519   1.695   4.781  0.00  0.00    +0.144 HD
ENDBRANCH  10  17
BRANCH   9  20
ATOM     20  N   UNL     1      -4.888   0.481   1.544  0.00  0.00    +0.063 N 
ATOM     21  O   UNL     1      -5.039  -0.727   1.539  0.00  0.00    -0.126 OA
ATOM     22  O   UNL     1      -5.380   1.160   0.661  0.00  0.00    -0.126 OA
ENDBRANCH   9  20
BRANCH  14  23
ATOM     23  C   UNL     1      -2.629   3.346   6.816  0.00  0.00    +0.102 C 
BRANCH  23  24
ATOM     24  C   UNL     1      -1.602   3.972   7.762  0.00  0.00    +0.000 C 
BRANCH  24  25
ATOM     25  C   UNL     1      -2.304   4.441   9.039  0.00  0.00    -0.078 C 
BRANCH  25  28
ATOM     26  C   UNL     1      -1.980   5.713  11.073  0.00  0.00    -0.097 C 
ATOM     27  C   UNL     1      -0.359   4.036  10.423  0.00  0.00    -0.097 C 
ATOM     28  N   UNL     1      -1.303   5.061   9.932  0.00  0.00    +0.376 N 
ATOM     29  H   UNL     1      -0.780   5.771   9.405  0.00  0.00    -0.083 HD
ENDBRANCH  25  28
ENDBRANCH  24  25
ENDBRANCH  23  24
ENDBRANCH  14  23
TORSDOF 6
