REMARK  Name = ZINC49067526
REMARK  1 active torsions:
REMARK  status: ('A' for Active; 'I' for Inactive)
REMARK    1  A    between atoms: C_11  and  C_14
REMARK                            x       y       z     vdW  Elec       q    Type
REMARK                         _______ _______ _______ _____ _____    ______ ____
ROOT
ATOM      1  C   UNL     1      -0.017   1.382   0.010  0.00  0.00    +0.022 A 
ATOM      2  C   UNL     1       1.164   2.101   0.002  0.00  0.00    +0.025 A 
ATOM      3  C   UNL     1       2.374   1.430  -0.013  0.00  0.00    +0.041 A 
ATOM      4  C   UNL     1       2.397   0.024  -0.026  0.00  0.00    +0.059 A 
ATOM      5  C   UNL     1       1.201  -0.689  -0.015  0.00  0.00    +0.035 A 
ATOM      6  C   UNL     1       0.002  -0.004   0.002  0.00  0.00    +0.042 A 
ATOM      7 CL   UNL     1      -1.493  -0.886   0.015  0.00  0.00    -0.084 Cl
ATOM      8  C   UNL     1       3.705  -0.656  -0.054  0.00  0.00    +0.248 C 
ATOM      9  O   UNL     1       3.777  -1.841  -0.317  0.00  0.00    -0.270 OA
ATOM     10  N   UNL     1       4.822   0.052   0.214  0.00  0.00    -0.288 N 
ATOM     11  C   UNL     1       4.751   1.459   0.609  0.00  0.00    +0.211 C 
ATOM     12  N   UNL     1       3.590   2.105  -0.015  0.00  0.00    -0.320 N 
ATOM     13  H   UNL     1       5.688  -0.380   0.144  0.00  0.00    +0.151 HD
ATOM     14  H   UNL     1       3.670   2.983  -0.420  0.00  0.00    +0.148 HD
ENDROOT
BRANCH  11  15
ATOM     15  C   UNL     1       4.623   1.550   2.108  0.00  0.00    +0.110 A 
ATOM     16  C   UNL     1       5.157   0.622   2.944  0.00  0.00    +0.095 A 
ATOM     17  S   UNL     1       4.716   1.216   4.452  0.00  0.00    +0.029 S 
ATOM     18  N   UNL     1       3.916   2.545   3.990  0.00  0.00    -0.110 NA
ATOM     19  N   UNL     1       3.989   2.538   2.704  0.00  0.00    -0.143 NA
ENDBRANCH  11  15
TORSDOF 1
