REMARK  Name = ZINC41141611
REMARK  8 active torsions:
REMARK  status: ('A' for Active; 'I' for Inactive)
REMARK    1  A    between atoms: C_1  and  C_2
REMARK    2  A    between atoms: C_5  and  C_8
REMARK    3  A    between atoms: C_11  and  C_22
REMARK    4  A    between atoms: N_13  and  C_14
REMARK    5  A    between atoms: C_19  and  O_20
REMARK    6  A    between atoms: O_20  and  C_21
REMARK    7  A    between atoms: C_22  and  C_23
REMARK    8  A    between atoms: C_23  and  N_24
REMARK                            x       y       z     vdW  Elec       q    Type
REMARK                         _______ _______ _______ _____ _____    ______ ____
ROOT
ATOM      1  C   UNL     1       0.059  -4.275  -0.021  0.00  0.00    +0.134 C 
ATOM      2  C   UNL     1       1.478  -4.803   0.275  0.00  0.00    +0.081 C 
ATOM      3  C   UNL     1       1.309  -5.594   1.553  0.00  0.00    +0.037 C 
ATOM      4  N   UNL     1       0.096  -5.551   1.927  0.00  0.00    -0.188 NA
ATOM      5  N   UNL     1      -0.743  -4.811   1.090  0.00  0.00    -0.213 N 
ENDROOT
BRANCH   1  10
ATOM      6  C   UNL     1      -0.018   1.503   0.010  0.00  0.00    +0.044 C 
ATOM      7  C   UNL     1       0.002  -0.004   0.002  0.00  0.00    -0.050 A 
ATOM      8  C   UNL     1       0.006  -0.689  -1.199  0.00  0.00    +0.004 A 
ATOM      9  C   UNL     1       0.025  -2.071  -1.206  0.00  0.00    +0.006 A 
ATOM     10  C   UNL     1       0.040  -2.768  -0.013  0.00  0.00    -0.025 A 
ATOM     11  C   UNL     1       0.037  -2.084   1.188  0.00  0.00    +0.006 A 
ATOM     12  C   UNL     1       0.023  -0.702   1.195  0.00  0.00    +0.004 A 
ENDBRANCH   1  10
BRANCH   5  13
ATOM     13  C   UNL     1      -2.115  -4.611   1.276  0.00  0.00    +0.094 A 
ATOM     14  C   UNL     1      -3.010  -4.947   0.269  0.00  0.00    +0.028 A 
ATOM     15  C   UNL     1      -4.364  -4.748   0.455  0.00  0.00    +0.002 A 
ATOM     16  C   UNL     1      -4.832  -4.216   1.642  0.00  0.00    +0.004 A 
ATOM     17  C   UNL     1      -3.947  -3.879   2.650  0.00  0.00    +0.047 A 
ATOM     18  C   UNL     1      -2.588  -4.080   2.474  0.00  0.00    +0.143 A 
BRANCH  18  19
ATOM     19  O   UNL     1      -1.717  -3.755   3.466  0.00  0.00    -0.493 OA
ATOM     20  C   UNL     1      -2.273  -3.215   4.667  0.00  0.00    +0.277 C 
ENDBRANCH  18  19
ENDBRANCH   5  13
BRANCH   3  21
ATOM     21  C   UNL     1       2.413  -6.323   2.273  0.00  0.00    +0.033 C 
BRANCH  21  22
ATOM     22  C   UNL     1       1.847  -7.001   3.522  0.00  0.00    -0.081 C 
BRANCH  22  23
ATOM     23  N   UNL     1       2.923  -7.712   4.224  0.00  0.00    +0.378 N 
ATOM     24  H   UNL     1       3.320  -8.410   3.613  0.00  0.00    -0.090 HD
ATOM     25  H   UNL     1       3.640  -7.055   4.495  0.00  0.00    -0.090 HD
ATOM     26  H   UNL     1       2.549  -8.160   5.048  0.00  0.00    -0.090 HD
ENDBRANCH  22  23
ENDBRANCH  21  22
ENDBRANCH   3  21
TORSDOF 6
