REMARK  Name = ZINC05122709
REMARK  4 active torsions:
REMARK  status: ('A' for Active; 'I' for Inactive)
REMARK    1  A    between atoms: C_1  and  S_2
REMARK    2  A    between atoms: S_2  and  C_3
REMARK    3  A    between atoms: C_18  and  S_22
REMARK    4  A    between atoms: S_22  and  N_25
REMARK                            x       y       z     vdW  Elec       q    Type
REMARK                         _______ _______ _______ _____ _____    ______ ____
ROOT
ATOM      1  C   UNL     1       2.405  -0.001  -0.021  0.00  0.00    +0.034 A 
ATOM      2  C   UNL     1       2.374   1.377  -0.013  0.00  0.00    +0.017 A 
ATOM      3  C   UNL     1       1.175   2.072   0.002  0.00  0.00    +0.002 A 
ATOM      4  C   UNL     1      -0.017   1.370   0.010  0.00  0.00    +0.017 A 
ATOM      5  C   UNL     1       0.002  -0.004   0.002  0.00  0.00    +0.042 A 
ATOM      6  C   UNL     1       1.200  -0.751  -0.013  0.00  0.00    +0.094 A 
ATOM      7  N   UNL     1       1.053  -2.094  -0.019  0.00  0.00    -0.223 NA
ATOM      8  C   UNL     1      -0.124  -2.675  -0.010  0.00  0.00    +0.165 A 
ATOM      9  S   UNL     1      -1.238  -1.277   0.008  0.00  0.00    -0.052 S 
ATOM     10  N   UNL     1      -0.426  -4.025  -0.014  0.00  0.00    -0.273 N 
ATOM     11  C   UNL     1      -1.746  -4.439  -0.003  0.00  0.00    +0.165 A 
ATOM     12  N   UNL     1      -2.837  -3.709   0.010  0.00  0.00    -0.225 NA
ATOM     13  C   UNL     1      -4.074  -4.253   0.019  0.00  0.00    +0.080 A 
ATOM     14  C   UNL     1      -5.321  -3.586   0.035  0.00  0.00    +0.031 A 
ATOM     15  C   UNL     1      -6.494  -4.295   0.043  0.00  0.00    +0.030 A 
ATOM     16  C   UNL     1      -6.502  -5.682   0.037  0.00  0.00    +0.106 A 
ATOM     17  C   UNL     1      -5.301  -6.367   0.022  0.00  0.00    +0.045 A 
ATOM     18  C   UNL     1      -4.121  -5.665   0.014  0.00  0.00    +0.043 A 
ATOM     19  S   UNL     1      -2.399  -6.102  -0.012  0.00  0.00    -0.052 S 
ATOM     20  H   UNL     1       0.287  -4.682  -0.024  0.00  0.00    +0.156 HD
ENDROOT
BRANCH  16  21
ATOM     21  S   UNL     1      -8.028  -6.563   0.048  0.00  0.00    +0.056 S 
ATOM     22  O   UNL     1      -9.008  -5.684  -0.490  0.00  0.00    -0.153 OA
ATOM     23  O   UNL     1      -7.763  -7.842  -0.512  0.00  0.00    -0.153 OA
BRANCH  21  24
ATOM     24  N   UNL     1      -8.437  -6.815   1.633  0.00  0.00    -0.204 NA
ATOM     25  H   UNL     1      -7.860  -6.489   2.340  0.00  0.00    +0.144 HD
ATOM     26  H   UNL     1      -9.255  -7.288   1.853  0.00  0.00    +0.144 HD
ENDBRANCH  21  24
ENDBRANCH  16  21
BRANCH   1  28
ATOM     27  C   UNL     1       5.178   0.500  -0.045  0.00  0.00    +0.090 C 
ATOM     28  S   UNL     1       3.955  -0.839  -0.040  0.00  0.00    -0.126 S 
ENDBRANCH   1  28
TORSDOF 3
