REMARK  Name = ZINC54378450
REMARK  4 active torsions:
REMARK  status: ('A' for Active; 'I' for Inactive)
REMARK    1  A    between atoms: C_3  and  O_9
REMARK    2  A    between atoms: C_4  and  N_8
REMARK    3  A    between atoms: O_9  and  C_10
REMARK    4  A    between atoms: C_11  and  C_16
REMARK                            x       y       z     vdW  Elec       q    Type
REMARK                         _______ _______ _______ _____ _____    ______ ____
ROOT
ATOM      1  C   UNL     1      -0.035   1.478  -0.107  0.00  0.00    +0.024 A 
ATOM      2  C   UNL     1       1.171   2.155  -0.108  0.00  0.00    +0.049 A 
ATOM      3  C   UNL     1       2.361   1.452  -0.020  0.00  0.00    +0.151 A 
ATOM      4  C   UNL     1       2.340   0.061   0.071  0.00  0.00    +0.069 A 
ATOM      5  C   UNL     1       1.128  -0.612   0.072  0.00  0.00    +0.046 A 
ATOM      6  C   UNL     1      -0.057   0.097  -0.017  0.00  0.00    +0.043 A 
ATOM      7 CL   UNL     1      -1.574  -0.747  -0.015  0.00  0.00    -0.083 Cl
ENDROOT
BRANCH   4   8
ATOM      8  N   UNL     1       3.540  -0.654   0.160  0.00  0.00    -0.355 N 
ATOM      9  H   UNL     1       4.387  -0.181   0.159  0.00  0.00    +0.142 HD
ATOM     10  H   UNL     1       3.524  -1.621   0.223  0.00  0.00    +0.142 HD
ENDBRANCH   4   8
BRANCH   3  11
ATOM     11  O   UNL     1       3.547   2.117  -0.022  0.00  0.00    -0.434 OA
BRANCH  11  12
ATOM     12  C   UNL     1       4.188   2.272  -1.205  0.00  0.00    +0.257 A 
ATOM     13  C   UNL     1       5.448   2.888  -1.250  0.00  0.00    +0.202 A 
ATOM     14  N   UNL     1       6.069   3.034  -2.417  0.00  0.00    -0.238 NA
ATOM     15  C   UNL     1       5.499   2.601  -3.525  0.00  0.00    +0.132 A 
ATOM     16  C   UNL     1       4.254   1.993  -3.480  0.00  0.00    +0.134 A 
ATOM     17  N   UNL     1       3.629   1.837  -2.326  0.00  0.00    -0.217 NA
BRANCH  13  18
ATOM     18  C   UNL     1       6.063   3.356  -0.045  0.00  0.00    +0.125 C 
ATOM     19  N   UNL     1       6.551   3.728   0.912  0.00  0.00    -0.189 NA
ENDBRANCH  13  18
ENDBRANCH  11  12
ENDBRANCH   3  11
TORSDOF 4
