REMARK  Name = ZINC38611417
REMARK  7 active torsions:
REMARK  status: ('A' for Active; 'I' for Inactive)
REMARK    1  A    between atoms: C_1  and  N_2
REMARK    2  A    between atoms: N_2  and  C_3
REMARK    3  A    between atoms: C_3  and  N_5
REMARK    4  A    between atoms: N_5  and  C_6
REMARK    5  A    between atoms: C_14  and  C_16
REMARK    6  A    between atoms: C_16  and  O_18
REMARK    7  A    between atoms: O_18  and  C_19
REMARK                            x       y       z     vdW  Elec       q    Type
REMARK                         _______ _______ _______ _____ _____    ______ ____
ROOT
ATOM      1  C   UNL     1       1.218  -2.845   1.547  0.00  0.00    +0.052 C 
ATOM      2  C   UNL     1       1.591  -1.933   2.520  0.00  0.00    +0.019 A 
ATOM      3  C   UNL     1       1.746  -0.526   2.500  0.00  0.00    +0.026 A 
ATOM      4  C   UNL     1       2.133   0.123   3.627  0.00  0.00    +0.019 A 
ATOM      5  C   UNL     1       2.384  -0.563   4.818  0.00  0.00    +0.017 A 
ATOM      6  C   UNL     1       2.256  -1.909   4.909  0.00  0.00    +0.027 A 
ATOM      7  C   UNL     1       1.855  -2.659   3.773  0.00  0.00    +0.045 A 
ATOM      8  N   UNL     1       1.661  -3.952   3.606  0.00  0.00    -0.367 N 
ATOM      9  C   UNL     1       1.244  -4.199   2.222  0.00  0.00    +0.234 C 
ATOM     10 BR   UNL     1       2.337   2.003   3.584  0.00  0.00    -0.050 Br
ATOM     11  H   UNL     1       1.773  -4.631   4.290  0.00  0.00    +0.161 HD
ENDROOT
BRANCH   1  12
ATOM     12  N   UNL     1       0.889  -2.579   0.254  0.00  0.00    -0.298 N 
ATOM     13  H   UNL     1       0.653  -1.676  -0.010  0.00  0.00    +0.154 HD
BRANCH  12  14
ATOM     14  C   UNL     1       0.892  -3.570  -0.660  0.00  0.00    +0.134 C 
ATOM     15  S   UNL     1       1.460  -5.127  -0.232  0.00  0.00    -0.019 S 
BRANCH  14  17
ATOM     16  C   UNL     1       0.453  -4.411  -2.904  0.00  0.00    +0.127 C 
ATOM     17  N   UNL     1       0.449  -3.334  -1.911  0.00  0.00    -0.329 N 
ATOM     18  H   UNL     1       0.128  -2.451  -2.153  0.00  0.00    +0.147 HD
ENDBRANCH  14  17
ENDBRANCH  12  14
ENDBRANCH   1  12
BRANCH   9  19
ATOM     19  C   UNL     1      -0.129  -4.820   2.194  0.00  0.00    +0.335 C 
ATOM     20  O   UNL     1      -0.712  -5.042   3.228  0.00  0.00    -0.248 OA
BRANCH  19  21
ATOM     21  O   UNL     1      -0.703  -5.125   1.020  0.00  0.00    -0.466 OA
ATOM     22  C   UNL     1      -2.005  -5.712   1.068  0.00  0.00    +0.280 C 
ENDBRANCH  19  21
ENDBRANCH   9  19
TORSDOF 5
