REMARK  Name = ZINC54219904
REMARK  6 active torsions:
REMARK  status: ('A' for Active; 'I' for Inactive)
REMARK    1  A    between atoms: C_1  and  C_2
REMARK    2  A    between atoms: C_3  and  C_27
REMARK    3  A    between atoms: C_4  and  C_12
REMARK    4  A    between atoms: C_17  and  O_18
REMARK    5  A    between atoms: O_18  and  C_19
REMARK    6  A    between atoms: C_19  and  C_20
REMARK                            x       y       z     vdW  Elec       q    Type
REMARK                         _______ _______ _______ _____ _____    ______ ____
ROOT
ATOM      1  C   UNL     1      -0.013   1.086   0.008  0.00  0.00    +0.062 C 
ATOM      2  C   UNL     1      -0.742   1.585  -1.213  0.00  0.00    +0.034 C 
ATOM      3  C   UNL     1      -0.876   3.067  -1.411  0.00  0.00    +0.148 C 
ATOM      4  C   UNL     1      -0.881   3.435  -2.899  0.00  0.00    +0.163 C 
ATOM      5  N   UNL     1      -1.704   2.456  -3.603  0.00  0.00    -0.201 N 
ATOM      6  C   UNL     1      -1.853   1.167  -3.167  0.00  0.00    +0.270 A 
ATOM      7  N   UNL     1      -2.650   0.571  -4.012  0.00  0.00    -0.088 NA
ATOM      8  N   UNL     1      -3.006   1.388  -4.944  0.00  0.00    -0.021 NA
ATOM      9  N   UNL     1      -2.469   2.552  -4.761  0.00  0.00    -0.042 NA
ATOM     10  N   UNL     1      -1.218   0.717  -2.046  0.00  0.00    -0.218 NA
ENDROOT
BRANCH   4  11
ATOM     11  C   UNL     1       0.527   3.399  -3.437  0.00  0.00    +0.021 A 
ATOM     12  C   UNL     1       1.253   2.224  -3.395  0.00  0.00    +0.024 A 
ATOM     13  C   UNL     1       2.545   2.191  -3.888  0.00  0.00    +0.018 A 
ATOM     14  C   UNL     1       3.112   3.333  -4.425  0.00  0.00    +0.019 A 
ATOM     15  C   UNL     1       2.389   4.509  -4.470  0.00  0.00    +0.047 A 
ATOM     16  C   UNL     1       1.092   4.543  -3.980  0.00  0.00    +0.126 A 
ATOM     17 BR   UNL     1       3.537   0.582  -3.829  0.00  0.00    -0.050 Br
BRANCH  16  18
ATOM     18  O   UNL     1       0.377   5.698  -4.027  0.00  0.00    -0.487 OA
BRANCH  18  19
ATOM     19  C   UNL     1       1.022   6.838  -4.599  0.00  0.00    +0.264 C 
BRANCH  19  20
ATOM     20  C   UNL     1       0.084   8.016  -4.566  0.00  0.00    -0.010 A 
ATOM     21  C   UNL     1      -0.771   8.249  -5.627  0.00  0.00    +0.007 A 
ATOM     22  C   UNL     1      -1.632   9.331  -5.596  0.00  0.00    +0.000 A 
ATOM     23  C   UNL     1      -1.638  10.178  -4.504  0.00  0.00    +0.000 A 
ATOM     24  C   UNL     1      -0.784   9.944  -3.442  0.00  0.00    +0.000 A 
ATOM     25  C   UNL     1       0.074   8.861  -3.471  0.00  0.00    +0.007 A 
ENDBRANCH  19  20
ENDBRANCH  18  19
ENDBRANCH  16  18
ENDBRANCH   4  11
BRANCH   3  26
ATOM     26  C   UNL     1      -2.165   3.533  -0.784  0.00  0.00    +0.221 C 
ATOM     27  O   UNL     1      -3.012   4.069  -1.466  0.00  0.00    -0.275 OA
ATOM     28  N   UNL     1      -2.376   3.355   0.535  0.00  0.00    -0.329 N 
ATOM     29  H   UNL     1      -1.698   2.926   1.081  0.00  0.00    +0.145 HD
ATOM     30  H   UNL     1      -3.205   3.655   0.939  0.00  0.00    +0.145 HD
ENDBRANCH   3  26
TORSDOF 5
