REMARK  Name = ZINC58005863
REMARK  8 active torsions:
REMARK  status: ('A' for Active; 'I' for Inactive)
REMARK    1  A    between atoms: C_1  and  C_2
REMARK    2  A    between atoms: C_2  and  C_3
REMARK    3  A    between atoms: C_3  and  C_23
REMARK    4  A    between atoms: N_5  and  C_14
REMARK    5  A    between atoms: C_8  and  O_13
REMARK    6  A    between atoms: C_14  and  C_15
REMARK    7  A    between atoms: C_15  and  C_16
REMARK    8  A    between atoms: C_23  and  C_24
REMARK                            x       y       z     vdW  Elec       q    Type
REMARK                         _______ _______ _______ _____ _____    ______ ____
ROOT
ATOM      1  C   UNL     1       0.812  -0.398  -1.258  0.00  0.00    +0.126 C 
ATOM      2  C   UNL     1       0.642  -1.917  -1.400  0.00  0.00    +0.153 C 
ATOM      3  N   UNL     1       1.369  -2.336  -2.610  0.00  0.00    -0.323 N 
ATOM      4  C   UNL     1       2.630  -1.766  -2.844  0.00  0.00    +0.076 A 
ATOM      5  C   UNL     1       3.477  -2.319  -3.792  0.00  0.00    +0.072 A 
ATOM      6  C   UNL     1       4.720  -1.750  -4.022  0.00  0.00    +0.119 A 
ATOM      7  C   UNL     1       5.113  -0.630  -3.305  0.00  0.00    +0.049 A 
ATOM      8  C   UNL     1       4.270  -0.079  -2.359  0.00  0.00    +0.051 A 
ATOM      9  C   UNL     1       3.026  -0.643  -2.122  0.00  0.00    +0.143 A 
ATOM     10  O   UNL     1       2.208  -0.096  -1.183  0.00  0.00    -0.482 OA
ENDROOT
BRANCH   1  12
ATOM     11  C   UNL     1       0.723  -0.631   1.228  0.00  0.00    +0.008 C 
ATOM     12  C   UNL     1       0.115   0.079   0.017  0.00  0.00    +0.046 C 
ENDBRANCH   1  12
BRANCH   6  13
ATOM     13  O   UNL     1       5.554  -2.291  -4.950  0.00  0.00    -0.507 OA
ATOM     14  H   UNL     1       5.442  -1.927  -5.839  0.00  0.00    +0.292 HD
ENDBRANCH   6  13
BRANCH   1  15
ATOM     15  C   UNL     1       0.200   0.305  -2.471  0.00  0.00    +0.046 C 
ATOM     16  C   UNL     1       0.388   1.817  -2.333  0.00  0.00    +0.008 C 
ENDBRANCH   1  15
BRANCH   3  17
ATOM     17  C   UNL     1       0.796  -3.314  -3.538  0.00  0.00    +0.104 C 
BRANCH  17  18
ATOM     18  C   UNL     1      -0.025  -2.586  -4.604  0.00  0.00    +0.003 C 
BRANCH  18  19
ATOM     19  C   UNL     1      -0.624  -3.607  -5.573  0.00  0.00    -0.070 C 
ATOM     20  C   UNL     1      -1.546  -2.891  -6.562  0.00  0.00    -0.016 C 
ATOM     21  C   UNL     1      -2.143  -3.918  -7.530  0.00  0.00    -0.003 C 
ATOM     22  C   UNL     1      -1.006  -4.664  -8.232  0.00  0.00    -0.019 C 
ATOM     23  C   UNL     1      -0.103  -5.314  -7.181  0.00  0.00    -0.082 C 
ATOM     24  N   UNL     1       0.457  -4.278  -6.305  0.00  0.00    +0.381 N 
ATOM     25  H   UNL     1       0.956  -3.601  -6.862  0.00  0.00    -0.086 HD
ATOM     26  H   UNL     1       1.093  -4.704  -5.647  0.00  0.00    -0.086 HD
ENDBRANCH  18  19
ENDBRANCH  17  18
ENDBRANCH   3  17
TORSDOF 6
