REMARK  Name = ZINC36028870
REMARK  12 active torsions:
REMARK  status: ('A' for Active; 'I' for Inactive)
REMARK    1  A    between atoms: C_1  and  C_2
REMARK    2  A    between atoms: C_2  and  C_3
REMARK    3  A    between atoms: C_3  and  C_5
REMARK    4  A    between atoms: C_3  and  C_6
REMARK    5  A    between atoms: N_10  and  C_25
REMARK    6  A    between atoms: N_20  and  C_21
REMARK    7  A    between atoms: C_21  and  C_22
REMARK    8  A    between atoms: C_21  and  C_23
REMARK    9  A    between atoms: C_21  and  C_24
REMARK   10  A    between atoms: C_25  and  C_27
REMARK   11  A    between atoms: C_25  and  C_28
REMARK   12  A    between atoms: C_28  and  C_29
REMARK                            x       y       z     vdW  Elec       q    Type
REMARK                         _______ _______ _______ _____ _____    ______ ____
ROOT
ATOM      1  C   UNL     1       0.756  -1.903  -1.229  0.00  0.00    +0.022 C 
ATOM      2  C   UNL     1       1.343  -2.465   0.047  0.00  0.00    +0.201 C 
ATOM      3  O   UNL     1       0.891  -2.313   1.162  0.00  0.00    -0.277 OA
ATOM      4  N   UNL     1       2.455  -3.164  -0.264  0.00  0.00    -0.311 N 
ATOM      5  C   UNL     1       2.676  -3.110  -1.712  0.00  0.00    +0.006 C 
ATOM      6  N   UNL     1       1.395  -2.682  -2.317  0.00  0.00    +0.401 N 
ATOM      7  C   UNL     1       3.060  -4.491  -2.239  0.00  0.00    +0.025 C 
ATOM      8  C   UNL     1       4.368  -4.942  -1.579  0.00  0.00    +0.109 C 
ATOM      9  N   UNL     1       5.385  -3.903  -1.786  0.00  0.00    -0.286 N 
ATOM     10  C   UNL     1       5.081  -2.524  -1.379  0.00  0.00    +0.109 C 
ATOM     11  C   UNL     1       3.768  -2.093  -2.042  0.00  0.00    +0.025 C 
ATOM     12  C   UNL     1       6.575  -4.208  -2.339  0.00  0.00    +0.303 C 
ATOM     13  O   UNL     1       6.855  -5.367  -2.579  0.00  0.00    -0.253 OA
ATOM     14  N   UNL     1       7.456  -3.229  -2.627  0.00  0.00    -0.294 N 
ATOM     15  H   UNL     1       0.830  -3.482  -2.561  0.00  0.00    -0.082 HD
ATOM     16  H   UNL     1       7.265  -2.314  -2.368  0.00  0.00    +0.151 HD
ATOM     17  H   UNL     1       1.557  -2.100  -3.125  0.00  0.00    -0.082 HD
ENDROOT
BRANCH  14  18
ATOM     18  C   UNL     1       8.702  -3.547  -3.329  0.00  0.00    +0.028 C 
ATOM     19  C   UNL     1       8.376  -4.163  -4.691  0.00  0.00    +0.031 C 
ATOM     20  C   UNL     1       9.515  -2.267  -3.529  0.00  0.00    +0.031 C 
ATOM     21  C   UNL     1       9.514  -4.544  -2.500  0.00  0.00    +0.031 C 
ENDBRANCH  14  18
BRANCH   1  22
ATOM     22  C   UNL     1       1.100  -0.418  -1.365  0.00  0.00    -0.020 C 
ATOM     23  C   UNL     1       0.461   0.361  -0.214  0.00  0.00    +0.006 C 
BRANCH  22  25
ATOM     24  C   UNL     1       1.015   1.559  -2.890  0.00  0.00    +0.004 C 
ATOM     25  C   UNL     1       0.564   0.110  -2.697  0.00  0.00    -0.001 C 
ENDBRANCH  22  25
ENDBRANCH   1  22
BRANCH   4  26
ATOM     26  C   UNL     1       3.308  -3.868   0.696  0.00  0.00    +0.071 C 
ATOM     27  C   UNL     1       3.578  -2.961   1.899  0.00  0.00    +0.028 C 
BRANCH  26  28
ATOM     28  C   UNL     1       2.603  -5.142   1.167  0.00  0.00    +0.019 C 
ATOM     29  C   UNL     1       2.444  -6.102  -0.013  0.00  0.00    +0.005 C 
ENDBRANCH  26  28
ENDBRANCH   4  26
TORSDOF 5
