REMARK  Name = ZINC53858838
REMARK  8 active torsions:
REMARK  status: ('A' for Active; 'I' for Inactive)
REMARK    1  A    between atoms: C_1  and  C_2
REMARK    2  A    between atoms: C_2  and  N_3
REMARK    3  A    between atoms: N_3  and  C_4
REMARK    4  A    between atoms: C_10  and  C_12
REMARK    5  A    between atoms: C_12  and  N_13
REMARK    6  A    between atoms: N_13  and  C_14
REMARK    7  A    between atoms: N_13  and  C_15
REMARK    8  A    between atoms: C_20  and  C_23
REMARK                            x       y       z     vdW  Elec       q    Type
REMARK                         _______ _______ _______ _____ _____    ______ ____
ROOT
ATOM      1  C   UNL     1      -3.099  -1.662  -1.026  0.00  0.00    -0.070 C 
ATOM      2  C   UNL     1      -2.462  -2.337  -2.243  0.00  0.00    -0.016 C 
ATOM      3  C   UNL     1      -0.948  -2.425  -2.043  0.00  0.00    -0.002 C 
ATOM      4  C   UNL     1      -0.646  -3.247  -0.788  0.00  0.00    +0.000 C 
ATOM      5  C   UNL     1      -1.283  -2.572   0.429  0.00  0.00    -0.000 C 
ATOM      6  C   UNL     1      -2.797  -2.484   0.228  0.00  0.00    -0.042 C 
ENDROOT
BRANCH   1   7
ATOM      7  N   UNL     1      -4.553  -1.578  -1.219  0.00  0.00    +0.381 N 
ATOM      8  H   UNL     1      -4.978  -1.180  -0.395  0.00  0.00    -0.086 HD
ATOM      9  H   UNL     1      -4.925  -2.502  -1.378  0.00  0.00    -0.086 HD
BRANCH   7  11
ATOM     10  C   UNL     1      -6.359  -0.638  -2.580  0.00  0.00    -0.017 C 
ATOM     11  C   UNL     1      -4.844  -0.726  -2.380  0.00  0.00    -0.086 C 
ENDBRANCH   7  11
ENDBRANCH   1   7
BRANCH   6  12
ATOM     12  C   UNL     1      -3.434  -1.809   1.445  0.00  0.00    -0.077 C 
BRANCH  12  13
ATOM     13  N   UNL     1      -4.807  -2.303   1.616  0.00  0.00    +0.380 N 
ATOM     14  C   UNL     1      -4.774  -3.728   1.971  0.00  0.00    -0.096 C 
ATOM     15  H   UNL     1      -5.317  -2.183   0.754  0.00  0.00    -0.082 HD
BRANCH  13  16
ATOM     16  C   UNL     1      -5.470  -1.546   2.686  0.00  0.00    -0.069 C 
ATOM     17  C   UNL     1      -6.900  -2.060   2.864  0.00  0.00    -0.015 C 
ATOM     18  C   UNL     1      -7.590  -1.272   3.979  0.00  0.00    -0.001 C 
ATOM     19  C   UNL     1      -7.624   0.212   3.609  0.00  0.00    +0.003 C 
ATOM     20  C   UNL     1      -6.194   0.726   3.431  0.00  0.00    -0.016 C 
ATOM     21  C   UNL     1      -5.504  -0.062   2.316  0.00  0.00    -0.012 C 
ATOM     22  C   UNL     1      -6.228   2.210   3.061  0.00  0.00    +0.007 C 
ENDBRANCH  13  16
ENDBRANCH  12  13
ENDBRANCH   6  12
TORSDOF 5
