REMARK  Name = ZINC39687148
REMARK  8 active torsions:
REMARK  status: ('A' for Active; 'I' for Inactive)
REMARK    1  A    between atoms: C_1  and  C_2
REMARK    2  A    between atoms: C_2  and  C_4
REMARK    3  A    between atoms: C_2  and  N_12
REMARK    4  A    between atoms: C_4  and  C_5
REMARK    5  A    between atoms: C_13  and  C_15
REMARK    6  A    between atoms: C_26  and  C_28
REMARK    7  A    between atoms: C_31  and  O_35
REMARK    8  A    between atoms: O_35  and  C_36
REMARK                            x       y       z     vdW  Elec       q    Type
REMARK                         _______ _______ _______ _____ _____    ______ ____
ROOT
ATOM      1  C   UNL     1      -4.024  -1.417  -0.901  0.00  0.00    +0.100 C 
ATOM      2  C   UNL     1      -4.656  -0.290  -0.053  0.00  0.00    +0.121 C 
ATOM      3  N   UNL     1      -5.224   0.652  -1.046  0.00  0.00    -0.296 N 
ATOM      4  C   UNL     1      -5.793  -0.222  -2.100  0.00  0.00    +0.115 C 
ATOM      5  C   UNL     1      -4.776  -1.371  -2.242  0.00  0.00    -0.004 C 
ATOM      6  C   UNL     1      -5.500  -2.692  -2.486  0.00  0.00    -0.010 C 
ATOM      7  C   UNL     1      -6.192  -2.644  -3.851  0.00  0.00    -0.082 C 
ATOM      8  N   UNL     1      -5.193  -2.409  -4.901  0.00  0.00    +0.379 N 
ATOM      9  C   UNL     1      -4.566  -1.096  -4.711  0.00  0.00    -0.082 C 
ATOM     10  C   UNL     1      -3.805  -1.078  -3.382  0.00  0.00    -0.010 C 
ATOM     11  C   UNL     1      -5.223   1.999  -1.002  0.00  0.00    +0.247 C 
ATOM     12  O   UNL     1      -4.617   2.578  -0.121  0.00  0.00    -0.270 OA
ATOM     13  H   UNL     1      -4.485  -3.128  -4.856  0.00  0.00    -0.086 HD
ATOM     14  H   UNL     1      -5.642  -2.439  -5.804  0.00  0.00    -0.086 HD
ENDROOT
BRANCH  11  15
ATOM     15  C   UNL     1      -5.959   2.771  -2.022  0.00  0.00    +0.040 A 
ATOM     16  C   UNL     1      -6.994   2.171  -2.744  0.00  0.00    +0.036 A 
ATOM     17  C   UNL     1      -7.678   2.895  -3.695  0.00  0.00    +0.085 A 
ATOM     18  C   UNL     1      -7.340   4.222  -3.938  0.00  0.00    +0.157 A 
ATOM     19  C   UNL     1      -6.311   4.823  -3.222  0.00  0.00    +0.085 A 
ATOM     20  C   UNL     1      -5.626   4.106  -2.264  0.00  0.00    +0.036 A 
ATOM     21 CL   UNL     1      -5.893   6.479  -3.529  0.00  0.00    -0.080 Cl
ATOM     22 CL   UNL     1      -8.964   2.150  -4.593  0.00  0.00    -0.080 Cl
BRANCH  18  23
ATOM     23  O   UNL     1      -8.016   4.932  -4.877  0.00  0.00    -0.492 OA
ATOM     24  C   UNL     1      -9.175   5.646  -4.441  0.00  0.00    +0.277 C 
ENDBRANCH  18  23
ENDBRANCH  11  15
BRANCH   1  26
ATOM     25  N   UNL     1      -1.698  -2.184  -1.249  0.00  0.00    -0.312 N 
ATOM     26  C   UNL     1      -2.555  -1.153  -1.114  0.00  0.00    +0.218 C 
ATOM     27  O   UNL     1      -2.145  -0.012  -1.164  0.00  0.00    -0.275 OA
ATOM     28  H   UNL     1      -2.026  -3.096  -1.209  0.00  0.00    +0.149 HD
BRANCH  25  30
ATOM     29  C   UNL     1       0.413  -1.726  -0.101  0.00  0.00    +0.028 C 
ATOM     30  C   UNL     1      -0.270  -1.927  -1.456  0.00  0.00    +0.074 C 
BRANCH  30  31
ATOM     31  C   UNL     1       0.363  -3.119  -2.175  0.00  0.00    +0.060 C 
BRANCH  31  32
ATOM     32  C   UNL     1      -0.224  -3.242  -3.558  0.00  0.00    -0.010 A 
ATOM     33  C   UNL     1      -1.293  -4.089  -3.782  0.00  0.00    +0.006 A 
ATOM     34  C   UNL     1      -1.832  -4.201  -5.050  0.00  0.00    +0.000 A 
ATOM     35  C   UNL     1      -1.303  -3.467  -6.095  0.00  0.00    +0.003 A 
ATOM     36  C   UNL     1      -0.235  -2.619  -5.873  0.00  0.00    +0.038 A 
ATOM     37  C   UNL     1       0.302  -2.501  -4.602  0.00  0.00    +0.127 A 
ATOM     38  F   UNL     1       1.344  -1.669  -4.383  0.00  0.00    -0.205 F 
ENDBRANCH  31  32
ENDBRANCH  30  31
ENDBRANCH  25  30
ENDBRANCH   1  26
TORSDOF 6
