REMARK  Name = ZINC10051886
REMARK  9 active torsions:
REMARK  status: ('A' for Active; 'I' for Inactive)
REMARK    1  A    between atoms: C_1  and  N_41
REMARK    2  A    between atoms: C_2  and  N_41
REMARK    3  A    between atoms: C_3  and  C_5
REMARK    4  A    between atoms: C_3  and  C_19
REMARK    5  A    between atoms: C_3  and  N_41
REMARK    6  A    between atoms: C_5  and  N_6
REMARK    7  A    between atoms: C_7  and  C_9
REMARK    8  A    between atoms: C_12  and  N_18
REMARK    9  A    between atoms: C_13  and  N_15
REMARK                            x       y       z     vdW  Elec       q    Type
REMARK                         _______ _______ _______ _____ _____    ______ ____
ROOT
ATOM      1  N   UNL     1       0.796   5.697   0.714  0.00  0.00    -0.313 N 
ATOM      2  C   UNL     1       0.725   6.780   1.513  0.00  0.00    +0.244 C 
ATOM      3  O   UNL     1       0.828   6.654   2.718  0.00  0.00    -0.270 OA
ATOM      4  H   UNL     1       0.714   5.797  -0.247  0.00  0.00    +0.149 HD
ENDROOT
BRANCH   2   5
ATOM      5  C   UNL     1       0.522   8.118   0.926  0.00  0.00    +0.039 A 
ATOM      6  C   UNL     1       0.408   8.264  -0.460  0.00  0.00    +0.015 A 
ATOM      7  C   UNL     1       0.214   9.513  -1.005  0.00  0.00    +0.026 A 
ATOM      8  C   UNL     1       0.140  10.631  -0.178  0.00  0.00    +0.055 A 
ATOM      9  C   UNL     1       0.258  10.489   1.202  0.00  0.00    +0.147 A 
ATOM     10  C   UNL     1       0.448   9.242   1.753  0.00  0.00    +0.047 A 
BRANCH   9  11
ATOM     11  N   UNL     1       0.179  11.680   2.077  0.00  0.00    +0.058 N 
ATOM     12  O   UNL     1       0.387  11.572   3.272  0.00  0.00    -0.126 OA
ATOM     13  O   UNL     1      -0.092  12.768   1.602  0.00  0.00    -0.126 OA
ENDBRANCH   9  11
BRANCH   8  14
ATOM     14  N   UNL     1      -0.051  11.892  -0.732  0.00  0.00    -0.356 N 
ATOM     15  H   UNL     1       0.259  12.681  -0.260  0.00  0.00    +0.142 HD
ATOM     16  H   UNL     1      -0.494  11.983  -1.590  0.00  0.00    +0.142 HD
ENDBRANCH   8  14
ENDBRANCH   2   5
BRANCH   1  17
ATOM     17  C   UNL     1       0.998   4.368   1.298  0.00  0.00    +0.094 C 
BRANCH  17  18
ATOM     18  C   UNL     1       0.925   3.310   0.195  0.00  0.00    -0.014 C 
BRANCH  18  19
ATOM     19  C   UNL     1       1.265   1.960   0.770  0.00  0.00    -0.022 A 
ATOM     20  C   UNL     1       0.446   0.910   1.024  0.00  0.00    +0.009 A 
ATOM     21  C   UNL     1       0.983  -0.245   1.561  0.00  0.00    +0.008 A 
ATOM     22  C   UNL     1       2.313  -0.294   1.817  0.00  0.00    +0.045 A 
ATOM     23  S   UNL     1       2.849   1.327   1.296  0.00  0.00    -0.103 S 
ENDBRANCH  18  19
BRANCH  18  26
ATOM     24  C   UNL     1       3.211   3.933  -0.309  0.00  0.00    -0.096 C 
ATOM     25  C   UNL     1       1.956   2.570  -1.867  0.00  0.00    -0.096 C 
ATOM     26  N   UNL     1       1.874   3.668  -0.881  0.00  0.00    +0.382 N 
ATOM     27  H   UNL     1       1.539   4.516  -1.353  0.00  0.00    -0.082 HD
ENDBRANCH  18  26
ENDBRANCH  17  18
ENDBRANCH   1  17
TORSDOF 7
