REMARK  Name = ZINC63855855
REMARK  6 active torsions:
REMARK  status: ('A' for Active; 'I' for Inactive)
REMARK    1  A    between atoms: C_1  and  C_2
REMARK    2  A    between atoms: C_2  and  C_3
REMARK    3  A    between atoms: C_3  and  C_4
REMARK    4  A    between atoms: C_4  and  C_5
REMARK    5  A    between atoms: C_7  and  C_12
REMARK    6  A    between atoms: C_18  and  C_22
REMARK                            x       y       z     vdW  Elec       q    Type
REMARK                         _______ _______ _______ _____ _____    ______ ____
ROOT
ATOM      1  C   UNL     1      -6.175  -2.845   1.353  0.00  0.00    +0.228 C 
ATOM      2  N   UNL     1      -7.311  -2.995   0.436  0.00  0.00    -0.358 N 
ATOM      3  C   UNL     1      -8.019  -1.903   0.508  0.00  0.00    +0.060 A 
ATOM      4  C   UNL     1      -9.252  -1.480  -0.170  0.00  0.00    +0.028 A 
ATOM      5  C   UNL     1      -9.784  -0.273   0.093  0.00  0.00    +0.017 A 
ATOM      6  C   UNL     1      -9.171   0.651   1.045  0.00  0.00    +0.065 A 
ATOM      7  C   UNL     1      -8.028   0.333   1.714  0.00  0.00    +0.042 A 
ATOM      8  C   UNL     1      -7.387  -0.971   1.478  0.00  0.00    +0.061 A 
ATOM      9  N   UNL     1      -6.314  -1.520   1.971  0.00  0.00    -0.358 N 
ATOM     10  H   UNL     1      -5.715  -1.127   2.625  0.00  0.00    +0.162 HD
ATOM     11  H   UNL     1      -7.500  -3.766  -0.122  0.00  0.00    +0.162 HD
ENDROOT
BRANCH   1  14
ATOM     12  C   UNL     1      -2.826  -2.585   0.015  0.00  0.00    +0.109 A 
ATOM     13  N   UNL     1      -3.744  -2.278   0.891  0.00  0.00    -0.232 NA
ATOM     14  C   UNL     1      -4.879  -2.926   0.589  0.00  0.00    +0.120 A 
ATOM     15  H   UNL     1      -2.899  -3.833  -1.646  0.00  0.00    +0.168 HD
ATOM     16  C   UNL     1      -4.656  -3.664  -0.517  0.00  0.00    +0.133 A 
ATOM     17  N   UNL     1      -3.356  -3.444  -0.884  0.00  0.00    -0.333 N 
ATOM     18 CL   UNL     1      -5.800  -4.691  -1.324  0.00  0.00    -0.062 Cl
BRANCH  12  19
ATOM     19  C   UNL     1      -1.413  -2.063   0.004  0.00  0.00    +0.074 C 
BRANCH  19  20
ATOM     20  C   UNL     1      -1.433  -0.534   0.013  0.00  0.00    +0.007 C 
BRANCH  20  22
ATOM     21  C   UNL     1      -0.019   1.526   0.010  0.00  0.00    +0.004 C 
ATOM     22  C   UNL     1       0.002  -0.004   0.002  0.00  0.00    -0.003 C 
ENDBRANCH  20  22
ENDBRANCH  19  20
ENDBRANCH  12  19
ENDBRANCH   1  14
BRANCH   6  23
ATOM     23  C   UNL     1      -9.806   1.961   1.288  0.00  0.00    +0.387 C 
ATOM     24  O   UNL     1     -10.833   2.262   0.695  0.00  0.00    -0.241 OA
ATOM     25  O   UNL     1      -9.306   2.745   2.081  0.00  0.00    -0.241 OA
ENDBRANCH   6  23
TORSDOF 5
