REMARK  Name = ZINC39656016
REMARK  7 active torsions:
REMARK  status: ('A' for Active; 'I' for Inactive)
REMARK    1  A    between atoms: C_1  and  C_2
REMARK    2  A    between atoms: C_8  and  C_11
REMARK    3  A    between atoms: C_11  and  C_12
REMARK    4  A    between atoms: C_12  and  N_13
REMARK    5  A    between atoms: C_14  and  C_16
REMARK    6  A    between atoms: C_27  and  C_29
REMARK    7  A    between atoms: N_33  and  C_34
REMARK                            x       y       z     vdW  Elec       q    Type
REMARK                         _______ _______ _______ _____ _____    ______ ____
ROOT
ATOM      1  C   UNL     1       3.842   0.132  -8.139  0.00  0.00    +0.100 C 
ATOM      2  C   UNL     1       4.276   0.827  -9.449  0.00  0.00    +0.121 C 
ATOM      3  N   UNL     1       5.398   0.002  -9.956  0.00  0.00    -0.295 N 
ATOM      4  C   UNL     1       4.986  -1.394  -9.675  0.00  0.00    +0.115 C 
ATOM      5  C   UNL     1       4.309  -1.325  -8.291  0.00  0.00    -0.004 C 
ATOM      6  C   UNL     1       3.113  -2.271  -8.242  0.00  0.00    -0.010 C 
ATOM      7  C   UNL     1       3.607  -3.717  -8.337  0.00  0.00    -0.082 C 
ATOM      8  N   UNL     1       4.524  -3.997  -7.225  0.00  0.00    +0.379 N 
ATOM      9  C   UNL     1       5.716  -3.147  -7.332  0.00  0.00    -0.082 C 
ATOM     10  C   UNL     1       5.311  -1.676  -7.195  0.00  0.00    -0.010 C 
ATOM     11  C   UNL     1       6.536   0.426 -10.541  0.00  0.00    +0.263 C 
ATOM     12  O   UNL     1       7.277  -0.374 -11.081  0.00  0.00    -0.268 OA
ATOM     13  H   UNL     1       4.057  -3.809  -6.350  0.00  0.00    -0.086 HD
ATOM     14  H   UNL     1       4.801  -4.967  -7.254  0.00  0.00    -0.086 HD
ENDROOT
BRANCH  11  15
ATOM     15  C   UNL     1       6.882   1.851 -10.527  0.00  0.00    +0.104 A 
ATOM     16  C   UNL     1       6.356   2.809  -9.685  0.00  0.00    +0.032 A 
ATOM     17  C   UNL     1       6.964   4.024 -10.015  0.00  0.00    +0.020 A 
ATOM     18  C   UNL     1       7.831   3.793 -11.030  0.00  0.00    +0.086 A 
ATOM     19  N   UNL     1       7.794   2.475 -11.346  0.00  0.00    -0.346 N 
ATOM     20  C   UNL     1       8.591   1.825 -12.389  0.00  0.00    +0.149 C 
ENDBRANCH  11  15
BRANCH   1  22
ATOM     21  N   UNL     1       1.788   0.093  -6.762  0.00  0.00    -0.315 N 
ATOM     22  C   UNL     1       2.344   0.190  -7.986  0.00  0.00    +0.218 C 
ATOM     23  O   UNL     1       1.639   0.324  -8.963  0.00  0.00    -0.275 OA
ATOM     24  H   UNL     1       2.352  -0.013  -5.980  0.00  0.00    +0.149 HD
BRANCH  21  25
ATOM     25  C   UNL     1       0.331   0.149  -6.613  0.00  0.00    +0.109 C 
BRANCH  25  26
ATOM     26  C   UNL     1      -0.035   0.018  -5.133  0.00  0.00    +0.056 C 
BRANCH  26  34
ATOM     27  C   UNL     1      -3.256  -4.680  -5.749  0.00  0.00    +0.044 C 
ATOM     28  C   UNL     1      -3.418  -3.212  -5.446  0.00  0.00    -0.050 A 
ATOM     29  C   UNL     1      -4.686  -2.692  -5.224  0.00  0.00    +0.005 A 
ATOM     30  C   UNL     1      -4.856  -1.353  -4.946  0.00  0.00    +0.026 A 
ATOM     31  C   UNL     1      -3.749  -0.513  -4.886  0.00  0.00    +0.047 A 
ATOM     32  N   UNL     1      -3.592   0.832  -4.638  0.00  0.00    -0.360 N 
ATOM     33  C   UNL     1      -2.266   1.164  -4.698  0.00  0.00    +0.087 A 
ATOM     34  C   UNL     1      -1.533   0.075  -4.980  0.00  0.00    -0.021 A 
ATOM     35  C   UNL     1      -2.467  -1.046  -5.111  0.00  0.00    +0.003 A 
ATOM     36  C   UNL     1      -2.316  -2.406  -5.386  0.00  0.00    +0.013 A 
ATOM     37  H   UNL     1      -4.314   1.452  -4.449  0.00  0.00    +0.165 HD
ENDBRANCH  26  34
ENDBRANCH  25  26
ENDBRANCH  21  25
ENDBRANCH   1  22
TORSDOF 5
