REMARK  Name = ZINC67216192
REMARK  8 active torsions:
REMARK  status: ('A' for Active; 'I' for Inactive)
REMARK    1  A    between atoms: C_1  and  C_2
REMARK    2  A    between atoms: C_6  and  C_8
REMARK    3  A    between atoms: N_10  and  C_11
REMARK    4  A    between atoms: C_11  and  C_12
REMARK    5  A    between atoms: C_12  and  N_13
REMARK    6  A    between atoms: N_13  and  C_14
REMARK    7  A    between atoms: C_14  and  C_15
REMARK    8  A    between atoms: C_20  and  C_21
REMARK                            x       y       z     vdW  Elec       q    Type
REMARK                         _______ _______ _______ _____ _____    ______ ____
ROOT
ATOM      1  N   UNL     1       0.120  -7.185   4.678  0.00  0.00    +0.383 N 
ATOM      2  H   UNL     1       0.943  -6.935   5.206  0.00  0.00    -0.085 HD
ATOM      3  H   UNL     1      -0.705  -6.957   5.214  0.00  0.00    -0.085 HD
ENDROOT
BRANCH   1   4
ATOM      4  C   UNL     1       0.104  -6.439   3.413  0.00  0.00    -0.063 C 
BRANCH   4   5
ATOM      5  C   UNL     1       0.086  -4.937   3.707  0.00  0.00    +0.085 C 
BRANCH   5   8
ATOM      6  C   UNL     1       0.052  -2.845   2.458  0.00  0.00    +0.244 C 
ATOM      7  O   UNL     1       0.049  -2.248   3.516  0.00  0.00    -0.270 OA
ATOM      8  N   UNL     1       0.070  -4.193   2.445  0.00  0.00    -0.313 N 
ATOM      9  H   UNL     1       0.072  -4.670   1.601  0.00  0.00    +0.149 HD
BRANCH   6  15
ATOM     10  C   UNL     1      -0.018   1.503   0.010  0.00  0.00    +0.044 C 
ATOM     11  C   UNL     1       0.002  -0.004   0.002  0.00  0.00    -0.050 A 
ATOM     12  C   UNL     1       0.006  -0.688  -1.201  0.00  0.00    +0.003 A 
ATOM     13  C   UNL     1       0.025  -2.071  -1.218  0.00  0.00    +0.001 A 
ATOM     14  C   UNL     1       0.040  -2.778  -0.033  0.00  0.00    +0.013 A 
ATOM     15  C   UNL     1       0.036  -2.095   1.184  0.00  0.00    +0.037 A 
ATOM     16  C   UNL     1       0.023  -0.699   1.194  0.00  0.00    +0.016 A 
ENDBRANCH   6  15
ENDBRANCH   5   8
ENDBRANCH   4   5
ENDBRANCH   1   4
BRANCH   1  17
ATOM     17  C   UNL     1       0.138  -8.626   4.397  0.00  0.00    -0.043 C 
BRANCH  17  18
ATOM     18  C   UNL     1       0.154  -9.392   5.695  0.00  0.00    -0.016 A 
ATOM     19  C   UNL     1       1.239  -9.940   6.281  0.00  0.00    +0.107 A 
ATOM     20  N   UNL     1       0.840 -10.537   7.425  0.00  0.00    -0.284 N 
ATOM     21  H   UNL     1       1.412 -11.010   8.050  0.00  0.00    +0.188 HD
ATOM     22  N   UNL     1      -0.543 -10.354   7.554  0.00  0.00    -0.171 NA
ATOM     23  C   UNL     1      -0.962  -9.658   6.516  0.00  0.00    +0.129 A 
BRANCH  23  24
ATOM     24  C   UNL     1      -2.355  -9.236   6.256  0.00  0.00    +0.156 A 
ATOM     25  C   UNL     1      -3.458  -9.953   6.576  0.00  0.00    +0.060 A 
ATOM     26  C   UNL     1      -4.604  -9.153   6.136  0.00  0.00    +0.021 A 
ATOM     27  C   UNL     1      -5.987  -9.330   6.177  0.00  0.00    +0.011 A 
ATOM     28  C   UNL     1      -6.809  -8.365   5.665  0.00  0.00    +0.001 A 
ATOM     29  C   UNL     1      -6.277  -7.213   5.106  0.00  0.00    +0.004 A 
ATOM     30  C   UNL     1      -4.912  -7.019   5.057  0.00  0.00    +0.047 A 
ATOM     31  C   UNL     1      -4.058  -7.987   5.572  0.00  0.00    +0.136 A 
ATOM     32  O   UNL     1      -2.716  -8.078   5.670  0.00  0.00    -0.453 OA
ENDBRANCH  23  24
ENDBRANCH  17  18
ENDBRANCH   1  17
TORSDOF 7
