REMARK  Name = ZINC36618867
REMARK  8 active torsions:
REMARK  status: ('A' for Active; 'I' for Inactive)
REMARK    1  A    between atoms: C_1  and  C_2
REMARK    2  A    between atoms: C_2  and  C_23
REMARK    3  A    between atoms: C_11  and  S_14
REMARK    4  A    between atoms: S_14  and  C_15
REMARK    5  A    between atoms: C_15  and  C_16
REMARK    6  A    between atoms: C_16  and  N_17
REMARK    7  A    between atoms: N_17  and  C_18
REMARK    8  A    between atoms: N_17  and  C_19
REMARK                            x       y       z     vdW  Elec       q    Type
REMARK                         _______ _______ _______ _____ _____    ______ ____
ROOT
ATOM      1  C   UNL     1      -0.019   1.526   0.010  0.00  0.00    +0.041 C 
ATOM      2  C   UNL     1       0.002  -0.004   0.002  0.00  0.00    +0.068 C 
ATOM      3  C   UNL     1      -1.436  -0.531  -0.004  0.00  0.00    +0.071 C 
ATOM      4  C   UNL     1      -2.059  -0.227   1.356  0.00  0.00    -0.020 A 
ATOM      5  C   UNL     1      -1.252   0.069   2.405  0.00  0.00    +0.021 A 
ATOM      6  S   UNL     1      -2.353   0.352   3.765  0.00  0.00    -0.075 S 
ATOM      7  C   UNL     1      -3.877   0.078   2.923  0.00  0.00    +0.079 A 
ATOM      8  C   UNL     1      -3.486  -0.231   1.612  0.00  0.00    +0.044 A 
ATOM      9  C   UNL     1      -4.570  -0.533   0.639  0.00  0.00    +0.101 C 
ATOM     10  N   UNL     1      -5.798  -0.257   0.995  0.00  0.00    -0.346 N 
ATOM     11  C   UNL     1      -6.177   0.386   2.247  0.00  0.00    +0.227 C 
ATOM     12  N   UNL     1      -5.190   0.124   3.312  0.00  0.00    -0.310 N 
ATOM     13  N   UNL     1      -4.290  -1.085  -0.594  0.00  0.00    -0.344 N 
ATOM     14  C   UNL     1       0.243   0.132   2.383  0.00  0.00    +0.203 C 
ATOM     15  O   UNL     1       0.694  -0.475   1.161  0.00  0.00    -0.368 OA
ATOM     16  C   UNL     1       0.725  -0.495  -1.254  0.00  0.00    +0.041 C 
ATOM     17  H   UNL     1      -5.456  -0.007   4.236  0.00  0.00    +0.149 HD
ATOM     18  H   UNL     1      -3.373  -1.283  -0.840  0.00  0.00    +0.144 HD
ATOM     19  H   UNL     1      -5.011  -1.276  -1.215  0.00  0.00    +0.144 HD
ATOM     20  H   UNL     1      -6.508  -0.497   0.380  0.00  0.00    +0.163 HD
ENDROOT
BRANCH  11  21
ATOM     21  S   UNL     1      -6.298   2.176   1.980  0.00  0.00    -0.119 S 
BRANCH  21  22
ATOM     22  C   UNL     1      -4.634   2.653   1.438  0.00  0.00    +0.054 C 
BRANCH  22  23
ATOM     23  C   UNL     1      -4.596   4.159   1.175  0.00  0.00    -0.069 C 
BRANCH  23  24
ATOM     24  N   UNL     1      -3.248   4.545   0.735  0.00  0.00    +0.376 N 
ATOM     25  C   UNL     1      -2.956   3.917  -0.560  0.00  0.00    -0.097 C 
ATOM     26  C   UNL     1      -3.178   6.006   0.598  0.00  0.00    -0.097 C 
ATOM     27  H   UNL     1      -2.571   4.239   1.418  0.00  0.00    -0.083 HD
ENDBRANCH  23  24
ENDBRANCH  22  23
ENDBRANCH  21  22
ENDBRANCH  11  21
TORSDOF 4
