REMARK  Name = ZINC39980782
REMARK  6 active torsions:
REMARK  status: ('A' for Active; 'I' for Inactive)
REMARK    1  A    between atoms: C_1  and  O_2
REMARK    2  A    between atoms: O_2  and  C_3
REMARK    3  A    between atoms: C_8  and  N_30
REMARK    4  A    between atoms: C_9  and  C_18
REMARK    5  A    between atoms: C_15  and  O_16
REMARK    6  A    between atoms: O_16  and  C_17
REMARK                            x       y       z     vdW  Elec       q    Type
REMARK                         _______ _______ _______ _____ _____    ______ ____
ROOT
ATOM      1  C   UNL     1       0.062  -0.824  -1.404  0.00  0.00    +0.162 A 
ATOM      2  C   UNL     1       0.945  -0.099  -2.147  0.00  0.00    +0.059 A 
ATOM      3  C   UNL     1       1.418  -0.621  -3.367  0.00  0.00    +0.003 A 
ATOM      4  C   UNL     1       2.323   0.083  -4.163  0.00  0.00    +0.022 A 
ATOM      5  C   UNL     1       2.758  -0.494  -5.372  0.00  0.00    +0.028 A 
ATOM      6  C   UNL     1       3.692   0.066  -6.342  0.00  0.00    +0.054 A 
ATOM      7  C   UNL     1       3.985  -0.669  -7.468  0.00  0.00    +0.100 A 
ATOM      8  S   UNL     1       3.014  -2.148  -7.266  0.00  0.00    -0.064 S 
ATOM      9  C   UNL     1       2.241  -1.774  -5.709  0.00  0.00    +0.088 A 
ATOM     10  N   UNL     1       1.392  -2.436  -4.962  0.00  0.00    -0.349 N 
ATOM     11  C   UNL     1       0.947  -1.936  -3.807  0.00  0.00    +0.051 A 
ATOM     12  C   UNL     1       0.037  -2.636  -2.999  0.00  0.00    +0.075 A 
ATOM     13  C   UNL     1      -0.384  -2.085  -1.823  0.00  0.00    +0.163 A 
ATOM     14  H   UNL     1       1.080  -3.307  -5.254  0.00  0.00    +0.166 HD
ENDROOT
BRANCH   7  15
ATOM     15  C   UNL     1       4.852  -0.330  -8.533  0.00  0.00    +0.277 C 
ATOM     16  O   UNL     1       5.101   0.838  -8.767  0.00  0.00    -0.266 OA
ATOM     17  N   UNL     1       5.404  -1.301  -9.287  0.00  0.00    -0.208 N 
ATOM     18  C   UNL     1       6.187  -1.116 -10.429  0.00  0.00    +0.098 A 
ATOM     19  C   UNL     1       6.623   0.008 -11.112  0.00  0.00    +0.030 A 
ATOM     20  C   UNL     1       7.407  -0.134 -12.241  0.00  0.00    +0.002 A 
ATOM     21  C   UNL     1       7.756  -1.396 -12.690  0.00  0.00    +0.004 A 
ATOM     22  C   UNL     1       7.324  -2.521 -12.015  0.00  0.00    +0.048 A 
ATOM     23  C   UNL     1       6.538  -2.387 -10.881  0.00  0.00    +0.157 A 
ATOM     24  O   UNL     1       5.979  -3.285 -10.033  0.00  0.00    -0.407 OA
ATOM     25  C   UNL     1       5.305  -2.629  -9.076  0.00  0.00    +0.428 A 
ATOM     26  O   UNL     1       4.698  -3.151  -8.162  0.00  0.00    -0.222 OA
ENDBRANCH   7  15
BRANCH   6  27
ATOM     27  N   UNL     1       4.269   1.309  -6.135  0.00  0.00    -0.356 N 
ATOM     28  H   UNL     1       4.054   1.817  -5.337  0.00  0.00    +0.142 HD
ATOM     29  H   UNL     1       4.889   1.671  -6.788  0.00  0.00    +0.142 HD
ENDBRANCH   6  27
BRANCH   1  31
ATOM     30  C   UNL     1       0.095   0.974   0.153  0.00  0.00    +0.277 C 
ATOM     31  O   UNL     1      -0.391  -0.315  -0.228  0.00  0.00    -0.491 OA
ENDBRANCH   1  31
BRANCH  13  32
ATOM     32  O   UNL     1      -1.260  -2.772  -1.044  0.00  0.00    -0.491 OA
ATOM     33  C   UNL     1      -1.683  -4.052  -1.518  0.00  0.00    +0.277 C 
ENDBRANCH  13  32
TORSDOF 4
