REMARK  Name = ZINC64920694
REMARK  7 active torsions:
REMARK  status: ('A' for Active; 'I' for Inactive)
REMARK    1  A    between atoms: C_3  and  S_26
REMARK    2  A    between atoms: C_6  and  N_7
REMARK    3  A    between atoms: N_7  and  S_8
REMARK    4  A    between atoms: S_8  and  C_11
REMARK    5  A    between atoms: C_14  and  C_16
REMARK    6  A    between atoms: C_19  and  C_21
REMARK    7  A    between atoms: S_26  and  N_29
REMARK                            x       y       z     vdW  Elec       q    Type
REMARK                         _______ _______ _______ _____ _____    ______ ____
ROOT
ATOM      1  S   UNL     1      -1.172  -2.376   0.001  0.00  0.00    +0.098 S 
ATOM      2  O   UNL     1      -0.628  -2.767  -1.252  0.00  0.00    -0.148 OA
ATOM      3  O   UNL     1      -0.603  -2.781   1.239  0.00  0.00    -0.148 OA
ENDROOT
BRANCH   1   4
ATOM      4  C   UNL     1      -2.848  -2.922   0.015  0.00  0.00    +0.148 A 
ATOM      5  C   UNL     1      -3.667  -3.186  -1.037  0.00  0.00    +0.037 A 
ATOM      6  C   UNL     1      -4.954  -3.607  -0.797  0.00  0.00    +0.023 A 
ATOM      7  C   UNL     1      -5.368  -3.747   0.514  0.00  0.00    +0.077 A 
ATOM      8  S   UNL     1      -3.898  -3.277   1.413  0.00  0.00    -0.063 S 
BRANCH   7   9
ATOM      9  C   UNL     1      -6.675  -4.175   1.034  0.00  0.00    +0.255 A 
ATOM     10  N   UNL     1      -7.724  -4.520   0.319  0.00  0.00    -0.107 NA
ATOM     11  N   UNL     1      -8.690  -4.836   1.109  0.00  0.00    -0.112 NA
ATOM     12  C   UNL     1      -8.302  -4.706   2.346  0.00  0.00    +0.221 A 
ATOM     13  O   UNL     1      -7.022  -4.293   2.332  0.00  0.00    -0.419 OA
BRANCH  12  14
ATOM     14  C   UNL     1      -9.135  -4.978   3.572  0.00  0.00    +0.077 C 
ATOM     15  C   UNL     1      -9.654  -6.430   3.547  0.00  0.00    +0.013 C 
ATOM     16  C   UNL     1     -11.081  -6.334   4.142  0.00  0.00    +0.001 C 
ATOM     17  C   UNL     1     -11.606  -4.999   3.557  0.00  0.00    +0.001 C 
ATOM     18  C   UNL     1     -10.376  -4.068   3.578  0.00  0.00    +0.013 C 
ENDBRANCH  12  14
ENDBRANCH   7   9
ENDBRANCH   1   4
BRANCH   1  19
ATOM     19  N   UNL     1      -1.197  -0.720   0.010  0.00  0.00    -0.097 NA
BRANCH  19  25
ATOM     20  C   UNL     1      -0.017   1.385   0.010  0.00  0.00    +0.028 A 
ATOM     21  C   UNL     1       1.171   2.090   0.002  0.00  0.00    +0.030 A 
ATOM     22  C   UNL     1       2.377   1.415  -0.013  0.00  0.00    +0.105 A 
ATOM     23  C   UNL     1       2.400   0.032  -0.021  0.00  0.00    +0.030 A 
ATOM     24  C   UNL     1       1.216  -0.679  -0.014  0.00  0.00    +0.028 A 
ATOM     25  C   UNL     1       0.002  -0.004   0.002  0.00  0.00    +0.074 A 
BRANCH  22  26
ATOM     26  S   UNL     1       3.890   2.319  -0.024  0.00  0.00    +0.056 S 
ATOM     27  O   UNL     1       4.872   1.461  -0.589  0.00  0.00    -0.153 OA
ATOM     28  O   UNL     1       3.595   3.599  -0.566  0.00  0.00    -0.153 OA
BRANCH  26  29
ATOM     29  N   UNL     1       4.326   2.562   1.555  0.00  0.00    -0.204 NA
ATOM     30  H   UNL     1       3.768   2.220   2.270  0.00  0.00    +0.144 HD
ATOM     31  H   UNL     1       5.141   3.046   1.764  0.00  0.00    +0.144 HD
ENDBRANCH  26  29
ENDBRANCH  22  26
ENDBRANCH  19  25
ENDBRANCH   1  19
TORSDOF 7
