REMARK  Name = ZINC48066428
REMARK  7 active torsions:
REMARK  status: ('A' for Active; 'I' for Inactive)
REMARK    1  A    between atoms: C_1  and  N_2
REMARK    2  A    between atoms: N_2  and  C_3
REMARK    3  A    between atoms: N_2  and  C_4
REMARK    4  A    between atoms: C_4  and  C_11
REMARK    5  A    between atoms: C_11  and  N_12
REMARK    6  A    between atoms: N_15  and  C_16
REMARK    7  A    between atoms: C_16  and  C_17
REMARK                            x       y       z     vdW  Elec       q    Type
REMARK                         _______ _______ _______ _____ _____    ______ ____
ROOT
ATOM      1  C   UNL     1      -0.379  -0.018  -2.631  0.00  0.00    +0.094 C 
ENDROOT
BRANCH   1   2
ATOM      2  C   UNL     1       0.455  -0.162  -1.356  0.00  0.00    -0.050 C 
ATOM      3  C   UNL     1       1.234   1.102  -1.112  0.00  0.00    -0.010 C 
ATOM      4  C   UNL     1       1.503   1.889  -2.409  0.00  0.00    -0.001 C 
ATOM      5  C   UNL     1       1.898   0.980  -3.588  0.00  0.00    -0.000 C 
ATOM      6  C   UNL     1       2.852  -0.110  -3.181  0.00  0.00    -0.000 C 
ATOM      7  C   UNL     1       2.036  -1.377  -2.850  0.00  0.00    -0.001 C 
ATOM      8  C   UNL     1       1.451  -1.328  -1.518  0.00  0.00    -0.010 C 
BRANCH   2  10
ATOM      9  C   UNL     1       0.368  -0.500   1.017  0.00  0.00    -0.096 C 
ATOM     10  N   UNL     1      -0.430  -0.424  -0.214  0.00  0.00    +0.381 N 
ATOM     11  C   UNL     1      -1.412   0.662  -0.095  0.00  0.00    -0.096 C 
ATOM     12  H   UNL     1      -0.913  -1.299  -0.357  0.00  0.00    -0.082 HD
ENDBRANCH   2  10
ENDBRANCH   1   2
BRANCH   1  13
ATOM     13  N   UNL     1      -1.678  -0.667  -2.440  0.00  0.00    -0.301 N 
ATOM     14  C   UNL     1      -2.628  -0.566  -3.391  0.00  0.00    +0.300 C 
ATOM     15  O   UNL     1      -2.407   0.065  -4.407  0.00  0.00    -0.253 OA
ATOM     16  N   UNL     1      -3.824  -1.163  -3.215  0.00  0.00    -0.291 N 
ATOM     17  H   UNL     1      -1.855  -1.170  -1.629  0.00  0.00    +0.150 HD
ATOM     18  H   UNL     1      -4.000  -1.666  -2.405  0.00  0.00    +0.151 HD
BRANCH  16  19
ATOM     19  C   UNL     1      -4.856  -1.053  -4.248  0.00  0.00    +0.218 C 
BRANCH  19  20
ATOM     20  C   UNL     1      -6.106  -1.816  -3.804  0.00  0.00    +0.405 C 
ATOM     21  F   UNL     1      -6.584  -1.271  -2.607  0.00  0.00    -0.169 F 
ATOM     22  F   UNL     1      -7.092  -1.710  -4.791  0.00  0.00    -0.169 F 
ATOM     23  F   UNL     1      -5.785  -3.163  -3.607  0.00  0.00    -0.169 F 
ENDBRANCH  19  20
ENDBRANCH  16  19
ENDBRANCH   1  13
TORSDOF 5
