REMARK  Name = ZINC02271859
REMARK  4 active torsions:
REMARK  status: ('A' for Active; 'I' for Inactive)
REMARK    1  A    between atoms: C_6  and  C_7
REMARK    2  A    between atoms: C_7  and  C_9
REMARK    3  A    between atoms: C_10  and  N_26
REMARK    4  A    between atoms: C_16  and  C_24
REMARK                            x       y       z     vdW  Elec       q    Type
REMARK                         _______ _______ _______ _____ _____    ______ ____
ROOT
ATOM      1  C   UNL     1       0.393  -2.311  -2.312  0.00  0.00    +0.082 A 
ATOM      2  C   UNL     1      -0.518  -1.729  -1.425  0.00  0.00    +0.048 A 
ATOM      3  C   UNL     1      -0.276  -0.452  -0.949  0.00  0.00    +0.010 A 
ATOM      4  C   UNL     1       0.882   0.166  -1.405  0.00  0.00    +0.077 A 
ATOM      5  S   UNL     1       1.623  -1.026  -2.481  0.00  0.00    -0.068 S 
ATOM      6  N   UNL     1       1.306   1.431  -1.061  0.00  0.00    -0.298 N 
ATOM      7  C   UNL     1       0.558   2.044  -0.059  0.00  0.00    +0.088 C 
ATOM      8  C   UNL     1      -0.933   1.784  -0.073  0.00  0.00    +0.163 C 
ATOM      9  C   UNL     1      -1.195   0.280   0.021  0.00  0.00    +0.022 C 
ATOM     10  C   UNL     1      -2.647  -0.019  -0.348  0.00  0.00    +0.013 C 
ATOM     11  C   UNL     1      -3.580   0.691   0.636  0.00  0.00    +0.001 C 
ATOM     12  C   UNL     1      -3.296   0.197   2.056  0.00  0.00    +0.000 C 
ATOM     13  C   UNL     1      -1.842   0.503   2.422  0.00  0.00    +0.001 C 
ATOM     14  C   UNL     1      -0.909  -0.208   1.440  0.00  0.00    +0.013 C 
ATOM     15  H   UNL     1       2.066   1.861  -1.484  0.00  0.00    +0.154 HD
ATOM     16  H   UNL     1       2.059   3.008   0.905  0.00  0.00    +0.157 HD
ATOM     17  N   UNL     1       1.057   2.820   0.878  0.00  0.00    -0.389 N 
ATOM     18  H   UNL     1       0.437   3.236   1.583  0.00  0.00    +0.157 HD
ENDROOT
BRANCH   2  19
ATOM     19  N   UNL     1      -1.653  -2.425  -1.025  0.00  0.00    -0.357 N 
ATOM     20  H   UNL     1      -2.159  -2.940  -1.672  0.00  0.00    +0.142 HD
ATOM     21  H   UNL     1      -1.939  -2.395  -0.098  0.00  0.00    +0.142 HD
ENDBRANCH   2  19
BRANCH   1  22
ATOM     22  C   UNL     1       0.351  -3.581  -2.916  0.00  0.00    +0.202 C 
ATOM     23  O   UNL     1      -0.506  -4.384  -2.588  0.00  0.00    -0.286 OA
BRANCH  22  29
ATOM     24  C   UNL     1       1.942  -2.948  -4.726  0.00  0.00    +0.013 A 
ATOM     25  C   UNL     1       2.874  -3.290  -5.684  0.00  0.00    +0.016 A 
ATOM     26  C   UNL     1       3.211  -4.619  -5.882  0.00  0.00    +0.018 A 
ATOM     27  C   UNL     1       2.621  -5.610  -5.117  0.00  0.00    +0.016 A 
ATOM     28  C   UNL     1       1.692  -5.279  -4.152  0.00  0.00    +0.013 A 
ATOM     29  C   UNL     1       1.347  -3.942  -3.949  0.00  0.00    +0.023 A 
ATOM     30 BR   UNL     1       4.484  -5.080  -7.202  0.00  0.00    -0.050 Br
ENDBRANCH  22  29
ENDBRANCH   1  22
BRANCH   8  31
ATOM     31  C   UNL     1      -1.509   2.303  -1.325  0.00  0.00    +0.074 C 
ATOM     32  N   UNL     1      -1.953   2.704  -2.290  0.00  0.00    -0.196 NA
ENDBRANCH   8  31
TORSDOF 4
