REMARK  Name = ZINC00191899
REMARK  5 active torsions:
REMARK  status: ('A' for Active; 'I' for Inactive)
REMARK    1  A    between atoms: C_1  and  O_2
REMARK    2  A    between atoms: O_2  and  C_3
REMARK    3  A    between atoms: C_10  and  C_23
REMARK    4  A    between atoms: N_12  and  C_13
REMARK    5  A    between atoms: C_16  and  C_19
REMARK                            x       y       z     vdW  Elec       q    Type
REMARK                         _______ _______ _______ _____ _____    ______ ____
ROOT
ATOM      1  C   UNL     1      -1.246   1.755  -0.017  0.00  0.00    +0.121 A 
ATOM      2  C   UNL     1      -0.030   1.078  -0.031  0.00  0.00    +0.049 A 
ATOM      3  C   UNL     1       1.161   1.773  -0.032  0.00  0.00    +0.050 A 
ATOM      4  C   UNL     1       1.156   3.160  -0.014  0.00  0.00    +0.138 A 
ATOM      5  C   UNL     1      -0.071   3.851   0.002  0.00  0.00    +0.022 A 
ATOM      6  C   UNL     1      -1.274   3.135   0.005  0.00  0.00    +0.057 A 
ATOM      7  C   UNL     1      -0.070   5.315   0.012  0.00  0.00    +0.030 A 
ATOM      8  C   UNL     1       1.131   5.955  -0.269  0.00  0.00    +0.099 A 
ATOM      9  C   UNL     1       2.299   5.098  -0.550  0.00  0.00    +0.233 A 
ATOM     10  N   UNL     1       3.291   5.528  -1.303  0.00  0.00    -0.213 NA
ATOM     11  O   UNL     1       2.320   3.854  -0.009  0.00  0.00    -0.437 OA
ENDROOT
BRANCH  10  12
ATOM     12  C   UNL     1       4.407   4.763  -1.461  0.00  0.00    +0.068 A 
ATOM     13  C   UNL     1       5.445   4.835  -0.523  0.00  0.00    +0.028 A 
ATOM     14  C   UNL     1       6.560   4.065  -0.679  0.00  0.00    +0.015 A 
ATOM     15  C   UNL     1       6.672   3.211  -1.783  0.00  0.00    +0.037 A 
ATOM     16  C   UNL     1       5.638   3.143  -2.723  0.00  0.00    +0.015 A 
ATOM     17  C   UNL     1       4.520   3.908  -2.565  0.00  0.00    +0.028 A 
BRANCH  15  18
ATOM     18  C   UNL     1       7.880   2.384  -1.954  0.00  0.00    +0.242 C 
ATOM     19  O   UNL     1       7.977   1.641  -2.912  0.00  0.00    -0.270 OA
ATOM     20  N   UNL     1       8.876   2.450  -1.048  0.00  0.00    -0.325 N 
ATOM     21  H   UNL     1       8.798   3.042  -0.284  0.00  0.00    +0.145 HD
ATOM     22  H   UNL     1       9.670   1.905  -1.161  0.00  0.00    +0.145 HD
ENDBRANCH  15  18
ENDBRANCH  10  12
BRANCH   8  23
ATOM     23  C   UNL     1       1.235   7.424  -0.284  0.00  0.00    +0.247 C 
ATOM     24  O   UNL     1       2.300   7.956  -0.532  0.00  0.00    -0.270 OA
ATOM     25  N   UNL     1       0.150   8.179  -0.022  0.00  0.00    -0.325 N 
ATOM     26  H   UNL     1      -0.700   7.755   0.176  0.00  0.00    +0.145 HD
ATOM     27  H   UNL     1       0.218   9.146  -0.032  0.00  0.00    +0.145 HD
ENDBRANCH   8  23
BRANCH   1  29
ATOM     28  C   UNL     1      -2.311  -0.371  -0.038  0.00  0.00    +0.277 C 
ATOM     29  O   UNL     1      -2.412   1.055  -0.020  0.00  0.00    -0.495 OA
ENDBRANCH   1  29
TORSDOF 4
