REMARK  Name = ZINC22863359
REMARK  3 active torsions:
REMARK  status: ('A' for Active; 'I' for Inactive)
REMARK    1  A    between atoms: C_4  and  C_7
REMARK    2  A    between atoms: C_11  and  C_14
REMARK    3  A    between atoms: C_17  and  C_21
REMARK                            x       y       z     vdW  Elec       q    Type
REMARK                         _______ _______ _______ _____ _____    ______ ____
ROOT
ATOM      1  C   UNL     1       1.151   3.592   0.010  0.00  0.00    -0.011 C 
ATOM      2  C   UNL     1       1.505   4.138   1.411  0.00  0.00    +0.146 C 
ATOM      3  O   UNL     1       2.353   5.279   1.187  0.00  0.00    -0.392 OA
ATOM      4  C   UNL     1       2.485   5.471  -0.231  0.00  0.00    +0.108 C 
ATOM      5  N   UNL     1       2.241   4.140  -0.844  0.00  0.00    +0.405 N 
ATOM      6  H   UNL     1       3.117   3.477  -0.790  0.00  0.00    -0.081 HD
ATOM      7  H   UNL     1       1.894   4.205  -1.886  0.00  0.00    -0.081 HD
ENDROOT
BRANCH   1  11
ATOM      8  C   UNL     1       1.208  -0.679  -0.014  0.00  0.00    +0.000 A 
ATOM      9  C   UNL     1       0.002  -0.004   0.002  0.00  0.00    +0.000 A 
ATOM     10  C   UNL     1      -0.017   1.378   0.010  0.00  0.00    +0.002 A 
ATOM     11  C   UNL     1       1.171   2.086   0.002  0.00  0.00    -0.059 A 
ATOM     12  C   UNL     1       2.377   1.411  -0.014  0.00  0.00    +0.002 A 
ATOM     13  C   UNL     1       2.396   0.029  -0.021  0.00  0.00    +0.000 A 
ENDBRANCH   1  11
BRANCH   4  14
ATOM     14  C   UNL     1       3.895   5.958  -0.569  0.00  0.00    +0.198 C 
ATOM     15  N   UNL     1       4.157   7.265   0.087  0.00  0.00    -0.282 NA
ATOM     16  C   UNL     1       5.645   7.297   0.147  0.00  0.00    +0.112 C 
ATOM     17  C   UNL     1       6.006   5.817   0.403  0.00  0.00    +0.185 C 
ATOM     18  O   UNL     1       4.874   5.051  -0.038  0.00  0.00    -0.359 OA
ATOM     19  H   UNL     1       3.736   8.075  -0.527  0.00  0.00    +0.125 HD
BRANCH  16  20
ATOM     20  C   UNL     1       6.120   8.167   1.282  0.00  0.00    -0.028 A 
ATOM     21  C   UNL     1       5.396   8.224   2.459  0.00  0.00    +0.005 A 
ATOM     22  C   UNL     1       5.834   9.018   3.502  0.00  0.00    +0.000 A 
ATOM     23  C   UNL     1       6.990   9.764   3.365  0.00  0.00    +0.000 A 
ATOM     24  C   UNL     1       7.711   9.710   2.187  0.00  0.00    +0.000 A 
ATOM     25  C   UNL     1       7.276   8.912   1.145  0.00  0.00    +0.005 A 
ENDBRANCH  16  20
ENDBRANCH   4  14
TORSDOF 3
