REMARK  Name = ZINC09258976
REMARK  7 active torsions:
REMARK  status: ('A' for Active; 'I' for Inactive)
REMARK    1  A    between atoms: C_1  and  C_2
REMARK    2  A    between atoms: C_4  and  C_28
REMARK    3  A    between atoms: C_6  and  N_8
REMARK    4  A    between atoms: C_12  and  C_13
REMARK    5  A    between atoms: C_15  and  O_21
REMARK    6  A    between atoms: C_16  and  O_20
REMARK    7  A    between atoms: O_21  and  C_22
REMARK                            x       y       z     vdW  Elec       q    Type
REMARK                         _______ _______ _______ _____ _____    ______ ____
ROOT
ATOM      1  N   UNL     1      -0.063   5.280   0.326  0.00  0.00    -0.217 N 
ATOM      2  C   UNL     1      -1.216   5.909   0.019  0.00  0.00    +0.262 C 
ATOM      3  O   UNL     1      -2.186   5.284  -0.367  0.00  0.00    -0.269 OA
ATOM      4  C   UNL     1      -1.270   7.377   0.165  0.00  0.00    +0.100 C 
ATOM      5  C   UNL     1      -2.416   8.091  -0.130  0.00  0.00    +0.027 C 
ATOM      6  C   UNL     1      -0.044   8.049   0.640  0.00  0.00    +0.255 C 
ATOM      7  O   UNL     1      -0.010   9.256   0.785  0.00  0.00    -0.270 OA
ATOM      8  N   UNL     1       1.036   7.287   0.909  0.00  0.00    -0.263 N 
ATOM      9  C   UNL     1       1.011   5.956   0.758  0.00  0.00    +0.150 C 
ATOM     10  S   UNL     1       2.428   5.071   1.130  0.00  0.00    -0.018 S 
ATOM     11  H   UNL     1       1.850   7.713   1.222  0.00  0.00    +0.157 HD
ENDROOT
BRANCH   1  17
ATOM     12  C   UNL     1       1.296   1.339  -2.284  0.00  0.00    +0.044 C 
ATOM     13  C   UNL     1       0.666   1.951  -1.059  0.00  0.00    -0.048 A 
ATOM     14  C   UNL     1       0.162   1.137  -0.061  0.00  0.00    +0.006 A 
ATOM     15  C   UNL     1      -0.422   1.694   1.061  0.00  0.00    -0.048 A 
ATOM     16  C   UNL     1      -0.493   3.067   1.195  0.00  0.00    +0.027 A 
ATOM     17  C   UNL     1       0.012   3.887   0.196  0.00  0.00    +0.044 A 
ATOM     18  C   UNL     1       0.593   3.325  -0.933  0.00  0.00    +0.027 A 
ATOM     19  C   UNL     1      -0.976   0.802   2.143  0.00  0.00    +0.044 C 
ENDBRANCH   1  17
BRANCH   5  20
ATOM     20  C   UNL     1      -2.365   9.548  -0.227  0.00  0.00    -0.007 A 
ATOM     21  C   UNL     1      -1.325  10.172  -0.934  0.00  0.00    +0.058 A 
ATOM     22  C   UNL     1      -1.284  11.547  -1.021  0.00  0.00    +0.162 A 
ATOM     23  C   UNL     1      -2.274  12.317  -0.407  0.00  0.00    +0.160 A 
ATOM     24  C   UNL     1      -3.305  11.704   0.294  0.00  0.00    +0.065 A 
ATOM     25  C   UNL     1      -3.359  10.330   0.383  0.00  0.00    +0.029 A 
ATOM     26 BR   UNL     1      -4.768   9.498   1.332  0.00  0.00    -0.050 Br
BRANCH  23  27
ATOM     27  O   UNL     1      -2.229  13.671  -0.495  0.00  0.00    -0.503 OA
ATOM     28  H   UNL     1      -2.699  14.031  -1.259  0.00  0.00    +0.292 HD
ENDBRANCH  23  27
BRANCH  22  29
ATOM     29  O   UNL     1      -0.277  12.155  -1.705  0.00  0.00    -0.491 OA
ATOM     30  C   UNL     1       0.702  11.306  -2.308  0.00  0.00    +0.277 C 
ENDBRANCH  22  29
ENDBRANCH   5  20
TORSDOF 4
