REMARK  Name = ZINC50563441
REMARK  8 active torsions:
REMARK  status: ('A' for Active; 'I' for Inactive)
REMARK    1  A    between atoms: C_1  and  C_2
REMARK    2  A    between atoms: C_2  and  C_3
REMARK    3  A    between atoms: C_3  and  C_5
REMARK    4  A    between atoms: C_3  and  N_23
REMARK    5  A    between atoms: C_5  and  C_7
REMARK    6  A    between atoms: C_5  and  N_13
REMARK    7  A    between atoms: C_17  and  C_22
REMARK    8  A    between atoms: C_19  and  C_21
REMARK                            x       y       z     vdW  Elec       q    Type
REMARK                         _______ _______ _______ _____ _____    ______ ____
ROOT
ATOM      1  C   UNL     1       0.630  -2.023  -1.329  0.00  0.00    -0.045 C 
ENDROOT
BRANCH   1   2
ATOM      2  N   UNL     1      -0.777  -2.437  -1.256  0.00  0.00    +0.385 N 
ATOM      3  C   UNL     1      -0.860  -3.901  -1.315  0.00  0.00    -0.078 C 
ATOM      4  C   UNL     1      -2.317  -4.341  -1.158  0.00  0.00    -0.018 C 
ATOM      5  C   UNL     1      -3.152  -3.734  -2.289  0.00  0.00    -0.000 C 
ATOM      6  C   UNL     1      -3.000  -2.211  -2.263  0.00  0.00    -0.028 C 
ATOM      7  C   UNL     1      -1.517  -1.850  -2.379  0.00  0.00    -0.068 C 
ATOM      8  C   UNL     1      -0.962  -2.397  -3.696  0.00  0.00    -0.013 C 
ATOM      9  C   UNL     1      -3.769  -1.600  -3.436  0.00  0.00    +0.006 C 
ATOM     10  H   UNL     1      -1.177  -2.115  -0.387  0.00  0.00    -0.081 HD
ENDBRANCH   1   2
BRANCH   1  11
ATOM     11  C   UNL     1       1.391  -2.625  -0.175  0.00  0.00    -0.024 A 
ATOM     12  C   UNL     1       2.640  -3.151  -0.159  0.00  0.00    +0.010 A 
ATOM     13  C   UNL     1       3.141  -3.652   1.028  0.00  0.00    +0.023 A 
ATOM     14  C   UNL     1       2.367  -3.603   2.141  0.00  0.00    +0.055 A 
ATOM     15  S   UNL     1       0.884  -2.823   1.525  0.00  0.00    -0.088 S 
ATOM     16 BR   UNL     1       2.759  -4.199   3.892  0.00  0.00    -0.043 Br
ENDBRANCH   1  11
BRANCH   1  17
ATOM     17  C   UNL     1       0.718  -0.497  -1.257  0.00  0.00    -0.085 C 
BRANCH  17  18
ATOM     18  N   UNL     1       2.129  -0.090  -1.209  0.00  0.00    +0.379 N 
ATOM     19  H   UNL     1       2.601  -0.415  -2.039  0.00  0.00    -0.090 HD
ATOM     20  H   UNL     1       2.187   0.916  -1.162  0.00  0.00    -0.090 HD
ATOM     21  H   UNL     1       2.567  -0.491  -0.394  0.00  0.00    -0.090 HD
ENDBRANCH  17  18
BRANCH  17  23
ATOM     22  C   UNL     1      -0.019   1.526   0.010  0.00  0.00    +0.002 C 
ATOM     23  C   UNL     1       0.002  -0.004   0.002  0.00  0.00    -0.021 C 
ENDBRANCH  17  23
ENDBRANCH   1  17
TORSDOF 5
