REMARK  Name = ZINC37033820
REMARK  3 active torsions:
REMARK  status: ('A' for Active; 'I' for Inactive)
REMARK    1  A    between atoms: C_5  and  N_8
REMARK    2  A    between atoms: C_9  and  C_11
REMARK    3  A    between atoms: C_14  and  O_18
REMARK                            x       y       z     vdW  Elec       q    Type
REMARK                         _______ _______ _______ _____ _____    ______ ____
ROOT
ATOM      1  N   UNL     1       1.158  -2.095  -0.021  0.00  0.00    -0.284 N 
ATOM      2  C   UNL     1       0.057  -2.759   0.384  0.00  0.00    +0.203 C 
ATOM      3  O   UNL     1      -0.950  -2.147   0.668  0.00  0.00    -0.277 OA
ATOM      4  H   UNL     1       1.940  -2.587  -0.316  0.00  0.00    +0.155 HD
ENDROOT
BRANCH   1   9
ATOM      5  C   UNL     1       0.801   1.383  -1.161  0.00  0.00    +0.044 A 
ATOM      6  C   UNL     1       1.174   2.114  -0.083  0.00  0.00    +0.071 A 
ATOM      7  C   UNL     1       1.577   1.466   1.118  0.00  0.00    +0.120 A 
ATOM      8  C   UNL     1       1.575   0.009   1.154  0.00  0.00    +0.124 A 
ATOM      9  C   UNL     1       1.172  -0.697  -0.018  0.00  0.00    +0.080 A 
ATOM     10  C   UNL     1       0.798  -0.010  -1.132  0.00  0.00    +0.066 A 
ATOM     11 CL   UNL     1       0.308  -0.889  -2.547  0.00  0.00    -0.082 Cl
ATOM     12  N   UNL     1       1.969  -0.487   2.326  0.00  0.00    -0.189 NA
ATOM     13  S   UNL     1       2.294   0.788   3.251  0.00  0.00    +0.117 S 
ATOM     14  N   UNL     1       1.971   2.019   2.266  0.00  0.00    -0.189 NA
ATOM     15 CL   UNL     1       1.162   3.848  -0.167  0.00  0.00    -0.081 Cl
ENDBRANCH   1   9
BRANCH   2  16
ATOM     16  C   UNL     1       0.078  -4.263   0.483  0.00  0.00    +0.019 C 
ATOM     17  C   UNL     1      -0.173  -4.906  -0.904  0.00  0.00    +0.023 C 
ATOM     18  C   UNL     1      -0.732  -6.302  -0.542  0.00  0.00    +0.097 C 
ATOM     19  C   UNL     1      -1.278  -6.157   0.891  0.00  0.00    -0.050 C 
ATOM     20  N   UNL     1      -1.063  -4.750   1.300  0.00  0.00    +0.388 N 
ATOM     21  H   UNL     1      -0.834  -4.701   2.281  0.00  0.00    -0.085 HD
ATOM     22  H   UNL     1      -1.888  -4.203   1.106  0.00  0.00    -0.085 HD
BRANCH  18  23
ATOM     23  O   UNL     1       0.311  -7.278  -0.581  0.00  0.00    -0.394 OA
ATOM     24  H   UNL     1       0.019  -8.174  -0.362  0.00  0.00    +0.210 HD
ENDBRANCH  18  23
ENDBRANCH   2  16
TORSDOF 3
