REMARK  Name = ZINC18195515
REMARK  3 active torsions:
REMARK  status: ('A' for Active; 'I' for Inactive)
REMARK    1  A    between atoms: C_3  and  O_24
REMARK    2  A    between atoms: C_6  and  C_7
REMARK    3  A    between atoms: C_14  and  O_15
REMARK                            x       y       z     vdW  Elec       q    Type
REMARK                         _______ _______ _______ _____ _____    ______ ____
ROOT
ATOM      1  C   UNL     1       2.490   1.045  -0.016  0.00  0.00    +0.092 C 
ATOM      2  C   UNL     1       3.282   1.408   1.208  0.00  0.00    +0.067 A 
ATOM      3  C   UNL     1       4.377   2.229   1.157  0.00  0.00    +0.126 A 
ATOM      4  N   UNL     1       4.853   2.357   2.409  0.00  0.00    -0.260 N 
ATOM      5  H   UNL     1       5.647   2.899   2.686  0.00  0.00    +0.190 HD
ATOM      6  N   UNL     1       4.036   1.594   3.259  0.00  0.00    -0.134 NA
ATOM      7  C   UNL     1       3.096   1.027   2.534  0.00  0.00    +0.237 A 
ATOM      8  N   UNL     1       4.820   2.771  -0.044  0.00  0.00    -0.303 N 
ATOM      9  C   UNL     1       4.340   2.245  -1.217  0.00  0.00    +0.017 C 
ATOM     10  C   UNL     1       3.266   1.428  -1.258  0.00  0.00    +0.024 C 
ATOM     11  C   UNL     1       2.817   0.886  -2.476  0.00  0.00    +0.162 C 
ATOM     12  O   UNL     1       1.844   0.159  -2.479  0.00  0.00    -0.292 OA
ATOM     13  C   UNL     1       3.514   1.186  -3.773  0.00  0.00    +0.080 C 
ATOM     14  C   UNL     1       4.992   1.470  -3.489  0.00  0.00    +0.014 C 
ATOM     15  C   UNL     1       5.076   2.620  -2.484  0.00  0.00    +0.051 C 
ATOM     16  H   UNL     1       5.455   3.505  -0.052  0.00  0.00    +0.153 HD
ENDROOT
BRANCH   1  22
ATOM     17  C   UNL     1      -0.013   1.076   0.008  0.00  0.00    +0.008 A 
ATOM     18  C   UNL     1      -1.218   1.750   0.017  0.00  0.00    +0.046 A 
ATOM     19  C   UNL     1      -1.237   3.137   0.031  0.00  0.00    +0.117 A 
ATOM     20  C   UNL     1      -0.043   3.844   0.024  0.00  0.00    +0.046 A 
ATOM     21  C   UNL     1       1.160   3.165   0.008  0.00  0.00    +0.008 A 
ATOM     22  C   UNL     1       1.176   1.783   0.000  0.00  0.00    -0.035 A 
BRANCH  19  23
ATOM     23  O   UNL     1      -2.422   3.802   0.046  0.00  0.00    -0.507 OA
ATOM     24  H   UNL     1      -2.773   4.000  -0.833  0.00  0.00    +0.292 HD
ENDBRANCH  19  23
ENDBRANCH   1  22
BRANCH   7  25
ATOM     25  O   UNL     1       2.114   0.210   2.999  0.00  0.00    -0.491 OA
ATOM     26  H   UNL     1       2.211   0.102   3.988  0.00  0.00    +0.294 HD
ENDBRANCH   7  25
TORSDOF 3
