REMARK  Name = ZINC36866012
REMARK  8 active torsions:
REMARK  status: ('A' for Active; 'I' for Inactive)
REMARK    1  A    between atoms: C_1  and  C_2
REMARK    2  A    between atoms: C_8  and  N_10
REMARK    3  A    between atoms: N_10  and  C_11
REMARK    4  A    between atoms: C_11  and  C_12
REMARK    5  A    between atoms: C_12  and  C_14
REMARK    6  A    between atoms: C_12  and  N_17
REMARK    7  A    between atoms: C_14  and  C_15
REMARK    8  A    between atoms: C_14  and  C_16
REMARK                            x       y       z     vdW  Elec       q    Type
REMARK                         _______ _______ _______ _____ _____    ______ ____
ROOT
ATOM      1  C   UNL     1       2.973  -0.838   2.444  0.00  0.00    -0.098 C 
ENDROOT
BRANCH   1   2
ATOM      2  N   UNL     1       2.042  -0.339   1.423  0.00  0.00    +0.380 N 
ATOM      3  H   UNL     1       2.354  -0.636   0.510  0.00  0.00    -0.086 HD
ATOM      4  H   UNL     1       2.013   0.669   1.457  0.00  0.00    -0.086 HD
BRANCH   2  11
ATOM      5  C   UNL     1      -0.309   1.067   0.477  0.00  0.00    +0.006 C 
ATOM      6  C   UNL     1      -0.242  -0.460   0.549  0.00  0.00    -0.028 C 
ATOM      7  C   UNL     1      -1.641  -1.020   0.817  0.00  0.00    +0.002 C 
ATOM      8  C   UNL     1      -2.164  -0.470   2.145  0.00  0.00    +0.000 C 
ATOM      9  C   UNL     1      -1.222  -0.886   3.276  0.00  0.00    -0.002 C 
ATOM     10  C   UNL     1       0.176  -0.327   3.008  0.00  0.00    -0.016 C 
ATOM     11  C   UNL     1       0.700  -0.877   1.680  0.00  0.00    -0.069 C 
ENDBRANCH   2  11
ENDBRANCH   1   2
BRANCH   1  12
ATOM     12  C   UNL     1       4.331  -0.154   2.273  0.00  0.00    -0.083 C 
BRANCH  12  13
ATOM     13  N   UNL     1       4.841  -0.409   0.919  0.00  0.00    +0.381 N 
ATOM     14  C   UNL     1       4.195   0.509  -0.053  0.00  0.00    -0.079 C 
ATOM     15  C   UNL     1       5.190   0.524  -1.241  0.00  0.00    -0.020 C 
ATOM     16  C   UNL     1       6.567   0.479  -0.540  0.00  0.00    -0.020 C 
ATOM     17  C   UNL     1       6.289  -0.111   0.855  0.00  0.00    -0.079 C 
ATOM     18  H   UNL     1       4.672  -1.369   0.659  0.00  0.00    -0.082 HD
ENDBRANCH  12  13
BRANCH  12  19
ATOM     19  C   UNL     1       5.316  -0.711   3.303  0.00  0.00    -0.033 C 
ATOM     20  C   UNL     1       4.785  -0.445   4.713  0.00  0.00    +0.005 C 
ATOM     21  C   UNL     1       5.474  -2.219   3.094  0.00  0.00    +0.005 C 
ENDBRANCH  12  19
ENDBRANCH   1  12
TORSDOF 5
