REMARK  Name = ZINC43257218
REMARK  6 active torsions:
REMARK  status: ('A' for Active; 'I' for Inactive)
REMARK    1  A    between atoms: C_5  and  C_6
REMARK    2  A    between atoms: C_6  and  C_8
REMARK    3  A    between atoms: C_6  and  S_10
REMARK    4  A    between atoms: C_8  and  N_9
REMARK    5  A    between atoms: S_10  and  C_11
REMARK    6  A    between atoms: N_15  and  C_16
REMARK                            x       y       z     vdW  Elec       q    Type
REMARK                         _______ _______ _______ _____ _____    ______ ____
ROOT
ATOM      1  C   UNL     1      -1.149  -0.892  -0.120  0.00  0.00    +0.074 C 
ENDROOT
BRANCH   1   6
ATOM      2  C   UNL     1      -0.718   1.652   0.027  0.00  0.00    +0.014 A 
ATOM      3  C   UNL     1       0.231   2.647   0.175  0.00  0.00    +0.028 A 
ATOM      4  C   UNL     1       1.534   2.296   0.314  0.00  0.00    +0.078 A 
ATOM      5  S   UNL     1       1.448   0.515   0.235  0.00  0.00    -0.081 S 
ATOM      6  C   UNL     1      -0.318   0.357   0.024  0.00  0.00    +0.003 A 
ATOM      7 CL   UNL     1       2.925   3.316   0.514  0.00  0.00    -0.076 Cl
ENDBRANCH   1   6
BRANCH   1   8
ATOM      8  C   UNL     1      -0.689  -1.670  -1.355  0.00  0.00    -0.066 C 
BRANCH   8   9
ATOM      9  N   UNL     1      -0.975  -0.884  -2.563  0.00  0.00    +0.379 N 
ATOM     10  H   UNL     1      -0.751  -1.431  -3.381  0.00  0.00    -0.090 HD
ATOM     11  H   UNL     1      -1.954  -0.638  -2.580  0.00  0.00    -0.090 HD
ATOM     12  H   UNL     1      -0.417  -0.043  -2.557  0.00  0.00    -0.090 HD
ENDBRANCH   8   9
ENDBRANCH   1   8
BRANCH   1  13
ATOM     13  S   UNL     1      -0.946  -1.926   1.356  0.00  0.00    -0.078 S 
BRANCH  13  14
ATOM     14  C   UNL     1      -2.136  -3.209   1.145  0.00  0.00    +0.210 A 
ATOM     15  N   UNL     1      -3.014  -3.307   0.170  0.00  0.00    -0.101 NA
ATOM     16  N   UNL     1      -3.731  -4.363   0.315  0.00  0.00    -0.022 NA
ATOM     17  N   UNL     1      -3.372  -5.005   1.374  0.00  0.00    -0.043 NA
ATOM     18  N   UNL     1      -2.315  -4.281   1.952  0.00  0.00    -0.217 N 
BRANCH  18  19
ATOM     19  C   UNL     1      -1.569  -4.614   3.168  0.00  0.00    +0.112 C 
ATOM     20  C   UNL     1      -0.936  -6.014   3.033  0.00  0.00    +0.027 C 
ATOM     21  C   UNL     1      -1.056  -6.623   4.452  0.00  0.00    +0.002 C 
ATOM     22  C   UNL     1      -2.440  -6.114   4.927  0.00  0.00    +0.002 C 
ATOM     23  C   UNL     1      -2.525  -4.677   4.372  0.00  0.00    +0.027 C 
ENDBRANCH  18  19
ENDBRANCH  13  14
ENDBRANCH   1  13
TORSDOF 6
