REMARK  Name = ZINC64414555
REMARK  5 active torsions:
REMARK  status: ('A' for Active; 'I' for Inactive)
REMARK    1  A    between atoms: C_6  and  C_11
REMARK    2  A    between atoms: N_13  and  C_14
REMARK    3  A    between atoms: C_14  and  C_15
REMARK    4  A    between atoms: C_15  and  N_16
REMARK    5  A    between atoms: C_21  and  C_24
REMARK                            x       y       z     vdW  Elec       q    Type
REMARK                         _______ _______ _______ _____ _____    ______ ____
ROOT
ATOM      1  C   UNL     1       3.809  -4.725  -2.700  0.00  0.00    +0.124 C 
ENDROOT
BRANCH   1   4
ATOM      2  C   UNL     1       3.631  -2.749  -1.285  0.00  0.00    +0.239 C 
ATOM      3  O   UNL     1       4.291  -2.141  -2.101  0.00  0.00    -0.273 OA
ATOM      4  N   UNL     1       3.335  -4.048  -1.491  0.00  0.00    -0.312 N 
ATOM      5  H   UNL     1       2.807  -4.534  -0.838  0.00  0.00    +0.149 HD
BRANCH   2  11
ATOM      6  C   UNL     1      -0.016   1.348   0.009  0.00  0.00    +0.001 A 
ATOM      7  C   UNL     1       1.166   2.101   0.002  0.00  0.00    +0.002 A 
ATOM      8  C   UNL     1       2.391   1.535  -0.013  0.00  0.00    +0.026 A 
ATOM      9  C   UNL     1       2.529   0.120  -0.022  0.00  0.00    +0.043 A 
ATOM     10  N   UNL     1       3.587  -0.654  -0.037  0.00  0.00    -0.370 N 
ATOM     11  C   UNL     1       3.143  -2.053  -0.041  0.00  0.00    +0.190 C 
ATOM     12  C   UNL     1       1.631  -2.008  -0.025  0.00  0.00    +0.016 C 
ATOM     13  C   UNL     1       1.295  -0.698  -0.014  0.00  0.00    -0.004 A 
ATOM     14  C   UNL     1       0.002  -0.004   0.002  0.00  0.00    +0.010 A 
ATOM     15  H   UNL     1       4.509  -0.353  -0.045  0.00  0.00    +0.161 HD
ENDBRANCH   2  11
ENDBRANCH   1   4
BRANCH   1  16
ATOM     16  C   UNL     1       3.338  -6.180  -2.688  0.00  0.00    +0.146 C 
BRANCH  16  17
ATOM     17  N   UNL     1       3.813  -6.857  -3.898  0.00  0.00    -0.231 N 
ATOM     18  C   UNL     1       3.099  -6.762  -5.037  0.00  0.00    +0.253 C 
ATOM     19  O   UNL     1       2.087  -6.089  -5.079  0.00  0.00    -0.269 OA
ATOM     20  C   UNL     1       3.567  -7.489  -6.234  0.00  0.00    +0.066 C 
ATOM     21  C   UNL     1       4.443  -8.482  -6.055  0.00  0.00    +0.006 C 
ATOM     22  C   UNL     1       4.899  -8.802  -4.653  0.00  0.00    +0.162 C 
ATOM     23  N   UNL     1       4.973  -7.570  -3.858  0.00  0.00    -0.223 NA
ATOM     24  H   UNL     1       5.757  -7.000  -4.139  0.00  0.00    +0.146 HD
BRANCH  22  25
ATOM     25  C   UNL     1       3.920  -9.754  -4.015  0.00  0.00    +0.127 A 
ATOM     26  C   UNL     1       4.082 -11.084  -3.893  0.00  0.00    +0.046 A 
ATOM     27  C   UNL     1       2.931 -11.578  -3.237  0.00  0.00    +0.041 A 
ATOM     28  C   UNL     1       2.135 -10.521  -2.998  0.00  0.00    +0.195 A 
ATOM     29  O   UNL     1       2.742  -9.418  -3.466  0.00  0.00    -0.466 OA
ENDBRANCH  22  25
ENDBRANCH  16  17
ENDBRANCH   1  16
TORSDOF 5
