REMARK  Name = ZINC44973735
REMARK  11 active torsions:
REMARK  status: ('A' for Active; 'I' for Inactive)
REMARK    1  A    between atoms: C_1  and  C_2
REMARK    2  A    between atoms: C_2  and  O_3
REMARK    3  A    between atoms: O_3  and  C_4
REMARK    4  A    between atoms: C_4  and  C_6
REMARK    5  A    between atoms: C_8  and  C_30
REMARK    6  A    between atoms: C_15  and  S_27
REMARK    7  A    between atoms: C_19  and  C_20
REMARK    8  A    between atoms: C_19  and  O_26
REMARK    9  A    between atoms: S_27  and  C_28
REMARK   10  A    between atoms: C_28  and  C_29
REMARK   11  A    between atoms: C_33  and  N_36
REMARK                            x       y       z     vdW  Elec       q    Type
REMARK                         _______ _______ _______ _____ _____    ______ ____
ROOT
ATOM      1  C   UNL     1       1.528  -2.351  -2.299  0.00  0.00    +0.164 C 
ATOM      2  C   UNL     1       1.568  -3.875  -2.428  0.00  0.00    +0.076 C 
ATOM      3  C   UNL     1       2.584  -4.453  -1.482  0.00  0.00    +0.065 A 
ATOM      4  C   UNL     1       2.498  -5.803  -1.121  0.00  0.00    +0.258 A 
ATOM      5  O   UNL     1       1.606  -6.509  -1.566  0.00  0.00    -0.267 OA
ATOM      6  N   UNL     1       3.416  -6.311  -0.274  0.00  0.00    -0.302 N 
ATOM      7  H   UNL     1       3.370  -7.244  -0.012  0.00  0.00    +0.171 HD
ATOM      8  C   UNL     1       4.409  -5.516   0.215  0.00  0.00    +0.171 A 
ATOM      9  N   UNL     1       4.495  -4.246  -0.120  0.00  0.00    -0.208 NA
ATOM     10  C   UNL     1       3.609  -3.687  -0.955  0.00  0.00    +0.133 A 
ATOM     11  N   UNL     1       3.728  -2.347  -1.272  0.00  0.00    -0.297 N 
ATOM     12  C   UNL     1       2.958  -1.806  -2.404  0.00  0.00    +0.172 C 
ATOM     13  H   UNL     1       4.312  -1.770  -0.755  0.00  0.00    +0.151 HD
ENDROOT
BRANCH  12  14
ATOM     14  C   UNL     1       2.936  -0.301  -2.340  0.00  0.00    +0.003 A 
ATOM     15  C   UNL     1       2.711   0.436  -3.487  0.00  0.00    +0.008 A 
ATOM     16  C   UNL     1       2.691   1.817  -3.428  0.00  0.00    +0.000 A 
ATOM     17  C   UNL     1       2.896   2.461  -2.222  0.00  0.00    +0.000 A 
ATOM     18  C   UNL     1       3.120   1.724  -1.075  0.00  0.00    +0.000 A 
ATOM     19  C   UNL     1       3.136   0.342  -1.133  0.00  0.00    +0.008 A 
ENDBRANCH  12  14
BRANCH   2  20
ATOM     20  C   UNL     1       0.209  -4.439  -2.100  0.00  0.00    -0.039 A 
ATOM     21  C   UNL     1      -0.221  -4.487  -0.787  0.00  0.00    +0.006 A 
ATOM     22  C   UNL     1      -1.467  -5.005  -0.487  0.00  0.00    +0.033 A 
ATOM     23  C   UNL     1      -2.283  -5.473  -1.500  0.00  0.00    +0.126 A 
ATOM     24  C   UNL     1      -1.854  -5.424  -2.812  0.00  0.00    +0.033 A 
ATOM     25  C   UNL     1      -0.609  -4.903  -3.113  0.00  0.00    +0.006 A 
BRANCH  23  26
ATOM     26  N   UNL     1      -3.617  -6.029  -1.178  0.00  0.00    +0.056 N 
ATOM     27  O   UNL     1      -3.993  -6.072  -0.029  0.00  0.00    -0.126 OA
ATOM     28  O   UNL     1      -4.331  -6.438  -2.063  0.00  0.00    -0.126 OA
ENDBRANCH  23  26
ENDBRANCH   2  20
BRANCH   1  29
ATOM     29  C   UNL     1       0.939  -1.972  -0.965  0.00  0.00    +0.316 C 
ATOM     30  O   UNL     1       1.580  -2.136   0.047  0.00  0.00    -0.250 OA
BRANCH  29  31
ATOM     31  O   UNL     1      -0.297  -1.453  -0.899  0.00  0.00    -0.465 OA
BRANCH  31  33
ATOM     32  C   UNL     1      -2.205  -0.544   0.273  0.00  0.00    +0.048 C 
ATOM     33  C   UNL     1      -0.792  -1.117   0.399  0.00  0.00    +0.229 C 
ENDBRANCH  31  33
ENDBRANCH  29  31
ENDBRANCH   1  29
BRANCH  12  34
ATOM     34  O   UNL     1       3.548  -2.230  -3.634  0.00  0.00    -0.367 OA
ATOM     35  H   UNL     1       4.455  -1.919  -3.764  0.00  0.00    +0.212 HD
ENDBRANCH  12  34
BRANCH   8  36
ATOM     36  S   UNL     1       5.601  -6.202   1.317  0.00  0.00    -0.088 S 
BRANCH  36  37
ATOM     37  C   UNL     1       6.700  -4.809   1.696  0.00  0.00    +0.074 C 
ATOM     38  C   UNL     1       7.796  -5.272   2.657  0.00  0.00    +0.016 C 
ENDBRANCH  36  37
ENDBRANCH   8  36
TORSDOF 9
