REMARK  Name = ZINC61619726
REMARK  7 active torsions:
REMARK  status: ('A' for Active; 'I' for Inactive)
REMARK    1  A    between atoms: C_1  and  C_2
REMARK    2  A    between atoms: C_5  and  N_8
REMARK    3  A    between atoms: C_11  and  N_14
REMARK    4  A    between atoms: N_14  and  C_15
REMARK    5  A    between atoms: C_16  and  C_18
REMARK    6  A    between atoms: C_21  and  C_24
REMARK    7  A    between atoms: C_24  and  N_25
REMARK                            x       y       z     vdW  Elec       q    Type
REMARK                         _______ _______ _______ _____ _____    ______ ____
ROOT
ATOM      1  N   UNL     1      -1.167  -8.095   2.234  0.00  0.00    -0.298 N 
ATOM      2  C   UNL     1      -0.538  -8.742   1.080  0.00  0.00    +0.132 C 
ATOM      3  C   UNL     1      -1.704  -8.844   3.217  0.00  0.00    +0.247 C 
ATOM      4  O   UNL     1      -2.319  -8.311   4.120  0.00  0.00    -0.270 OA
ENDROOT
BRANCH   1   8
ATOM      5  N   UNL     1      -0.558  -4.072   1.132  0.00  0.00    +0.382 N 
ATOM      6  C   UNL     1       0.158  -4.546   2.323  0.00  0.00    -0.077 C 
ATOM      7  C   UNL     1       0.214  -6.075   2.315  0.00  0.00    +0.004 C 
ATOM      8  C   UNL     1      -1.212  -6.633   2.318  0.00  0.00    +0.073 C 
ATOM      9  C   UNL     1      -1.972  -6.073   1.112  0.00  0.00    +0.004 C 
ATOM     10  C   UNL     1      -1.947  -4.544   1.165  0.00  0.00    -0.077 C 
ATOM     11  H   UNL     1      -0.102  -4.428   0.305  0.00  0.00    -0.081 HD
BRANCH   5  16
ATOM     12  C   UNL     1       0.203   1.444  -0.233  0.00  0.00    +0.007 C 
ATOM     13  C   UNL     1       0.186  -0.086  -0.204  0.00  0.00    -0.014 C 
ATOM     14  C   UNL     1      -1.262  -0.579  -0.170  0.00  0.00    +0.002 C 
ATOM     15  C   UNL     1      -1.279  -2.109  -0.141  0.00  0.00    -0.015 C 
ATOM     16  C   UNL     1      -0.541  -2.604   1.105  0.00  0.00    -0.069 C 
ATOM     17  C   UNL     1       0.907  -2.111   1.070  0.00  0.00    -0.015 C 
ATOM     18  C   UNL     1       0.924  -0.581   1.041  0.00  0.00    +0.002 C 
ENDBRANCH   5  16
ENDBRANCH   1   8
BRANCH   3  19
ATOM     19  C   UNL     1      -1.546 -10.314   3.197  0.00  0.00    +0.037 A 
ATOM     20  C   UNL     1      -0.367 -10.885   2.715  0.00  0.00    +0.013 A 
ATOM     21  C   UNL     1      -0.225 -12.257   2.699  0.00  0.00    +0.006 A 
ATOM     22  C   UNL     1      -1.248 -13.066   3.161  0.00  0.00    -0.030 A 
ATOM     23  C   UNL     1      -2.419 -12.507   3.640  0.00  0.00    +0.006 A 
ATOM     24  C   UNL     1      -2.571 -11.136   3.666  0.00  0.00    +0.013 A 
BRANCH  22  25
ATOM     25  C   UNL     1      -1.087 -14.565   3.140  0.00  0.00    +0.141 C 
BRANCH  25  26
ATOM     26  N   UNL     1      -0.494 -15.009   4.404  0.00  0.00    -0.295 N 
ATOM     27  C   UNL     1      -0.256 -16.319   4.613  0.00  0.00    +0.297 C 
ATOM     28  O   UNL     1      -0.532 -17.132   3.752  0.00  0.00    -0.253 OA
ATOM     29  N   UNL     1       0.289 -16.728   5.776  0.00  0.00    -0.313 N 
ATOM     30  H   UNL     1      -0.273 -14.360   5.091  0.00  0.00    +0.151 HD
ATOM     31  H   UNL     1       0.510 -16.079   6.463  0.00  0.00    +0.146 HD
ATOM     32  H   UNL     1       0.461 -17.671   5.926  0.00  0.00    +0.146 HD
ENDBRANCH  25  26
ENDBRANCH  22  25
ENDBRANCH   3  19
TORSDOF 5
