REMARK  Name = ZINC66838193
REMARK  8 active torsions:
REMARK  status: ('A' for Active; 'I' for Inactive)
REMARK    1  A    between atoms: C_1  and  C_2
REMARK    2  A    between atoms: C_2  and  C_4
REMARK    3  A    between atoms: C_2  and  N_17
REMARK    4  A    between atoms: C_11  and  C_13
REMARK    5  A    between atoms: C_13  and  N_14
REMARK    6  A    between atoms: N_14  and  C_15
REMARK    7  A    between atoms: N_14  and  C_16
REMARK    8  A    between atoms: C_18  and  C_20
REMARK                            x       y       z     vdW  Elec       q    Type
REMARK                         _______ _______ _______ _____ _____    ______ ____
ROOT
ATOM      1  C   UNL     1       0.913  -0.519   1.081  0.00  0.00    +0.236 C 
ATOM      2  O   UNL     1       1.979  -1.065   0.890  0.00  0.00    -0.274 OA
ATOM      3  N   UNL     1       0.449  -0.367   2.337  0.00  0.00    -0.299 N 
ATOM      4  C   UNL     1      -0.889   0.190   2.579  0.00  0.00    +0.108 C 
ATOM      5  C   UNL     1      -0.764   1.371   3.547  0.00  0.00    +0.019 C 
ATOM      6  C   UNL     1      -0.035   0.913   4.813  0.00  0.00    +0.003 C 
ATOM      7  C   UNL     1       1.372   0.435   4.449  0.00  0.00    +0.021 C 
ATOM      8  C   UNL     1       1.269  -0.761   3.491  0.00  0.00    +0.060 C 
ENDROOT
BRANCH   1  10
ATOM      9  C   UNL     1       0.256   1.508  -0.186  0.00  0.00    +0.038 C 
ATOM     10  C   UNL     1       0.107  -0.011  -0.086  0.00  0.00    +0.156 C 
BRANCH  10  11
ATOM     11  N   UNL     1       0.592  -0.631  -1.322  0.00  0.00    -0.304 N 
ATOM     12  C   UNL     1      -0.229  -0.750  -2.384  0.00  0.00    +0.217 C 
ATOM     13  O   UNL     1      -1.370  -0.343  -2.317  0.00  0.00    -0.275 OA
ATOM     14  H   UNL     1       1.504  -0.957  -1.375  0.00  0.00    +0.149 HD
BRANCH  12  15
ATOM     15  C   UNL     1       0.270  -1.388  -3.654  0.00  0.00    +0.079 C 
ATOM     16  C   UNL     1       1.453  -0.584  -4.202  0.00  0.00    +0.041 C 
ATOM     17  C   UNL     1       1.902  -1.193  -5.532  0.00  0.00    +0.160 C 
ATOM     18  O   UNL     1       0.804  -1.201  -6.446  0.00  0.00    -0.380 OA
ATOM     19  C   UNL     1      -0.314  -1.977  -6.009  0.00  0.00    +0.160 C 
ATOM     20  C   UNL     1      -0.852  -1.399  -4.697  0.00  0.00    +0.041 C 
ENDBRANCH  12  15
ENDBRANCH  10  11
ENDBRANCH   1  10
BRANCH   8  21
ATOM     21  C   UNL     1       2.667  -1.161   3.014  0.00  0.00    -0.057 C 
BRANCH  21  22
ATOM     22  N   UNL     1       3.495  -1.521   4.173  0.00  0.00    +0.377 N 
ATOM     23  C   UNL     1       2.971  -2.748   4.788  0.00  0.00    -0.097 C 
ATOM     24  C   UNL     1       4.879  -1.745   3.734  0.00  0.00    -0.097 C 
ATOM     25  H   UNL     1       3.474  -0.771   4.847  0.00  0.00    -0.083 HD
ENDBRANCH  21  22
ENDBRANCH   8  21
TORSDOF 5
