REMARK  Name = ZINC36329567
REMARK  7 active torsions:
REMARK  status: ('A' for Active; 'I' for Inactive)
REMARK    1  A    between atoms: C_1  and  C_2
REMARK    2  A    between atoms: C_5  and  C_8
REMARK    3  A    between atoms: C_13  and  O_32
REMARK    4  A    between atoms: N_21  and  C_24
REMARK    5  A    between atoms: C_24  and  C_25
REMARK    6  A    between atoms: C_25  and  C_26
REMARK    7  A    between atoms: C_26  and  N_27
REMARK                            x       y       z     vdW  Elec       q    Type
REMARK                         _______ _______ _______ _____ _____    ______ ____
ROOT
ATOM      1  C   UNL     1       0.059  -4.275  -0.021  0.00  0.00    +0.091 C 
ATOM      2  C   UNL     1      -1.165  -4.793   0.684  0.00  0.00    +0.007 A 
ATOM      3  C   UNL     1      -2.387  -4.769   0.035  0.00  0.00    +0.012 A 
ATOM      4  C   UNL     1      -3.520  -5.240   0.668  0.00  0.00    +0.046 A 
ATOM      5  C   UNL     1      -3.436  -5.739   1.960  0.00  0.00    +0.120 A 
ATOM      6  C   UNL     1      -2.214  -5.764   2.612  0.00  0.00    +0.092 A 
ATOM      7  C   UNL     1      -1.075  -5.290   1.975  0.00  0.00    +0.138 A 
ATOM      8  O   UNL     1       0.112  -5.319   2.626  0.00  0.00    -0.437 OA
ATOM      9  C   UNL     1       1.270  -5.250   1.935  0.00  0.00    +0.229 A 
ATOM     10  C   UNL     1       1.302  -4.760   0.669  0.00  0.00    +0.066 A 
ATOM     11  C   UNL     1       2.544  -4.708  -0.006  0.00  0.00    +0.115 A 
ATOM     12  N   UNL     1       2.625  -4.244  -1.236  0.00  0.00    -0.384 N 
ATOM     13  N   UNL     1       3.669  -5.158   0.656  0.00  0.00    -0.318 N 
ATOM     14  C   UNL     1       3.550  -5.632   1.922  0.00  0.00    +0.204 A 
ATOM     15  N   UNL     1       2.407  -5.674   2.520  0.00  0.00    -0.202 NA
ATOM     16  H   UNL     1       1.827  -3.932  -1.690  0.00  0.00    +0.157 HD
ATOM     17  H   UNL     1       3.483  -4.214  -1.688  0.00  0.00    +0.157 HD
ENDROOT
BRANCH   1  22
ATOM     18  C   UNL     1      -0.018   1.503   0.010  0.00  0.00    +0.044 C 
ATOM     19  C   UNL     1       0.002  -0.004   0.002  0.00  0.00    -0.050 A 
ATOM     20  C   UNL     1       0.006  -0.689  -1.199  0.00  0.00    +0.003 A 
ATOM     21  C   UNL     1       0.025  -2.071  -1.206  0.00  0.00    +0.005 A 
ATOM     22  C   UNL     1       0.040  -2.768  -0.013  0.00  0.00    -0.035 A 
ATOM     23  C   UNL     1       0.037  -2.084   1.188  0.00  0.00    +0.005 A 
ATOM     24  C   UNL     1       0.023  -0.702   1.195  0.00  0.00    +0.003 A 
ENDBRANCH   1  22
BRANCH   5  25
ATOM     25  O   UNL     1      -4.550  -6.203   2.585  0.00  0.00    -0.507 OA
ATOM     26  H   UNL     1      -4.717  -7.145   2.443  0.00  0.00    +0.292 HD
ENDBRANCH   5  25
BRANCH  13  27
ATOM     27  C   UNL     1       4.978  -5.124  -0.000  0.00  0.00    +0.126 C 
BRANCH  27  28
ATOM     28  C   UNL     1       5.659  -3.784   0.289  0.00  0.00    +0.043 C 
BRANCH  28  29
ATOM     29  C   UNL     1       7.026  -3.749  -0.397  0.00  0.00    +0.124 C 
BRANCH  29  30
ATOM     30  N   UNL     1       7.678  -2.466  -0.120  0.00  0.00    -0.338 N 
ATOM     31  C   UNL     1       7.571  -1.323  -0.865  0.00  0.00    +0.104 A 
ATOM     32  C   UNL     1       8.327  -0.389  -0.256  0.00  0.00    +0.101 A 
ATOM     33  N   UNL     1       8.881  -0.947   0.831  0.00  0.00    -0.352 N 
ATOM     34  C   UNL     1       8.492  -2.190   0.922  0.00  0.00    +0.173 A 
ATOM     35  H   UNL     1       9.473  -0.497   1.453  0.00  0.00    +0.166 HD
ENDBRANCH  29  30
ENDBRANCH  28  29
ENDBRANCH  27  28
ENDBRANCH  13  27
TORSDOF 6
