REMARK  Name = ZINC48870358
REMARK  6 active torsions:
REMARK  status: ('A' for Active; 'I' for Inactive)
REMARK    1  A    between atoms: C_1  and  C_2
REMARK    2  A    between atoms: C_2  and  N_3
REMARK    3  A    between atoms: N_6  and  C_9
REMARK    4  A    between atoms: C_9  and  C_10
REMARK    5  A    between atoms: C_10  and  N_11
REMARK    6  A    between atoms: C_18  and  C_20
REMARK                            x       y       z     vdW  Elec       q    Type
REMARK                         _______ _______ _______ _____ _____    ______ ____
ROOT
ATOM      1  N   UNL     1      -6.161  -4.700  -1.250  0.00  0.00    -0.298 N 
ATOM      2  C   UNL     1      -6.360  -6.030  -1.341  0.00  0.00    +0.305 C 
ATOM      3  O   UNL     1      -5.408  -6.785  -1.393  0.00  0.00    -0.252 OA
ATOM      4  N   UNL     1      -7.614  -6.523  -1.373  0.00  0.00    -0.247 N 
ATOM      5  C   UNL     1      -7.819  -7.896  -1.466  0.00  0.00    +0.189 A 
ATOM      6  N   UNL     1      -6.930  -8.867  -1.528  0.00  0.00    -0.126 NA
ATOM      7  N   UNL     1      -7.272 -10.081  -1.610  0.00  0.00    -0.145 NA
ATOM      8  C   UNL     1      -8.553 -10.386  -1.636  0.00  0.00    +0.101 A 
ATOM      9  S   UNL     1      -9.270  -8.752  -1.523  0.00  0.00    -0.036 S 
ATOM     10  C   UNL     1      -9.225 -11.732  -1.729  0.00  0.00    +0.075 C 
ATOM     11  H   UNL     1      -6.920  -4.098  -1.208  0.00  0.00    +0.150 HD
ATOM     12  H   UNL     1      -8.373  -5.921  -1.331  0.00  0.00    +0.158 HD
ENDROOT
BRANCH   1  13
ATOM     13  C   UNL     1      -4.798  -4.164  -1.215  0.00  0.00    +0.121 C 
BRANCH  13  14
ATOM     14  C   UNL     1      -4.853  -2.639  -1.111  0.00  0.00    +0.103 C 
BRANCH  14  18
ATOM     15  N   UNL     1      -1.376  -0.512   0.012  0.00  0.00    +0.381 N 
ATOM     16  C   UNL     1      -2.050  -0.124  -1.234  0.00  0.00    -0.063 C 
ATOM     17  C   UNL     1      -3.492  -0.638  -1.215  0.00  0.00    +0.066 C 
ATOM     18  N   UNL     1      -3.486  -2.101  -1.076  0.00  0.00    -0.304 NA
ATOM     19  C   UNL     1      -2.792  -2.506   0.155  0.00  0.00    +0.066 C 
ATOM     20  C   UNL     1      -1.357  -1.977   0.125  0.00  0.00    -0.063 C 
ATOM     21  H   UNL     1      -1.873  -0.121   0.799  0.00  0.00    -0.082 HD
BRANCH  15  23
ATOM     22  C   UNL     1      -0.019   1.526   0.010  0.00  0.00    -0.017 C 
ATOM     23  C   UNL     1       0.002  -0.004   0.002  0.00  0.00    -0.082 C 
ENDBRANCH  15  23
ENDBRANCH  14  18
ENDBRANCH  13  14
ENDBRANCH   1  13
TORSDOF 4
