REMARK  Name = ZINC05464556
REMARK  4 active torsions:
REMARK  status: ('A' for Active; 'I' for Inactive)
REMARK    1  A    between atoms: C_7  and  C_15
REMARK    2  A    between atoms: N_16  and  C_17
REMARK    3  A    between atoms: C_20  and  S_23
REMARK    4  A    between atoms: S_23  and  N_26
REMARK                            x       y       z     vdW  Elec       q    Type
REMARK                         _______ _______ _______ _____ _____    ______ ____
ROOT
ATOM      1  C   UNL     1      -2.241   3.542   3.926  0.00  0.00    +0.064 A 
ATOM      2  C   UNL     1      -2.205   2.162   3.709  0.00  0.00    +0.029 A 
ATOM      3  C   UNL     1      -1.400   1.644   2.715  0.00  0.00    +0.031 A 
ATOM      4  C   UNL     1      -0.630   2.489   1.934  0.00  0.00    +0.111 A 
ATOM      5  C   UNL     1      -0.657   3.856   2.146  0.00  0.00    +0.031 A 
ATOM      6  C   UNL     1      -1.460   4.388   3.132  0.00  0.00    +0.029 A 
ENDROOT
BRANCH   4   7
ATOM      7  S   UNL     1       0.394   1.818   0.667  0.00  0.00    +0.080 S 
ATOM      8  O   UNL     1       0.662   0.471   1.032  0.00  0.00    -0.148 OA
ATOM      9  O   UNL     1       1.429   2.765   0.437  0.00  0.00    -0.148 OA
BRANCH   7  10
ATOM     10  N   UNL     1      -0.512   1.762  -0.718  0.00  0.00    -0.228 N 
ATOM     11  C   UNL     1      -0.948   2.928  -1.302  0.00  0.00    +0.186 C 
ATOM     12  H   UNL     1      -0.909   4.955  -1.102  0.00  0.00    +0.159 HD
ATOM     13  N   UNL     1      -1.701   2.882  -2.451  0.00  0.00    -0.370 N 
ATOM     14  H   UNL     1      -0.736   0.907  -1.117  0.00  0.00    +0.191 HD
ATOM     15  H   UNL     1      -1.924   2.026  -2.850  0.00  0.00    +0.159 HD
ATOM     16  H   UNL     1      -2.008   3.704  -2.863  0.00  0.00    +0.159 HD
ATOM     17  N   UNL     1      -0.609   4.063  -0.707  0.00  0.00    -0.370 N 
ATOM     18  H   UNL     1      -0.045   4.045   0.150  0.00  0.00    +0.159 HD
ENDBRANCH   7  10
ENDBRANCH   4   7
BRANCH   1  20
ATOM     19  C   UNL     1      -2.567   4.980   5.708  0.00  0.00    +0.120 C 
ATOM     20  N   UNL     1      -3.035   4.062   4.907  0.00  0.00    -0.255 NA
BRANCH  19  27
ATOM     21  C   UNL     1      -1.109   7.725   8.629  0.00  0.00    +0.001 A 
ATOM     22  C   UNL     1      -1.950   8.235   9.618  0.00  0.00    +0.002 A 
ATOM     23  C   UNL     1      -3.260   7.884   9.694  0.00  0.00    +0.028 A 
ATOM     24  C   UNL     1      -3.796   6.979   8.752  0.00  0.00    +0.072 A 
ATOM     25  C   UNL     1      -2.908   6.446   7.716  0.00  0.00    +0.010 A 
ATOM     26  C   UNL     1      -1.563   6.849   7.693  0.00  0.00    +0.010 A 
ATOM     27  C   UNL     1      -3.420   5.538   6.762  0.00  0.00    +0.011 A 
ATOM     28  C   UNL     1      -4.787   5.193   6.858  0.00  0.00    +0.010 A 
ATOM     29  C   UNL     1      -5.382   4.304   5.949  0.00  0.00    +0.010 A 
ATOM     30  C   UNL     1      -6.702   3.998   6.075  0.00  0.00    +0.001 A 
ATOM     31  C   UNL     1      -7.482   4.548   7.091  0.00  0.00    +0.002 A 
ATOM     32  C   UNL     1      -6.963   5.404   8.008  0.00  0.00    +0.028 A 
ATOM     33  C   UNL     1      -5.601   5.770   7.931  0.00  0.00    +0.072 A 
ATOM     34  N   UNL     1      -5.074   6.620   8.805  0.00  0.00    -0.247 NA
ENDBRANCH  19  27
ENDBRANCH   1  20
TORSDOF 4
