REMARK  Name = ZINC52010565
REMARK  5 active torsions:
REMARK  status: ('A' for Active; 'I' for Inactive)
REMARK    1  A    between atoms: C_7  and  N_14
REMARK    2  A    between atoms: C_8  and  C_11
REMARK    3  A    between atoms: C_11  and  N_13
REMARK    4  A    between atoms: N_14  and  C_15
REMARK    5  A    between atoms: C_21  and  O_23
REMARK                            x       y       z     vdW  Elec       q    Type
REMARK                         _______ _______ _______ _____ _____    ______ ____
ROOT
ATOM      1  C   UNL     1       0.234   0.030  -1.987  0.00  0.00    +0.001 A 
ATOM      2  C   UNL     1       1.256   0.017  -2.932  0.00  0.00    +0.002 A 
ATOM      3  C   UNL     1       1.966  -1.119  -3.182  0.00  0.00    +0.026 A 
ATOM      4  C   UNL     1       1.667  -2.298  -2.480  0.00  0.00    +0.048 A 
ATOM      5  C   UNL     1       0.628  -2.281  -1.520  0.00  0.00    +0.020 A 
ATOM      6  C   UNL     1      -0.084  -1.095  -1.286  0.00  0.00    +0.012 A 
ATOM      7  C   UNL     1       0.326  -3.468  -0.811  0.00  0.00    +0.048 A 
ATOM      8  C   UNL     1       1.084  -4.613  -1.102  0.00  0.00    +0.040 A 
ATOM      9  C   UNL     1       2.097  -4.538  -2.071  0.00  0.00    +0.095 A 
ATOM     10  N   UNL     1       2.354  -3.425  -2.711  0.00  0.00    -0.360 N 
ATOM     11  H   UNL     1       3.063  -3.417  -3.373  0.00  0.00    +0.165 HD
ENDROOT
BRANCH   8  12
ATOM     12  C   UNL     1       0.819  -5.877  -0.400  0.00  0.00    +0.080 C 
ATOM     13  S   UNL     1      -0.299  -5.919   0.896  0.00  0.00    -0.035 S 
BRANCH  12  14
ATOM     14  N   UNL     1       1.457  -7.003  -0.776  0.00  0.00    -0.352 N 
ATOM     15  H   UNL     1       2.090  -6.980  -1.510  0.00  0.00    +0.143 HD
ATOM     16  H   UNL     1       1.282  -7.838  -0.312  0.00  0.00    +0.143 HD
ENDBRANCH  12  14
ENDBRANCH   8  12
BRANCH   7  17
ATOM     17  N   UNL     1      -0.677  -3.499   0.133  0.00  0.00    -0.337 N 
ATOM     18  H   UNL     1      -0.458  -3.618   1.070  0.00  0.00    +0.146 HD
BRANCH  17  19
ATOM     19  C   UNL     1      -2.075  -3.351  -0.279  0.00  0.00    +0.099 C 
ATOM     20  C   UNL     1      -2.918  -2.916   0.922  0.00  0.00    +0.025 C 
ATOM     21  C   UNL     1      -4.378  -2.762   0.492  0.00  0.00    +0.002 C 
ATOM     22  C   UNL     1      -4.897  -4.100  -0.038  0.00  0.00    +0.003 C 
ATOM     23  C   UNL     1      -4.055  -4.535  -1.239  0.00  0.00    +0.033 C 
ATOM     24  C   UNL     1      -2.595  -4.689  -0.809  0.00  0.00    +0.135 C 
BRANCH  24  25
ATOM     25  O   UNL     1      -1.808  -5.095  -1.930  0.00  0.00    -0.390 OA
ATOM     26  H   UNL     1      -2.082  -5.938  -2.318  0.00  0.00    +0.210 HD
ENDBRANCH  24  25
ENDBRANCH  17  19
ENDBRANCH   7  17
TORSDOF 5
