REMARK  Name = ZINC42901851
REMARK  13 active torsions:
REMARK  status: ('A' for Active; 'I' for Inactive)
REMARK    1  A    between atoms: C_1  and  C_2
REMARK    2  A    between atoms: C_2  and  C_3
REMARK    3  A    between atoms: C_2  and  C_4
REMARK    4  A    between atoms: C_2  and  O_5
REMARK    5  A    between atoms: O_5  and  C_6
REMARK    6  A    between atoms: N_11  and  C_14
REMARK    7  A    between atoms: C_14  and  C_15
REMARK    8  A    between atoms: C_15  and  C_16
REMARK    9  A    between atoms: C_16  and  N_17
REMARK   10  A    between atoms: N_20  and  C_21
REMARK   11  A    between atoms: C_21  and  C_22
REMARK   12  A    between atoms: C_22  and  C_23
REMARK   13  A    between atoms: C_23  and  O_24
REMARK                            x       y       z     vdW  Elec       q    Type
REMARK                         _______ _______ _______ _____ _____    ______ ____
ROOT
ATOM      1  C   UNL     1       1.952  -0.085  -1.337  0.00  0.00    +0.403 C 
ATOM      2  O   UNL     1       2.488   0.619  -0.503  0.00  0.00    -0.226 OA
ATOM      3  N   UNL     1       2.641  -0.485  -2.424  0.00  0.00    -0.271 N 
ATOM      4  C   UNL     1       2.011  -1.332  -3.449  0.00  0.00    +0.092 C 
ATOM      5  C   UNL     1       2.255  -0.697  -4.821  0.00  0.00    -0.059 C 
ATOM      6  N   UNL     1       3.695  -0.484  -5.012  0.00  0.00    +0.382 N 
ATOM      7  C   UNL     1       4.191   0.490  -4.032  0.00  0.00    -0.059 C 
ATOM      8  C   UNL     1       4.042  -0.082  -2.623  0.00  0.00    +0.092 C 
ATOM      9  H   UNL     1       4.182  -1.360  -4.890  0.00  0.00    -0.082 HD
ENDROOT
BRANCH   1  10
ATOM     10  O   UNL     1       0.671  -0.465  -1.174  0.00  0.00    -0.445 OA
BRANCH  10  12
ATOM     11  C   UNL     1      -0.019   1.526   0.010  0.00  0.00    +0.055 C 
ATOM     12  C   UNL     1       0.002  -0.004   0.002  0.00  0.00    +0.107 C 
ATOM     13  C   UNL     1       0.742  -0.511   1.242  0.00  0.00    +0.055 C 
ATOM     14  C   UNL     1      -1.433  -0.534   0.013  0.00  0.00    +0.055 C 
ENDBRANCH  10  12
ENDBRANCH   1  10
BRANCH   6  15
ATOM     15  C   UNL     1       3.938   0.022  -6.370  0.00  0.00    -0.077 C 
BRANCH  15  16
ATOM     16  C   UNL     1       5.445   0.126  -6.613  0.00  0.00    +0.000 C 
BRANCH  16  17
ATOM     17  C   UNL     1       5.698   0.654  -8.027  0.00  0.00    +0.104 C 
BRANCH  17  18
ATOM     18  N   UNL     1       7.141   0.753  -8.260  0.00  0.00    -0.299 N 
ATOM     19  C   UNL     1       7.603   1.198  -9.445  0.00  0.00    +0.300 C 
ATOM     20  O   UNL     1       6.822   1.516 -10.321  0.00  0.00    -0.253 OA
ATOM     21  N   UNL     1       8.931   1.289  -9.660  0.00  0.00    -0.299 N 
ATOM     22  H   UNL     1       7.764   0.499  -7.561  0.00  0.00    +0.150 HD
ATOM     23  H   UNL     1       9.554   1.035  -8.961  0.00  0.00    +0.150 HD
BRANCH  21  24
ATOM     24  C   UNL     1       9.433   1.772 -10.948  0.00  0.00    +0.108 C 
BRANCH  24  25
ATOM     25  C   UNL     1      10.963   1.779 -10.930  0.00  0.00    +0.046 C 
BRANCH  25  26
ATOM     26  C   UNL     1      11.487   2.283 -12.275  0.00  0.00    +0.157 C 
BRANCH  26  27
ATOM     27  O   UNL     1      12.916   2.289 -12.258  0.00  0.00    -0.395 OA
ATOM     28  H   UNL     1      13.318   2.599 -13.081  0.00  0.00    +0.209 HD
ENDBRANCH  26  27
ENDBRANCH  25  26
ENDBRANCH  24  25
ENDBRANCH  21  24
ENDBRANCH  17  18
ENDBRANCH  16  17
ENDBRANCH  15  16
ENDBRANCH   6  15
TORSDOF 10
