REMARK  Name = ZINC15957935
REMARK  8 active torsions:
REMARK  status: ('A' for Active; 'I' for Inactive)
REMARK    1  A    between atoms: C_1  and  C_2
REMARK    2  A    between atoms: C_2  and  C_3
REMARK    3  A    between atoms: C_3  and  C_4
REMARK    4  A    between atoms: C_4  and  C_5
REMARK    5  A    between atoms: C_8  and  N_11
REMARK    6  A    between atoms: C_16  and  C_33
REMARK    7  A    between atoms: C_33  and  C_34
REMARK    8  A    between atoms: C_34  and  C_35
REMARK                            x       y       z     vdW  Elec       q    Type
REMARK                         _______ _______ _______ _____ _____    ______ ____
ROOT
ATOM      1  N   UNL     1       3.396  -3.858  -5.935  0.00  0.00    -0.210 N 
ATOM      2  C   UNL     1       2.744  -4.184  -7.057  0.00  0.00    +0.232 C 
ATOM      3  O   UNL     1       1.542  -4.135  -7.208  0.00  0.00    -0.274 OA
ATOM      4  C   UNL     1       3.739  -4.624  -8.106  0.00  0.00    +0.107 C 
ATOM      5  C   UNL     1       3.551  -6.130  -8.390  0.00  0.00    +0.068 C 
ATOM      6  N   UNL     1       4.391  -6.818  -7.374  0.00  0.00    -0.295 NA
ATOM      7  C   UNL     1       5.595  -5.974  -7.269  0.00  0.00    +0.136 C 
ATOM      8  C   UNL     1       5.106  -4.508  -7.375  0.00  0.00    +0.123 C 
ATOM      9  C   UNL     1       4.725  -3.993  -6.005  0.00  0.00    +0.233 C 
ATOM     10  O   UNL     1       5.502  -3.744  -5.109  0.00  0.00    -0.274 OA
ATOM     11  C   UNL     1       6.591  -6.297  -8.347  0.00  0.00    +0.003 A 
ATOM     12  C   UNL     1       6.538  -6.277  -9.722  0.00  0.00    +0.008 A 
ATOM     13  C   UNL     1       7.650  -6.638 -10.463  0.00  0.00    +0.000 A 
ATOM     14  C   UNL     1       8.812  -7.020  -9.818  0.00  0.00    +0.002 A 
ATOM     15  C   UNL     1       8.869  -7.042  -8.440  0.00  0.00    +0.023 A 
ATOM     16  C   UNL     1       7.755  -6.679  -7.687  0.00  0.00    +0.039 A 
ATOM     17  N   UNL     1       7.567  -6.622  -6.304  0.00  0.00    -0.283 N 
ATOM     18  C   UNL     1       6.325  -6.217  -5.976  0.00  0.00    +0.243 C 
ATOM     19  O   UNL     1       5.882  -6.076  -4.856  0.00  0.00    -0.273 OA
ATOM     20  H   UNL     1       3.911  -6.876  -6.488  0.00  0.00    +0.123 HD
ATOM     21  H   UNL     1       8.252  -6.847  -5.655  0.00  0.00    +0.155 HD
ENDROOT
BRANCH   1  25
ATOM     22  C   UNL     1       1.444  -2.512  -2.506  0.00  0.00    -0.047 A 
ATOM     23  C   UNL     1       2.261  -1.652  -3.217  0.00  0.00    +0.005 A 
ATOM     24  C   UNL     1       2.909  -2.095  -4.353  0.00  0.00    +0.024 A 
ATOM     25  C   UNL     1       2.739  -3.405  -4.782  0.00  0.00    +0.044 A 
ATOM     26  C   UNL     1       1.918  -4.266  -4.066  0.00  0.00    +0.024 A 
ATOM     27  C   UNL     1       1.276  -3.818  -2.927  0.00  0.00    +0.005 A 
BRANCH  22  28
ATOM     28  C   UNL     1       0.738  -2.025  -1.267  0.00  0.00    +0.035 C 
BRANCH  28  29
ATOM     29  C   UNL     1       1.629  -2.263  -0.046  0.00  0.00    +0.004 C 
BRANCH  29  31
ATOM     30  C   UNL     1       1.803  -2.007   2.433  0.00  0.00    +0.004 C 
ATOM     31  C   UNL     1       0.912  -1.769   1.212  0.00  0.00    -0.003 C 
ENDBRANCH  29  31
ENDBRANCH  28  29
ENDBRANCH  22  28
ENDBRANCH   1  25
BRANCH   5  32
ATOM     32  C   UNL     1       2.082  -6.522  -8.224  0.00  0.00    +0.031 C 
BRANCH  32  33
ATOM     33  C   UNL     1       1.896  -7.986  -8.630  0.00  0.00    +0.126 C 
BRANCH  33  34
ATOM     34  C   UNL     1       0.449  -8.373  -8.467  0.00  0.00    +0.356 C 
ATOM     35  O   UNL     1      -0.359  -7.554  -8.063  0.00  0.00    -0.246 OA
ATOM     36  O   UNL     1       0.086  -9.505  -8.738  0.00  0.00    -0.246 OA
ENDBRANCH  33  34
ENDBRANCH  32  33
ENDBRANCH   5  32
TORSDOF 7
