REMARK  Name = ZINC18127231
REMARK  3 active torsions:
REMARK  status: ('A' for Active; 'I' for Inactive)
REMARK    1  A    between atoms: C_4  and  O_16
REMARK    2  A    between atoms: C_5  and  C_7
REMARK    3  A    between atoms: N_8  and  N_9
REMARK                            x       y       z     vdW  Elec       q    Type
REMARK                         _______ _______ _______ _____ _____    ______ ____
ROOT
ATOM      1  C   UNL     1       1.252  -2.155  -0.023  0.00  0.00    +0.146 C 
ATOM      2  N   UNL     1       2.395  -2.785  -0.038  0.00  0.00    -0.155 NA
ENDROOT
BRANCH   2   3
ATOM      3  N   UNL     1       2.419  -4.075  -0.046  0.00  0.00    -0.127 NA
ATOM      4  C   UNL     1       3.572  -4.711  -0.061  0.00  0.00    +0.182 C 
ATOM      5  N   UNL     1       3.793  -6.072  -0.077  0.00  0.00    -0.263 N 
ATOM      6  C   UNL     1       5.008  -6.594  -0.092  0.00  0.00    +0.229 C 
ATOM      7  O   UNL     1       5.194  -7.792  -0.106  0.00  0.00    -0.275 OA
ATOM      8  C   UNL     1       6.156  -5.597  -0.090  0.00  0.00    +0.173 C 
ATOM      9  S   UNL     1       5.217  -4.014  -0.074  0.00  0.00    -0.079 S 
ATOM     10  H   UNL     1       3.029  -6.670  -0.078  0.00  0.00    +0.157 HD
ENDBRANCH   2   3
BRANCH   1  15
ATOM     11  C   UNL     1      -0.017   1.375   0.010  0.00  0.00    +0.001 A 
ATOM     12  C   UNL     1       1.169   2.089   0.002  0.00  0.00    +0.004 A 
ATOM     13  C   UNL     1       2.384   1.429  -0.013  0.00  0.00    +0.046 A 
ATOM     14  C   UNL     1       2.422   0.045  -0.021  0.00  0.00    +0.125 A 
ATOM     15  C   UNL     1       1.224  -0.684  -0.014  0.00  0.00    +0.036 A 
ATOM     16  C   UNL     1       0.002  -0.004   0.002  0.00  0.00    +0.013 A 
BRANCH  14  17
ATOM     17  O   UNL     1       3.615  -0.604  -0.037  0.00  0.00    -0.506 OA
ATOM     18  H   UNL     1       3.970  -0.797   0.842  0.00  0.00    +0.292 HD
ENDBRANCH  14  17
ENDBRANCH   1  15
TORSDOF 3
