REMARK  Name = ZINC63176190
REMARK  7 active torsions:
REMARK  status: ('A' for Active; 'I' for Inactive)
REMARK    1  A    between atoms: C_1  and  O_2
REMARK    2  A    between atoms: O_2  and  C_3
REMARK    3  A    between atoms: C_5  and  N_21
REMARK    4  A    between atoms: C_8  and  S_9
REMARK    5  A    between atoms: S_9  and  N_12
REMARK    6  A    between atoms: N_12  and  C_13
REMARK    7  A    between atoms: C_18  and  N_20
REMARK                            x       y       z     vdW  Elec       q    Type
REMARK                         _______ _______ _______ _____ _____    ______ ____
ROOT
ATOM      1  S   UNL     1      -0.055  -2.968  -0.179  0.00  0.00    +0.062 S 
ATOM      2  O   UNL     1       0.400  -2.426  -1.412  0.00  0.00    -0.153 OA
ATOM      3  O   UNL     1       0.145  -4.330   0.174  0.00  0.00    -0.153 OA
ENDROOT
BRANCH   1   9
ATOM      4  C   UNL     1       0.626  -0.618   1.042  0.00  0.00    +0.148 A 
ATOM      5  C   UNL     1       1.202   0.139   2.051  0.00  0.00    +0.080 A 
ATOM      6  C   UNL     1       1.835  -0.488   3.107  0.00  0.00    +0.130 A 
ATOM      7  C   UNL     1       1.895  -1.869   3.158  0.00  0.00    +0.035 A 
ATOM      8  C   UNL     1       1.321  -2.625   2.153  0.00  0.00    +0.034 A 
ATOM      9  C   UNL     1       0.682  -2.003   1.097  0.00  0.00    +0.147 A 
BRANCH   6  10
ATOM     10  N   UNL     1       2.451   0.319   4.184  0.00  0.00    +0.057 N 
ATOM     11  O   UNL     1       2.400   1.526   4.140  0.00  0.00    -0.126 OA
ATOM     12  O   UNL     1       3.005  -0.230   5.109  0.00  0.00    -0.126 OA
ENDBRANCH   6  10
BRANCH   4  14
ATOM     13  C   UNL     1      -0.017   1.425   0.010  0.00  0.00    +0.277 C 
ATOM     14  O   UNL     1       0.002  -0.004   0.002  0.00  0.00    -0.493 OA
ENDBRANCH   4  14
ENDBRANCH   1   9
BRANCH   1  15
ATOM     15  N   UNL     1      -1.687  -2.698  -0.117  0.00  0.00    -0.188 NA
ATOM     16  H   UNL     1      -2.290  -3.422   0.112  0.00  0.00    +0.148 HD
BRANCH  15  17
ATOM     17  C   UNL     1      -2.220  -1.365  -0.409  0.00  0.00    +0.062 C 
ATOM     18  C   UNL     1      -2.468  -0.596   0.905  0.00  0.00    +0.019 C 
ATOM     19  C   UNL     1      -3.766   0.206   0.637  0.00  0.00    -0.000 C 
ATOM     20  C   UNL     1      -4.613  -0.784  -0.201  0.00  0.00    -0.015 C 
ATOM     21  C   UNL     1      -3.583  -1.485  -1.113  0.00  0.00    -0.056 C 
BRANCH  21  22
ATOM     22  N   UNL     1      -3.940  -2.900  -1.282  0.00  0.00    +0.381 N 
ATOM     23  H   UNL     1      -3.994  -3.343  -0.377  0.00  0.00    -0.090 HD
ATOM     24  H   UNL     1      -4.834  -2.969  -1.744  0.00  0.00    -0.090 HD
ATOM     25  H   UNL     1      -3.237  -3.360  -1.840  0.00  0.00    -0.090 HD
ENDBRANCH  21  22
ENDBRANCH  15  17
ENDBRANCH   1  15
TORSDOF 6
