REMARK  Name = ZINC19852233
REMARK  9 active torsions:
REMARK  status: ('A' for Active; 'I' for Inactive)
REMARK    1  A    between atoms: C_1  and  C_2
REMARK    2  A    between atoms: C_5  and  N_8
REMARK    3  A    between atoms: C_9  and  C_11
REMARK    4  A    between atoms: C_11  and  S_12
REMARK    5  A    between atoms: S_12  and  C_13
REMARK    6  A    between atoms: C_14  and  C_27
REMARK    7  A    between atoms: C_15  and  C_22
REMARK    8  A    between atoms: C_16  and  C_20
REMARK    9  A    between atoms: C_17  and  N_19
REMARK                            x       y       z     vdW  Elec       q    Type
REMARK                         _______ _______ _______ _____ _____    ______ ____
ROOT
ATOM      1  C   UNL     1       3.864  -6.549  -0.522  0.00  0.00    +0.118 A 
ATOM      2  C   UNL     1       4.964  -7.415  -0.657  0.00  0.00    +0.093 A 
ATOM      3  C   UNL     1       4.732  -8.805  -0.752  0.00  0.00    +0.029 A 
ATOM      4  C   UNL     1       3.393  -9.258  -0.715  0.00  0.00    +0.101 A 
ATOM      5  C   UNL     1       2.360  -8.314  -0.582  0.00  0.00    +0.136 A 
ATOM      6  N   UNL     1       2.626  -7.020  -0.492  0.00  0.00    -0.224 NA
ENDROOT
BRANCH   3   7
ATOM      7  C   UNL     1       5.848  -9.752  -0.889  0.00  0.00    +0.022 A 
ATOM      8  C   UNL     1       6.159 -10.585  -1.950  0.00  0.00    +0.016 A 
ATOM      9  C   UNL     1       7.276 -11.377  -1.817  0.00  0.00    +0.008 A 
ATOM     10  C   UNL     1       8.000 -11.314  -0.671  0.00  0.00    +0.046 A 
ATOM     11  S   UNL     1       7.149 -10.133   0.270  0.00  0.00    -0.097 S 
ENDBRANCH   3   7
BRANCH   5  12
ATOM     12  N   UNL     1       1.048  -8.742  -0.545  0.00  0.00    -0.342 N 
ATOM     13  H   UNL     1       0.233  -8.011  -0.441  0.00  0.00    +0.144 HD
ATOM     14  H   UNL     1       0.818  -9.815  -0.619  0.00  0.00    +0.144 HD
ENDBRANCH   5  12
BRANCH   4  15
ATOM     15  C   UNL     1       3.095 -10.655  -0.812  0.00  0.00    +0.103 C 
ATOM     16  N   UNL     1       2.858 -11.763  -0.889  0.00  0.00    -0.191 NA
ENDBRANCH   4  15
BRANCH   2  17
ATOM     17  C   UNL     1       6.299  -6.896  -0.694  0.00  0.00    +0.102 C 
ATOM     18  N   UNL     1       7.357  -6.484  -0.724  0.00  0.00    -0.191 NA
ENDBRANCH   2  17
BRANCH   1  19
ATOM     19  S   UNL     1       4.135  -4.812  -0.398  0.00  0.00    -0.095 S 
BRANCH  19  20
ATOM     20  C   UNL     1       2.425  -4.236  -0.258  0.00  0.00    +0.172 C 
BRANCH  20  22
ATOM     21  N   UNL     1       1.237  -2.079  -0.020  0.00  0.00    -0.285 N 
ATOM     22  C   UNL     1       2.410  -2.734  -0.137  0.00  0.00    +0.227 C 
ATOM     23  O   UNL     1       3.452  -2.114  -0.144  0.00  0.00    -0.275 OA
ATOM     24  H   UNL     1       0.298  -2.645   0.073  0.00  0.00    +0.155 HD
BRANCH  21  29
ATOM     25  C   UNL     1       1.143   3.593  -0.015  0.00  0.00    +0.044 C 
ATOM     26  C   UNL     1       1.168   2.086  -0.017  0.00  0.00    -0.050 A 
ATOM     27  C   UNL     1       2.111   1.412  -0.771  0.00  0.00    +0.005 A 
ATOM     28  C   UNL     1       2.137   0.031  -0.774  0.00  0.00    +0.023 A 
ATOM     29  C   UNL     1       1.214  -0.680  -0.019  0.00  0.00    +0.033 A 
ATOM     30  C   UNL     1       0.268  -0.001   0.737  0.00  0.00    +0.023 A 
ATOM     31  C   UNL     1       0.248   1.380   0.736  0.00  0.00    +0.005 A 
ENDBRANCH  21  29
ENDBRANCH  20  22
ENDBRANCH  19  20
ENDBRANCH   1  19
TORSDOF 8
