REMARK  Name = ZINC37985163
REMARK  7 active torsions:
REMARK  status: ('A' for Active; 'I' for Inactive)
REMARK    1  A    between atoms: C_3  and  O_16
REMARK    2  A    between atoms: C_6  and  C_7
REMARK    3  A    between atoms: C_7  and  N_8
REMARK    4  A    between atoms: N_8  and  C_9
REMARK    5  A    between atoms: C_9  and  C_10
REMARK    6  A    between atoms: O_16  and  C_17
REMARK    7  A    between atoms: C_17  and  C_18
REMARK                            x       y       z     vdW  Elec       q    Type
REMARK                         _______ _______ _______ _____ _____    ______ ____
ROOT
ATOM      1  C   UNL     1      -0.017   1.378   0.010  0.00  0.00    +0.005 A 
ATOM      2  C   UNL     1       1.169   2.087   0.002  0.00  0.00    +0.046 A 
ATOM      3  C   UNL     1       2.380   1.409  -0.013  0.00  0.00    +0.121 A 
ATOM      4  C   UNL     1       2.396   0.022  -0.021  0.00  0.00    +0.046 A 
ATOM      5  C   UNL     1       1.207  -0.681  -0.013  0.00  0.00    +0.005 A 
ATOM      6  C   UNL     1       0.002  -0.004   0.002  0.00  0.00    -0.064 A 
ENDROOT
BRANCH   6   7
ATOM      7  C   UNL     1      -1.293  -0.774   0.011  0.00  0.00    -0.046 C 
BRANCH   7   8
ATOM      8  N   UNL     1      -1.728  -1.017  -1.371  0.00  0.00    +0.385 N 
ATOM      9  H   UNL     1      -1.864  -0.134  -1.841  0.00  0.00    -0.085 HD
ATOM     10  H   UNL     1      -1.023  -1.550  -1.857  0.00  0.00    -0.085 HD
BRANCH   8  11
ATOM     11  C   UNL     1      -2.991  -1.767  -1.363  0.00  0.00    -0.039 C 
BRANCH  11  12
ATOM     12  C   UNL     1      -3.437  -2.016  -2.781  0.00  0.00    -0.026 A 
ATOM     13  C   UNL     1      -3.156  -3.065  -3.592  0.00  0.00    +0.010 A 
ATOM     14  C   UNL     1      -3.680  -3.083  -4.871  0.00  0.00    +0.023 A 
ATOM     15  C   UNL     1      -4.460  -2.050  -5.276  0.00  0.00    +0.055 A 
ATOM     16  S   UNL     1      -4.478  -1.010  -3.825  0.00  0.00    -0.088 S 
ATOM     17 BR   UNL     1      -5.314  -1.784  -6.942  0.00  0.00    -0.043 Br
ENDBRANCH  11  12
ENDBRANCH   8  11
ENDBRANCH   7   8
ENDBRANCH   6   7
BRANCH   3  18
ATOM     18  O   UNL     1       3.548   2.104  -0.021  0.00  0.00    -0.483 OA
BRANCH  18  19
ATOM     19  C   UNL     1       4.756   1.341  -0.036  0.00  0.00    +0.324 C 
BRANCH  19  20
ATOM     20  C   UNL     1       5.940   2.274  -0.043  0.00  0.00    +0.248 C 
ATOM     21  O   UNL     1       5.766   3.474  -0.036  0.00  0.00    -0.272 OA
ATOM     22  N   UNL     1       7.192   1.774  -0.058  0.00  0.00    -0.327 N 
ATOM     23  H   UNL     1       7.331   0.814  -0.064  0.00  0.00    +0.145 HD
ATOM     24  H   UNL     1       7.953   2.375  -0.062  0.00  0.00    +0.145 HD
ENDBRANCH  19  20
ENDBRANCH  18  19
ENDBRANCH   3  18
TORSDOF 7
