REMARK  Name = ZINC48416796
REMARK  6 active torsions:
REMARK  status: ('A' for Active; 'I' for Inactive)
REMARK    1  A    between atoms: C_1  and  C_2
REMARK    2  A    between atoms: C_2  and  C_4
REMARK    3  A    between atoms: C_2  and  N_8
REMARK    4  A    between atoms: N_6  and  C_7
REMARK    5  A    between atoms: N_8  and  C_9
REMARK    6  A    between atoms: C_15  and  C_17
REMARK                            x       y       z     vdW  Elec       q    Type
REMARK                         _______ _______ _______ _____ _____    ______ ____
ROOT
ATOM      1  C   UNL     1      -0.154  -0.330   2.373  0.00  0.00    -0.067 C 
ATOM      2  C   UNL     1      -0.289   1.181   2.572  0.00  0.00    -0.015 C 
ATOM      3  C   UNL     1       1.099   1.798   2.749  0.00  0.00    -0.002 C 
ATOM      4  C   UNL     1       1.780   1.181   3.973  0.00  0.00    +0.000 C 
ATOM      5  C   UNL     1       1.915  -0.330   3.774  0.00  0.00    +0.002 C 
ATOM      6  C   UNL     1       0.526  -0.947   3.597  0.00  0.00    -0.022 C 
ENDROOT
BRANCH   6   7
ATOM      7  C   UNL     1       0.662  -2.458   3.398  0.00  0.00    -0.009 C 
ATOM      8  C   UNL     1      -0.727  -3.075   3.222  0.00  0.00    +0.004 C 
ATOM      9  C   UNL     1      -0.592  -4.586   3.023  0.00  0.00    +0.000 C 
ATOM     10  C   UNL     1       0.089  -5.203   4.247  0.00  0.00    +0.000 C 
ATOM     11  C   UNL     1       1.477  -4.585   4.423  0.00  0.00    +0.000 C 
ATOM     12  C   UNL     1       1.342  -3.075   4.622  0.00  0.00    +0.004 C 
ENDBRANCH   6   7
BRANCH   1  13
ATOM     13  N   UNL     1       0.655  -0.596   1.177  0.00  0.00    +0.388 N 
ATOM     14  H   UNL     1       0.786  -1.591   1.073  0.00  0.00    -0.084 HD
ATOM     15  H   UNL     1       1.554  -0.147   1.272  0.00  0.00    -0.084 HD
BRANCH  13  17
ATOM     16  C   UNL     1       0.884  -0.186  -1.227  0.00  0.00    -0.004 C 
ATOM     17  C   UNL     1      -0.033  -0.067  -0.008  0.00  0.00    +0.013 C 
BRANCH  17  18
ATOM     18  C   UNL     1      -1.295  -0.854  -0.249  0.00  0.00    +0.199 C 
ATOM     19  O   UNL     1      -1.592  -1.766   0.493  0.00  0.00    -0.278 OA
ATOM     20  N   UNL     1      -2.094  -0.544  -1.290  0.00  0.00    -0.320 N 
ATOM     21  C   UNL     1      -3.321  -1.309  -1.524  0.00  0.00    +0.128 C 
ATOM     22  H   UNL     1      -1.857   0.186  -1.883  0.00  0.00    +0.148 HD
ENDBRANCH  17  18
ENDBRANCH  13  17
ENDBRANCH   1  13
TORSDOF 4
