REMARK  Name = ZINC63271548
REMARK  7 active torsions:
REMARK  status: ('A' for Active; 'I' for Inactive)
REMARK    1  A    between atoms: C_4  and  C_7
REMARK    2  A    between atoms: C_7  and  C_9
REMARK    3  A    between atoms: C_7  and  O_32
REMARK    4  A    between atoms: C_9  and  N_10
REMARK    5  A    between atoms: C_11  and  C_13
REMARK    6  A    between atoms: C_13  and  C_14
REMARK    7  A    between atoms: C_14  and  N_15
REMARK                            x       y       z     vdW  Elec       q    Type
REMARK                         _______ _______ _______ _____ _____    ______ ____
ROOT
ATOM      1  N   UNL     1       8.848  -3.985  -4.145  0.00  0.00    -0.299 N 
ATOM      2  C   UNL     1       9.373  -4.400  -5.315  0.00  0.00    +0.302 C 
ATOM      3  O   UNL     1       8.744  -4.262  -6.347  0.00  0.00    -0.253 OA
ATOM      4  N   UNL     1      10.595  -4.968  -5.342  0.00  0.00    -0.283 N 
ATOM      5  C   UNL     1      11.296  -5.239  -4.083  0.00  0.00    +0.114 C 
ATOM      6  C   UNL     1      12.656  -4.518  -4.088  0.00  0.00    +0.052 C 
ATOM      7  C   UNL     1      13.280  -4.780  -5.436  0.00  0.00    -0.036 C 
ATOM      8  C   UNL     1      14.477  -5.245  -5.774  0.00  0.00    -0.001 A 
ATOM      9  C   UNL     1      15.665  -5.571  -4.969  0.00  0.00    +0.010 A 
ATOM     10  C   UNL     1      16.737  -6.055  -5.650  0.00  0.00    +0.001 A 
ATOM     11  C   UNL     1      16.745  -6.245  -7.035  0.00  0.00    +0.002 A 
ATOM     12  C   UNL     1      15.701  -5.965  -7.855  0.00  0.00    +0.026 A 
ATOM     13  C   UNL     1      14.518  -5.442  -7.255  0.00  0.00    +0.043 A 
ATOM     14  N   UNL     1      13.395  -5.071  -7.795  0.00  0.00    -0.376 N 
ATOM     15  C   UNL     1      12.531  -4.538  -6.741  0.00  0.00    +0.124 C 
ATOM     16  C   UNL     1      11.209  -5.314  -6.634  0.00  0.00    +0.138 C 
ATOM     17  H   UNL     1       9.317  -4.160  -3.314  0.00  0.00    +0.150 HD
ATOM     18  H   UNL     1      13.169  -5.136  -8.736  0.00  0.00    +0.160 HD
ENDROOT
BRANCH   1  19
ATOM     19  C   UNL     1       7.570  -3.269  -4.129  0.00  0.00    +0.115 C 
BRANCH  19  20
ATOM     20  C   UNL     1       7.203  -2.914  -2.686  0.00  0.00    +0.114 C 
BRANCH  20  22
ATOM     21  N   UNL     1       5.364  -1.763  -1.499  0.00  0.00    -0.312 N 
ATOM     22  C   UNL     1       5.888  -2.178  -2.669  0.00  0.00    +0.215 C 
ATOM     23  O   UNL     1       5.303  -1.958  -3.708  0.00  0.00    -0.276 OA
ATOM     24  H   UNL     1       5.832  -1.938  -0.668  0.00  0.00    +0.149 HD
BRANCH  21  25
ATOM     25  C   UNL     1       4.086  -1.047  -1.483  0.00  0.00    +0.140 C 
BRANCH  25  26
ATOM     26  C   UNL     1       3.719  -0.692  -0.041  0.00  0.00    +0.162 C 
BRANCH  26  30
ATOM     27  C   UNL     1      -0.008   1.396   0.005  0.00  0.00    +0.000 A 
ATOM     28  C   UNL     1       1.180   2.103  -0.005  0.00  0.00    +0.000 A 
ATOM     29  C   UNL     1       2.386   1.427  -0.019  0.00  0.00    +0.006 A 
ATOM     30  C   UNL     1       2.404   0.045  -0.024  0.00  0.00    -0.018 A 
ATOM     31  C   UNL     1       1.216  -0.662  -0.012  0.00  0.00    +0.006 A 
ATOM     32  C   UNL     1       0.010   0.014   0.001  0.00  0.00    +0.000 A 
ENDBRANCH  26  30
BRANCH  26  33
ATOM     33  O   UNL     1       3.603  -1.889   0.730  0.00  0.00    -0.386 OA
ATOM     34  H   UNL     1       2.929  -2.502   0.407  0.00  0.00    +0.210 HD
ENDBRANCH  26  33
ENDBRANCH  25  26
ENDBRANCH  21  25
ENDBRANCH  20  22
ENDBRANCH  19  20
ENDBRANCH   1  19
TORSDOF 7
