REMARK  Name = ZINC17211957
REMARK  6 active torsions:
REMARK  status: ('A' for Active; 'I' for Inactive)
REMARK    1  A    between atoms: C_3  and  C_9
REMARK    2  A    between atoms: C_9  and  C_11
REMARK    3  A    between atoms: C_9  and  O_34
REMARK    4  A    between atoms: C_11  and  C_22
REMARK    5  A    between atoms: N_12  and  N_13
REMARK    6  A    between atoms: C_14  and  C_16
REMARK                            x       y       z     vdW  Elec       q    Type
REMARK                         _______ _______ _______ _____ _____    ______ ____
ROOT
ATOM      1  C   UNL     1       4.159   2.215  -1.449  0.00  0.00    +0.123 C 
ATOM      2  N   UNL     1       4.952   1.282  -1.884  0.00  0.00    -0.179 NA
ENDROOT
BRANCH   1   3
ATOM      3  C   UNL     1       3.790   3.336  -2.329  0.00  0.00    +0.156 A 
ATOM      4  C   UNL     1       4.297   3.391  -3.651  0.00  0.00    +0.298 A 
ATOM      5  N   UNL     1       3.975   4.389  -4.446  0.00  0.00    -0.206 NA
ATOM      6  C   UNL     1       3.162   5.358  -4.004  0.00  0.00    +0.095 A 
ATOM      7  C   UNL     1       2.804   6.432  -4.835  0.00  0.00    +0.050 A 
ATOM      8  C   UNL     1       1.975   7.406  -4.364  0.00  0.00    +0.043 A 
ATOM      9  C   UNL     1       1.474   7.353  -3.063  0.00  0.00    +0.022 A 
ATOM     10  C   UNL     1       1.800   6.328  -2.230  0.00  0.00    +0.031 A 
ATOM     11  C   UNL     1       2.653   5.305  -2.682  0.00  0.00    +0.090 A 
ATOM     12  N   UNL     1       2.982   4.285  -1.883  0.00  0.00    -0.238 NA
ATOM     13 CL   UNL     1       1.537   8.731  -5.397  0.00  0.00    -0.083 Cl
ATOM     14  O   UNL     1       5.119   2.412  -4.098  0.00  0.00    -0.263 OA
ENDBRANCH   1   3
BRANCH   2  15
ATOM     15  N   UNL     1       5.259   0.187  -1.066  0.00  0.00    -0.203 N 
ATOM     16  C   UNL     1       5.995  -0.832  -1.552  0.00  0.00    +0.263 C 
ATOM     17  O   UNL     1       6.471  -0.759  -2.668  0.00  0.00    -0.268 OA
ATOM     18  H   UNL     1       4.942   0.162  -0.149  0.00  0.00    +0.178 HD
BRANCH  16  19
ATOM     19  C   UNL     1       6.224  -2.040  -0.727  0.00  0.00    +0.041 A 
ATOM     20  C   UNL     1       5.598  -2.191   0.515  0.00  0.00    +0.033 A 
ATOM     21  C   UNL     1       5.840  -3.334   1.252  0.00  0.00    +0.111 A 
ATOM     22  N   UNL     1       6.647  -4.273   0.799  0.00  0.00    -0.263 NA
ATOM     23  C   UNL     1       7.256  -4.170  -0.365  0.00  0.00    +0.111 A 
ATOM     24  C   UNL     1       7.067  -3.064  -1.170  0.00  0.00    +0.033 A 
ENDBRANCH  16  19
ENDBRANCH   2  15
BRANCH   1  25
ATOM     25  C   UNL     1       3.616   2.150  -0.045  0.00  0.00    +0.198 C 
BRANCH  25  28
ATOM     26  C   UNL     1      -0.007   3.208   0.024  0.00  0.00    +0.020 A 
ATOM     27  C   UNL     1       1.374   3.256   0.066  0.00  0.00    +0.009 A 
ATOM     28  C   UNL     1       2.111   2.097  -0.089  0.00  0.00    +0.005 A 
ATOM     29  C   UNL     1       1.466   0.888  -0.287  0.00  0.00    +0.048 A 
ATOM     30  C   UNL     1       0.085   0.840  -0.328  0.00  0.00    +0.040 A 
ATOM     31  C   UNL     1      -0.652   2.001  -0.173  0.00  0.00    +0.042 A 
ATOM     32 CL   UNL     1      -2.386   1.941  -0.225  0.00  0.00    -0.083 Cl
ATOM     33 CL   UNL     1       2.392  -0.567  -0.482  0.00  0.00    -0.083 Cl
ENDBRANCH  25  28
BRANCH  25  34
ATOM     34  O   UNL     1       4.031   3.309   0.681  0.00  0.00    -0.381 OA
ATOM     35  H   UNL     1       4.990   3.407   0.750  0.00  0.00    +0.211 HD
ENDBRANCH  25  34
ENDBRANCH   1  25
TORSDOF 6
