REMARK  Name = ZINC56215207
REMARK  10 active torsions:
REMARK  status: ('A' for Active; 'I' for Inactive)
REMARK    1  A    between atoms: C_1  and  C_2
REMARK    2  A    between atoms: C_2  and  C_4
REMARK    3  A    between atoms: C_2  and  N_13
REMARK    4  A    between atoms: N_9  and  C_10
REMARK    5  A    between atoms: C_10  and  C_11
REMARK    6  A    between atoms: C_10  and  C_12
REMARK    7  A    between atoms: N_13  and  C_14
REMARK    8  A    between atoms: C_17  and  C_20
REMARK    9  A    between atoms: C_20  and  C_21
REMARK   10  A    between atoms: N_26  and  C_29
REMARK                            x       y       z     vdW  Elec       q    Type
REMARK                         _______ _______ _______ _____ _____    ______ ____
ROOT
ATOM      1  C   UNL     1       0.027  -0.639   2.398  0.00  0.00    +0.028 A 
ATOM      2  C   UNL     1      -1.326  -0.333   2.475  0.00  0.00    +0.023 A 
ATOM      3  C   UNL     1      -1.998  -0.482   3.672  0.00  0.00    +0.006 A 
ATOM      4  C   UNL     1      -1.327  -0.935   4.793  0.00  0.00    -0.039 A 
ATOM      5  C   UNL     1       0.020  -1.240   4.719  0.00  0.00    +0.006 A 
ATOM      6  C   UNL     1       0.698  -1.099   3.524  0.00  0.00    +0.023 A 
ENDROOT
BRANCH   1   7
ATOM      7  N   UNL     1       0.711  -0.489   1.189  0.00  0.00    -0.333 N 
ATOM      8  H   UNL     1       1.654  -0.707   1.135  0.00  0.00    +0.147 HD
BRANCH   7  10
ATOM      9  C   UNL     1      -0.019   1.526   0.010  0.00  0.00    +0.038 C 
ATOM     10  C   UNL     1       0.002  -0.004   0.002  0.00  0.00    +0.154 C 
BRANCH  10  11
ATOM     11  C   UNL     1       0.707  -0.490  -1.238  0.00  0.00    +0.240 C 
ATOM     12  O   UNL     1       1.704  -1.174  -1.140  0.00  0.00    -0.273 OA
ATOM     13  N   UNL     1       0.231  -0.164  -2.456  0.00  0.00    -0.239 N 
ATOM     14  C   UNL     1       0.862  -0.599  -3.565  0.00  0.00    +0.306 C 
ATOM     15  O   UNL     1       1.860  -1.285  -3.466  0.00  0.00    -0.252 OA
ATOM     16  N   UNL     1       0.385  -0.273  -4.782  0.00  0.00    -0.297 N 
ATOM     17  H   UNL     1      -0.566   0.383  -2.534  0.00  0.00    +0.159 HD
ATOM     18  H   UNL     1      -0.412   0.274  -4.861  0.00  0.00    +0.151 HD
BRANCH  16  19
ATOM     19  C   UNL     1       1.071  -0.745  -5.988  0.00  0.00    +0.068 C 
ATOM     20  C   UNL     1       0.077  -0.804  -7.150  0.00  0.00    +0.027 C 
ATOM     21  C   UNL     1       2.209   0.216  -6.337  0.00  0.00    +0.027 C 
ENDBRANCH  16  19
ENDBRANCH  10  11
ENDBRANCH   7  10
ENDBRANCH   1   7
BRANCH   4  22
ATOM     22  C   UNL     1      -2.064  -1.096   6.097  0.00  0.00    +0.131 C 
BRANCH  22  23
ATOM     23  C   UNL     1      -2.633  -2.489   6.185  0.00  0.00    +0.220 C 
ATOM     24  O   UNL     1      -2.457  -3.273   5.277  0.00  0.00    -0.275 OA
ATOM     25  N   UNL     1      -3.337  -2.862   7.271  0.00  0.00    -0.305 N 
ATOM     26  C   UNL     1      -3.568  -1.925   8.382  0.00  0.00    +0.089 C 
ATOM     27  C   UNL     1      -5.065  -1.918   8.708  0.00  0.00    -0.060 C 
ATOM     28  N   UNL     1      -5.514  -3.292   8.970  0.00  0.00    +0.380 N 
ATOM     29  C   UNL     1      -5.378  -4.103   7.754  0.00  0.00    -0.060 C 
ATOM     30  C   UNL     1      -3.901  -4.216   7.378  0.00  0.00    +0.089 C 
ATOM     31  C   UNL     1      -6.922  -3.273   9.390  0.00  0.00    -0.096 C 
ATOM     32  H   UNL     1      -4.952  -3.693   9.706  0.00  0.00    -0.082 HD
ENDBRANCH  22  23
ENDBRANCH   4  22
TORSDOF 6
