REMARK  Name = ZINC61684853
REMARK  5 active torsions:
REMARK  status: ('A' for Active; 'I' for Inactive)
REMARK    1  A    between atoms: C_1  and  C_2
REMARK    2  A    between atoms: C_2  and  C_3
REMARK    3  A    between atoms: C_2  and  N_4
REMARK    4  A    between atoms: C_6  and  N_9
REMARK    5  A    between atoms: C_11  and  C_19
REMARK                            x       y       z     vdW  Elec       q    Type
REMARK                         _______ _______ _______ _____ _____    ______ ____
ROOT
ATOM      1  N   UNL     1       3.568  -1.433   3.092  0.00  0.00    -0.298 N 
ATOM      2  C   UNL     1       3.684  -1.797   4.419  0.00  0.00    +0.115 A 
ATOM      3  C   UNL     1       4.960  -1.975   4.987  0.00  0.00    +0.101 A 
ATOM      4  C   UNL     1       5.047  -2.345   6.335  0.00  0.00    +0.023 A 
ATOM      5  C   UNL     1       3.875  -2.519   7.050  0.00  0.00    -0.027 A 
ATOM      6  C   UNL     1       2.655  -2.326   6.425  0.00  0.00    +0.021 A 
ATOM      7  N   UNL     1       2.597  -1.972   5.152  0.00  0.00    -0.346 N 
ATOM      8  C   UNL     1       1.534  -2.575   7.415  0.00  0.00    +0.054 C 
ATOM      9  C   UNL     1       2.183  -3.362   8.573  0.00  0.00    +0.011 C 
ATOM     10  C   UNL     1       3.657  -2.910   8.495  0.00  0.00    +0.037 C 
ATOM     11  H   UNL     1       3.971  -1.982   2.401  0.00  0.00    +0.154 HD
ATOM     12  H   UNL     1       1.729  -1.839   4.740  0.00  0.00    +0.167 HD
ENDROOT
BRANCH   1  15
ATOM     13  N   UNL     1       2.180   1.516   1.666  0.00  0.00    -0.267 N 
ATOM     14  C   UNL     1       3.059   0.482   1.626  0.00  0.00    +0.132 A 
ATOM     15  C   UNL     1       2.863  -0.266   2.742  0.00  0.00    +0.070 A 
ATOM     16  C   UNL     1       1.833   0.331   3.483  0.00  0.00    +0.157 A 
ATOM     17  N   UNL     1       1.430   1.399   2.843  0.00  0.00    -0.178 NA
BRANCH  13  19
ATOM     18  C   UNL     1       3.061   3.679   0.940  0.00  0.00    +0.032 C 
ATOM     19  C   UNL     1       2.044   2.572   0.659  0.00  0.00    +0.101 C 
ATOM     20  C   UNL     1       2.298   1.986  -0.731  0.00  0.00    +0.032 C 
ENDBRANCH  13  19
ENDBRANCH   1  15
BRANCH   3  21
ATOM     21  C   UNL     1       6.175  -1.778   4.182  0.00  0.00    +0.390 C 
ATOM     22  O   UNL     1       7.272  -2.034   4.659  0.00  0.00    -0.240 OA
ATOM     23  O   UNL     1       6.088  -1.358   3.036  0.00  0.00    -0.240 OA
ENDBRANCH   3  21
TORSDOF 3
