REMARK  Name = ZINC67202996
REMARK  6 active torsions:
REMARK  status: ('A' for Active; 'I' for Inactive)
REMARK    1  A    between atoms: C_1  and  C_2
REMARK    2  A    between atoms: C_5  and  C_10
REMARK    3  A    between atoms: N_12  and  C_13
REMARK    4  A    between atoms: C_13  and  C_14
REMARK    5  A    between atoms: N_19  and  C_20
REMARK    6  A    between atoms: C_20  and  C_21
REMARK                            x       y       z     vdW  Elec       q    Type
REMARK                         _______ _______ _______ _____ _____    ______ ____
ROOT
ATOM      1  C   UNL     1       0.304  -6.346   1.186  0.00  0.00    +0.089 C 
ENDROOT
BRANCH   1   2
ATOM      2  C   UNL     1       0.419  -6.841   2.629  0.00  0.00    -0.051 C 
ATOM      3  C   UNL     1       0.386  -8.384   2.659  0.00  0.00    -0.016 C 
ATOM      4  C   UNL     1      -0.451  -8.691   3.929  0.00  0.00    -0.020 C 
ATOM      5  C   UNL     1      -1.485  -7.538   3.909  0.00  0.00    -0.078 C 
ATOM      6  N   UNL     1      -0.731  -6.361   3.418  0.00  0.00    +0.383 N 
ATOM      7  H   UNL     1      -1.328  -5.792   2.836  0.00  0.00    -0.081 HD
BRANCH   6   8
ATOM      8  C   UNL     1      -0.252  -5.566   4.557  0.00  0.00    -0.075 C 
BRANCH   8   9
ATOM      9  C   UNL     1      -1.447  -4.967   5.299  0.00  0.00    -0.028 C 
ATOM     10  C   UNL     1      -2.168  -3.973   4.387  0.00  0.00    +0.002 C 
ATOM     11  C   UNL     1      -3.364  -3.373   5.130  0.00  0.00    +0.000 C 
ATOM     12  C   UNL     1      -2.874  -2.650   6.386  0.00  0.00    +0.000 C 
ATOM     13  C   UNL     1      -2.153  -3.645   7.298  0.00  0.00    +0.000 C 
ATOM     14  C   UNL     1      -0.957  -4.244   6.556  0.00  0.00    +0.002 C 
ENDBRANCH   8   9
ENDBRANCH   6   8
ENDBRANCH   1   2
BRANCH   1  17
ATOM     15  C   UNL     1       0.058  -4.226   0.011  0.00  0.00    +0.249 C 
ATOM     16  O   UNL     1      -0.036  -4.846  -1.032  0.00  0.00    -0.270 OA
ATOM     17  N   UNL     1       0.174  -4.886   1.179  0.00  0.00    -0.313 N 
ATOM     18  H   UNL     1       0.172  -4.396   2.016  0.00  0.00    +0.149 HD
BRANCH  15  23
ATOM     19  C   UNL     1       0.005   1.503   0.008  0.00  0.00    +0.063 C 
ATOM     20  C   UNL     1       0.019  -0.004   0.000  0.00  0.00    +0.016 A 
ATOM     21  C   UNL     1       0.026  -0.664  -1.186  0.00  0.00    +0.022 A 
ATOM     22  C   UNL     1       0.039  -2.058  -1.211  0.00  0.00    +0.020 A 
ATOM     23  C   UNL     1       0.045  -2.755  -0.004  0.00  0.00    +0.101 A 
ATOM     24  C   UNL     1       0.038  -2.021   1.210  0.00  0.00    +0.261 A 
ATOM     25  O   UNL     1       0.044  -2.606   2.278  0.00  0.00    -0.267 OA
ATOM     26  N   UNL     1       0.031  -0.674   1.177  0.00  0.00    -0.326 N 
ATOM     27  H   UNL     1       0.030  -0.177   2.010  0.00  0.00    +0.169 HD
ENDBRANCH  15  23
ENDBRANCH   1  17
TORSDOF 5
