REMARK  Name = ZINC38556395
REMARK  9 active torsions:
REMARK  status: ('A' for Active; 'I' for Inactive)
REMARK    1  A    between atoms: C_1  and  C_2
REMARK    2  A    between atoms: C_2  and  N_3
REMARK    3  A    between atoms: N_3  and  C_4
REMARK    4  A    between atoms: N_3  and  C_6
REMARK    5  A    between atoms: C_4  and  C_5
REMARK    6  A    between atoms: C_9  and  C_13
REMARK    7  A    between atoms: C_10  and  O_12
REMARK    8  A    between atoms: N_14  and  N_15
REMARK    9  A    between atoms: C_16  and  C_22
REMARK                            x       y       z     vdW  Elec       q    Type
REMARK                         _______ _______ _______ _____ _____    ______ ____
ROOT
ATOM      1  C   UNL     1       6.334  -1.154   1.054  0.00  0.00    +0.142 C 
ATOM      2  N   UNL     1       6.915  -1.786   2.029  0.00  0.00    -0.184 NA
ENDROOT
BRANCH   2   3
ATOM      3  N   UNL     1       8.278  -2.099   1.947  0.00  0.00    -0.175 N 
ATOM      4  C   UNL     1       9.108  -2.702   3.004  0.00  0.00    +0.230 C 
ATOM      5  N   UNL     1      10.442  -2.810   2.388  0.00  0.00    -0.242 N 
ATOM      6  N   UNL     1      10.315  -2.296   1.092  0.00  0.00    -0.160 NA
ATOM      7  C   UNL     1       9.107  -1.908   0.854  0.00  0.00    +0.206 C 
ATOM      8  S   UNL     1       8.578  -1.214  -0.677  0.00  0.00    -0.011 SA
ATOM      9  H   UNL     1      11.246  -3.166   2.798  0.00  0.00    +0.170 HD
BRANCH   4  10
ATOM     10  C   UNL     1       9.153  -1.794   4.234  0.00  0.00    +0.197 C 
ATOM     11  C   UNL     1      10.055  -2.380   5.301  0.00  0.00    -0.017 C 
ATOM     12  C   UNL     1       9.254  -2.587   6.345  0.00  0.00    +0.065 C 
ATOM     13  C   UNL     1      10.050  -3.180   7.494  0.00  0.00    +0.057 C 
ATOM     14  C   UNL     1      11.355  -3.699   6.854  0.00  0.00    +0.011 C 
ATOM     15  C   UNL     1      11.470  -2.800   5.603  0.00  0.00    +0.035 C 
ATOM     16  N   UNL     1       7.985  -2.201   6.040  0.00  0.00    -0.158 NA
ATOM     17  N   UNL     1       7.840  -1.749   4.899  0.00  0.00    -0.176 NA
ENDBRANCH   4  10
ENDBRANCH   2   3
BRANCH   1  21
ATOM     18  C   UNL     1       2.140  -0.486   1.155  0.00  0.00    +0.033 A 
ATOM     19  C   UNL     1       2.892  -0.029   0.078  0.00  0.00    +0.024 A 
ATOM     20  C   UNL     1       4.252  -0.243   0.042  0.00  0.00    +0.015 A 
ATOM     21  C   UNL     1       4.880  -0.922   1.089  0.00  0.00    +0.036 A 
ATOM     22  C   UNL     1       4.120  -1.383   2.175  0.00  0.00    +0.127 A 
ATOM     23  C   UNL     1       2.756  -1.158   2.204  0.00  0.00    +0.069 A 
BRANCH  22  24
ATOM     24  O   UNL     1       4.723  -2.045   3.196  0.00  0.00    -0.506 OA
ATOM     25  H   UNL     1       5.030  -1.470   3.910  0.00  0.00    +0.292 HD
ENDBRANCH  22  24
BRANCH  18  26
ATOM     26  N   UNL     1       0.762  -0.266   1.185  0.00  0.00    -0.330 N 
BRANCH  26  28
ATOM     27  C   UNL     1       0.099   1.944   0.373  0.00  0.00    +0.024 C 
ATOM     28  C   UNL     1       0.110   0.442   0.081  0.00  0.00    +0.102 C 
ENDBRANCH  26  28
BRANCH  26  29
ATOM     29  C   UNL     1      -0.032  -0.741   2.321  0.00  0.00    +0.102 C 
ATOM     30  C   UNL     1      -0.524  -2.162   2.039  0.00  0.00    +0.024 C 
ENDBRANCH  26  29
ENDBRANCH  18  26
ENDBRANCH   1  21
TORSDOF 7
