REMARK  Name = ZINC63199459
REMARK  6 active torsions:
REMARK  status: ('A' for Active; 'I' for Inactive)
REMARK    1  A    between atoms: C_1  and  S_2
REMARK    2  A    between atoms: S_2  and  C_5
REMARK    3  A    between atoms: C_5  and  C_6
REMARK    4  A    between atoms: C_6  and  S_7
REMARK    5  A    between atoms: S_7  and  N_10
REMARK    6  A    between atoms: C_13  and  C_16
REMARK                            x       y       z     vdW  Elec       q    Type
REMARK                         _______ _______ _______ _____ _____    ______ ____
ROOT
ATOM      1  N   UNL     1       1.914  -3.936  -3.310  0.00  0.00    -0.181 NA
ATOM      2  C   UNL     1       3.035  -4.673  -2.711  0.00  0.00    +0.109 C 
ATOM      3  C   UNL     1       3.632  -5.607  -3.768  0.00  0.00    +0.019 C 
ATOM      4  C   UNL     1       2.527  -6.499  -4.338  0.00  0.00    -0.023 C 
ATOM      5  C   UNL     1       1.461  -5.629  -5.008  0.00  0.00    +0.019 C 
ATOM      6  C   UNL     1       0.837  -4.695  -3.960  0.00  0.00    +0.109 C 
ENDROOT
BRANCH   4   7
ATOM      7  C   UNL     1       3.126  -7.457  -5.369  0.00  0.00    -0.069 C 
ATOM      8  C   UNL     1       3.735  -6.656  -6.538  0.00  0.00    -0.017 C 
ATOM      9  C   UNL     1       3.376  -7.517  -7.777  0.00  0.00    -0.021 C 
ATOM     10  C   UNL     1       1.979  -8.060  -7.386  0.00  0.00    -0.082 C 
ATOM     11  N   UNL     1       2.067  -8.317  -5.929  0.00  0.00    +0.381 N 
ATOM     12  H   UNL     1       2.294  -9.286  -5.766  0.00  0.00    -0.086 HD
ATOM     13  H   UNL     1       1.184  -8.098  -5.492  0.00  0.00    -0.086 HD
ENDBRANCH   4   7
BRANCH   1  14
ATOM     14  S   UNL     1       1.861  -2.282  -3.247  0.00  0.00    +0.033 S 
ATOM     15  O   UNL     1       1.071  -1.902  -4.365  0.00  0.00    -0.158 OA
ATOM     16  O   UNL     1       3.220  -1.879  -3.151  0.00  0.00    -0.158 OA
BRANCH  14  17
ATOM     17  C   UNL     1       0.986  -1.902  -1.705  0.00  0.00    +0.208 C 
BRANCH  17  18
ATOM     18  C   UNL     1       0.877  -0.385  -1.541  0.00  0.00    +0.189 C 
BRANCH  18  20
ATOM     19  C   UNL     1      -0.022   1.810   0.012  0.00  0.00    +0.194 C 
ATOM     20  S   UNL     1       0.002  -0.004   0.002  0.00  0.00    -0.032 S 
ATOM     21  O   UNL     1       0.798  -0.449   1.092  0.00  0.00    -0.175 OA
ATOM     22  O   UNL     1      -1.335  -0.471  -0.113  0.00  0.00    -0.175 OA
ENDBRANCH  18  20
ENDBRANCH  17  18
ENDBRANCH  14  17
ENDBRANCH   1  14
TORSDOF 5
