REMARK  Name = ZINC20125890
REMARK  11 active torsions:
REMARK  status: ('A' for Active; 'I' for Inactive)
REMARK    1  A    between atoms: C_1  and  C_2
REMARK    2  A    between atoms: C_5  and  O_22
REMARK    3  A    between atoms: C_8  and  C_21
REMARK    4  A    between atoms: C_11  and  N_13
REMARK    5  A    between atoms: N_13  and  C_14
REMARK    6  A    between atoms: C_14  and  C_15
REMARK    7  A    between atoms: C_15  and  C_16
REMARK    8  A    between atoms: C_15  and  C_17
REMARK    9  A    between atoms: C_15  and  N_18
REMARK   10  A    between atoms: N_18  and  C_19
REMARK   11  A    between atoms: N_18  and  C_20
REMARK                            x       y       z     vdW  Elec       q    Type
REMARK                         _______ _______ _______ _____ _____    ______ ____
ROOT
ATOM      1  C   UNL     1       4.980   2.901  -0.061  0.00  0.00    +0.044 C 
ATOM      2  C   UNL     1       3.661   2.202   0.150  0.00  0.00    -0.047 A 
ATOM      3  C   UNL     1       3.099   1.470  -0.877  0.00  0.00    +0.007 A 
ATOM      4  C   UNL     1       1.890   0.829  -0.687  0.00  0.00    +0.046 A 
ATOM      5  C   UNL     1       1.245   0.921   0.536  0.00  0.00    +0.119 A 
ATOM      6  C   UNL     1       1.809   1.661   1.568  0.00  0.00    -0.016 A 
ATOM      7  C   UNL     1       3.020   2.297   1.374  0.00  0.00    -0.037 A 
ATOM      8  C   UNL     1       3.422   3.027   2.638  0.00  0.00    +0.015 C 
ATOM      9  C   UNL     1       2.555   2.408   3.755  0.00  0.00    -0.003 C 
ATOM     10  C   UNL     1       1.318   1.912   2.977  0.00  0.00    -0.036 C 
ATOM     11  C   UNL     1       4.907   2.803   2.930  0.00  0.00    +0.012 C 
ENDROOT
BRANCH  10  12
ATOM     12  N   UNL     1       0.805   0.671   3.573  0.00  0.00    +0.385 N 
ATOM     13  H   UNL     1       0.226   0.115   2.820  0.00  0.00    -0.085 HD
ATOM     14  H   UNL     1       1.648   0.054   3.917  0.00  0.00    -0.085 HD
BRANCH  12  15
ATOM     15  C   UNL     1      -0.067   0.958   4.720  0.00  0.00    -0.060 C 
BRANCH  15  16
ATOM     16  C   UNL     1      -0.684  -0.345   5.230  0.00  0.00    +0.001 C 
ATOM     17  C   UNL     1      -1.592  -0.046   6.425  0.00  0.00    +0.025 C 
ATOM     18  C   UNL     1      -1.506  -0.992   4.114  0.00  0.00    +0.025 C 
BRANCH  16  19
ATOM     19  N   UNL     1       0.385  -1.263   5.646  0.00  0.00    -0.305 NA
ATOM     20  C   UNL     1       1.254  -0.638   6.652  0.00  0.00    +0.105 C 
ATOM     21  C   UNL     1      -0.171  -2.529   6.143  0.00  0.00    +0.105 C 
ENDBRANCH  16  19
ENDBRANCH  15  16
ENDBRANCH  12  15
ENDBRANCH  10  12
BRANCH   5  22
ATOM     22  O   UNL     1       0.056   0.290   0.725  0.00  0.00    -0.507 OA
ATOM     23  H   UNL     1      -0.457   0.363   1.695  0.00  0.00    +0.292 HD
ENDBRANCH   5  22
TORSDOF 5
