REMARK  Name = ZINC37556557
REMARK  7 active torsions:
REMARK  status: ('A' for Active; 'I' for Inactive)
REMARK    1  A    between atoms: C_1  and  C_2
REMARK    2  A    between atoms: C_2  and  C_3
REMARK    3  A    between atoms: C_2  and  C_4
REMARK    4  A    between atoms: C_4  and  C_21
REMARK    5  A    between atoms: C_15  and  C_17
REMARK    6  A    between atoms: C_18  and  C_19
REMARK    7  A    between atoms: C_19  and  O_20
REMARK                            x       y       z     vdW  Elec       q    Type
REMARK                         _______ _______ _______ _____ _____    ______ ____
ROOT
ATOM      1  C   UNL     1      -1.582  -0.558  -0.070  0.00  0.00    +0.056 C 
ATOM      2  C   UNL     1      -1.295  -2.049   0.199  0.00  0.00    +0.113 C 
ATOM      3  C   UNL     1      -1.953  -2.302   1.537  0.00  0.00    +0.228 C 
ATOM      4  O   UNL     1      -1.965  -3.362   2.125  0.00  0.00    -0.275 OA
ATOM      5  N   UNL     1      -2.519  -1.169   1.970  0.00  0.00    -0.193 N 
ATOM      6  C   UNL     1      -2.372  -0.124   1.146  0.00  0.00    +0.234 C 
ATOM      7  O   UNL     1      -2.804   0.991   1.341  0.00  0.00    -0.274 OA
ATOM      8  C   UNL     1      -3.208  -1.083   3.184  0.00  0.00    +0.135 A 
ATOM      9  C   UNL     1      -3.554  -2.247   3.861  0.00  0.00    +0.044 A 
ATOM     10  C   UNL     1      -4.237  -2.156   5.063  0.00  0.00    +0.006 A 
ATOM     11  C   UNL     1      -4.553  -0.899   5.552  0.00  0.00    +0.037 A 
ATOM     12  C   UNL     1      -4.176   0.229   4.824  0.00  0.00    +0.116 A 
ATOM     13  N   UNL     1      -3.517   0.103   3.677  0.00  0.00    -0.223 NA
ATOM     14  C   UNL     1      -2.414  -0.387  -1.342  0.00  0.00    +0.021 C 
ENDROOT
BRANCH   1  16
ATOM     15  C   UNL     1      -0.592   1.722  -0.329  0.00  0.00    +0.008 C 
ATOM     16  C   UNL     1      -0.276   0.233  -0.172  0.00  0.00    -0.002 C 
ATOM     17  C   UNL     1       0.552   0.017   1.096  0.00  0.00    +0.008 C 
ENDBRANCH   1  16
BRANCH  12  18
ATOM     18  C   UNL     1      -4.496   1.534   5.319  0.00  0.00    -0.044 C 
ATOM     19  C   UNL     1      -4.759   2.603   5.726  0.00  0.00    -0.068 C 
BRANCH  19  20
ATOM     20  C   UNL     1      -5.089   3.944   6.235  0.00  0.00    +0.244 C 
BRANCH  20  21
ATOM     21  O   UNL     1      -4.604   4.932   5.324  0.00  0.00    -0.383 OA
ATOM     22  H   UNL     1      -4.787   5.842   5.596  0.00  0.00    +0.211 HD
ENDBRANCH  20  21
ENDBRANCH  19  20
ENDBRANCH  12  18
TORSDOF 4
