REMARK  Name = ZINC39684051
REMARK  6 active torsions:
REMARK  status: ('A' for Active; 'I' for Inactive)
REMARK    1  A    between atoms: C_1  and  C_2
REMARK    2  A    between atoms: C_7  and  C_11
REMARK    3  A    between atoms: C_11  and  C_12
REMARK    4  A    between atoms: C_12  and  N_13
REMARK    5  A    between atoms: C_14  and  C_16
REMARK    6  A    between atoms: C_27  and  C_29
REMARK                            x       y       z     vdW  Elec       q    Type
REMARK                         _______ _______ _______ _____ _____    ______ ____
ROOT
ATOM      1  C   UNL     1      -8.675   1.954  -6.774  0.00  0.00    +0.100 C 
ATOM      2  C   UNL     1      -9.780   2.296  -5.749  0.00  0.00    +0.121 C 
ATOM      3  N   UNL     1     -11.023   1.748  -6.342  0.00  0.00    -0.296 N 
ATOM      4  C   UNL     1     -10.607   0.460  -6.946  0.00  0.00    +0.115 C 
ATOM      5  C   UNL     1      -9.222   0.749  -7.557  0.00  0.00    -0.004 C 
ATOM      6  C   UNL     1      -9.360   1.097  -9.036  0.00  0.00    -0.010 C 
ATOM      7  C   UNL     1      -9.851  -0.134  -9.802  0.00  0.00    -0.082 C 
ATOM      8  N   UNL     1      -8.896  -1.235  -9.625  0.00  0.00    +0.379 N 
ATOM      9  C   UNL     1      -8.838  -1.626  -8.212  0.00  0.00    -0.082 C 
ATOM     10  C   UNL     1      -8.305  -0.458  -7.378  0.00  0.00    -0.010 C 
ATOM     11  C   UNL     1     -12.254   2.298  -6.335  0.00  0.00    +0.249 C 
ATOM     12  O   UNL     1     -13.198   1.679  -6.785  0.00  0.00    -0.270 OA
ATOM     13  H   UNL     1      -9.190  -2.025 -10.180  0.00  0.00    -0.086 HD
ATOM     14  H   UNL     1      -7.981  -0.937  -9.928  0.00  0.00    -0.086 HD
ENDROOT
BRANCH  11  15
ATOM     15  C   UNL     1     -12.454   3.651  -5.779  0.00  0.00    +0.072 A 
ATOM     16  C   UNL     1     -11.703   4.078  -4.682  0.00  0.00    +0.016 A 
ATOM     17  C   UNL     1     -11.895   5.343  -4.168  0.00  0.00    +0.001 A 
ATOM     18  C   UNL     1     -12.830   6.191  -4.736  0.00  0.00    +0.003 A 
ATOM     19  C   UNL     1     -13.579   5.778  -5.822  0.00  0.00    +0.039 A 
ATOM     20  C   UNL     1     -13.394   4.514  -6.352  0.00  0.00    +0.135 A 
ATOM     21  F   UNL     1     -14.122   4.112  -7.417  0.00  0.00    -0.205 F 
ENDBRANCH  11  15
BRANCH   1  23
ATOM     22  N   UNL     1      -6.209   1.812  -6.657  0.00  0.00    -0.315 N 
ATOM     23  C   UNL     1      -7.398   1.585  -6.065  0.00  0.00    +0.218 C 
ATOM     24  O   UNL     1      -7.440   1.083  -4.962  0.00  0.00    -0.275 OA
ATOM     25  H   UNL     1      -6.175   2.213  -7.540  0.00  0.00    +0.149 HD
BRANCH  22  26
ATOM     26  C   UNL     1      -4.967   1.452  -5.968  0.00  0.00    +0.109 C 
BRANCH  26  27
ATOM     27  C   UNL     1      -3.771   1.812  -6.852  0.00  0.00    +0.056 C 
BRANCH  27  34
ATOM     28  C   UNL     1       1.382  -0.710  -4.319  0.00  0.00    +0.046 C 
ATOM     29  C   UNL     1       0.138  -0.837  -5.161  0.00  0.00    -0.027 A 
ATOM     30  C   UNL     1      -0.180  -2.043  -5.745  0.00  0.00    +0.005 A 
ATOM     31  C   UNL     1      -1.322  -2.172  -6.524  0.00  0.00    +0.001 A 
ATOM     32  C   UNL     1      -2.151  -1.105  -6.723  0.00  0.00    +0.010 A 
ATOM     33  C   UNL     1      -1.848   0.127  -6.139  0.00  0.00    +0.003 A 
ATOM     34  C   UNL     1      -2.493   1.442  -6.143  0.00  0.00    -0.021 A 
ATOM     35  C   UNL     1      -1.731   2.255  -5.395  0.00  0.00    +0.087 A 
ATOM     36  N   UNL     1      -0.650   1.569  -4.913  0.00  0.00    -0.360 N 
ATOM     37  C   UNL     1      -0.694   0.262  -5.346  0.00  0.00    +0.050 A 
ATOM     38  H   UNL     1       0.043   1.945  -4.348  0.00  0.00    +0.165 HD
ENDBRANCH  27  34
ENDBRANCH  26  27
ENDBRANCH  22  26
ENDBRANCH   1  23
TORSDOF 5
