REMARK  Name = ZINC37131641
REMARK  8 active torsions:
REMARK  status: ('A' for Active; 'I' for Inactive)
REMARK    1  A    between atoms: C_1  and  C_2
REMARK    2  A    between atoms: C_5  and  N_13
REMARK    3  A    between atoms: C_7  and  C_12
REMARK    4  A    between atoms: N_10  and  C_11
REMARK    5  A    between atoms: N_13  and  C_14
REMARK    6  A    between atoms: C_17  and  S_20
REMARK    7  A    between atoms: S_20  and  N_23
REMARK    8  A    between atoms: N_23  and  C_24
REMARK                            x       y       z     vdW  Elec       q    Type
REMARK                         _______ _______ _______ _____ _____    ______ ____
ROOT
ATOM      1  N   UNL     1       1.483  -2.506  -2.428  0.00  0.00    -0.341 N 
ATOM      2  H   UNL     1       2.424  -2.727  -2.343  0.00  0.00    +0.146 HD
ENDROOT
BRANCH   1   6
ATOM      3  C   UNL     1      -0.019   1.526   0.010  0.00  0.00    -0.013 C 
ATOM      4  C   UNL     1       0.002  -0.004   0.002  0.00  0.00    -0.070 C 
ATOM      5  C   UNL     1       0.717  -0.497  -1.258  0.00  0.00    +0.007 C 
ATOM      6  C   UNL     1       0.735  -2.028  -1.262  0.00  0.00    +0.070 C 
ATOM      7  C   UNL     1       1.410  -2.524   0.020  0.00  0.00    -0.011 C 
ATOM      8  C   UNL     1       0.669  -1.956   1.232  0.00  0.00    -0.074 C 
ATOM      9  N   UNL     1       0.711  -0.490   1.192  0.00  0.00    +0.380 N 
ATOM     10  C   UNL     1       0.067   0.050   2.397  0.00  0.00    -0.096 C 
ATOM     11  C   UNL     1       1.365  -4.053   0.062  0.00  0.00    +0.007 C 
ATOM     12  H   UNL     1       1.671  -0.182   1.159  0.00  0.00    -0.082 HD
ENDBRANCH   1   6
BRANCH   1  13
ATOM     13  C   UNL     1       0.841  -2.645  -3.660  0.00  0.00    +0.027 A 
ATOM     14  C   UNL     1      -0.505  -2.324  -3.784  0.00  0.00    +0.025 A 
ATOM     15  C   UNL     1      -1.137  -2.462  -5.005  0.00  0.00    +0.030 A 
ATOM     16  C   UNL     1      -0.431  -2.918  -6.103  0.00  0.00    +0.105 A 
ATOM     17  C   UNL     1       0.909  -3.239  -5.983  0.00  0.00    +0.030 A 
ATOM     18  C   UNL     1       1.548  -3.098  -4.767  0.00  0.00    +0.025 A 
BRANCH  16  19
ATOM     19  S   UNL     1      -1.241  -3.094  -7.657  0.00  0.00    +0.058 S 
ATOM     20  O   UNL     1      -0.500  -4.056  -8.395  0.00  0.00    -0.153 OA
ATOM     21  O   UNL     1      -2.626  -3.249  -7.379  0.00  0.00    -0.153 OA
BRANCH  19  22
ATOM     22  N   UNL     1      -1.078  -1.654  -8.459  0.00  0.00    -0.193 NA
ATOM     23  C   UNL     1       0.250  -1.189  -8.868  0.00  0.00    +0.127 C 
ATOM     24  H   UNL     1      -1.862  -1.118  -8.658  0.00  0.00    +0.148 HD
ENDBRANCH  19  22
ENDBRANCH  16  19
ENDBRANCH   1  13
TORSDOF 4
