REMARK  Name = ZINC39689644
REMARK  6 active torsions:
REMARK  status: ('A' for Active; 'I' for Inactive)
REMARK    1  A    between atoms: C_1  and  C_2
REMARK    2  A    between atoms: C_2  and  C_3
REMARK    3  A    between atoms: C_7  and  C_16
REMARK    4  A    between atoms: N_18  and  C_19
REMARK    5  A    between atoms: C_19  and  C_20
REMARK    6  A    between atoms: N_24  and  C_26
REMARK                            x       y       z     vdW  Elec       q    Type
REMARK                         _______ _______ _______ _____ _____    ______ ____
ROOT
ATOM      1  C   UNL     1      -1.571  -0.547  -0.021  0.00  0.00    +0.215 C 
ATOM      2  O   UNL     1      -2.521   0.204   0.047  0.00  0.00    -0.276 OA
ATOM      3  N   UNL     1      -1.763  -1.881   0.009  0.00  0.00    -0.300 N 
ATOM      4  C   UNL     1      -0.736  -2.947  -0.055  0.00  0.00    +0.121 C 
ATOM      5  C   UNL     1      -1.226  -4.020   0.944  0.00  0.00    +0.100 C 
ATOM      6  C   UNL     1      -2.744  -3.796   1.048  0.00  0.00    -0.004 C 
ATOM      7  C   UNL     1      -3.048  -2.611   0.119  0.00  0.00    +0.115 C 
ATOM      8  C   UNL     1      -3.130  -3.446   2.482  0.00  0.00    -0.010 C 
ATOM      9  C   UNL     1      -4.649  -3.284   2.571  0.00  0.00    -0.082 C 
ATOM     10  N   UNL     1      -5.302  -4.532   2.158  0.00  0.00    +0.379 N 
ATOM     11  C   UNL     1      -5.001  -4.813   0.749  0.00  0.00    -0.082 C 
ATOM     12  C   UNL     1      -3.495  -5.040   0.583  0.00  0.00    -0.010 C 
ATOM     13  H   UNL     1      -4.965  -5.292   2.731  0.00  0.00    -0.086 HD
ATOM     14  H   UNL     1      -6.300  -4.444   2.276  0.00  0.00    -0.086 HD
ENDROOT
BRANCH   5  15
ATOM     15  C   UNL     1      -0.932  -5.401   0.416  0.00  0.00    +0.218 C 
ATOM     16  O   UNL     1      -0.920  -5.603  -0.780  0.00  0.00    -0.275 OA
ATOM     17  N   UNL     1      -0.684  -6.411   1.273  0.00  0.00    -0.315 N 
ATOM     18  H   UNL     1      -0.694  -6.249   2.229  0.00  0.00    +0.149 HD
BRANCH  17  19
ATOM     19  C   UNL     1      -0.398  -7.753   0.760  0.00  0.00    +0.105 C 
BRANCH  19  20
ATOM     20  C   UNL     1      -0.153  -8.706   1.932  0.00  0.00    -0.012 C 
ATOM     21  C   UNL     1      -1.460  -8.948   2.722  0.00  0.00    -0.016 C 
ATOM     22  C   UNL     1      -1.440 -10.445   3.084  0.00  0.00    -0.079 C 
ATOM     23  N   UNL     1      -0.177 -11.002   2.553  0.00  0.00    +0.378 N 
ATOM     24  C   UNL     1       0.214 -10.121   1.421  0.00  0.00    -0.074 C 
ATOM     25  C   UNL     1      -0.390 -12.376   2.078  0.00  0.00    -0.096 C 
ATOM     26  H   UNL     1       0.537 -10.986   3.266  0.00  0.00    -0.082 HD
ENDBRANCH  19  20
ENDBRANCH  17  19
ENDBRANCH   5  15
BRANCH   1  28
ATOM     27  C   UNL     1      -0.237   1.540  -0.149  0.00  0.00    +0.013 C 
ATOM     28  C   UNL     1      -0.176   0.011  -0.137  0.00  0.00    +0.092 C 
ENDBRANCH   1  28
TORSDOF 4
