REMARK  Name = ZINC29482030
REMARK  6 active torsions:
REMARK  status: ('A' for Active; 'I' for Inactive)
REMARK    1  A    between atoms: C_1  and  C_2
REMARK    2  A    between atoms: C_13  and  C_15
REMARK    3  A    between atoms: C_15  and  S_16
REMARK    4  A    between atoms: S_16  and  C_17
REMARK    5  A    between atoms: N_18  and  C_19
REMARK    6  A    between atoms: C_19  and  C_20
REMARK                            x       y       z     vdW  Elec       q    Type
REMARK                         _______ _______ _______ _____ _____    ______ ____
ROOT
ATOM      1  C   UNL     1      -0.365   5.026   2.499  0.00  0.00    +0.173 C 
ENDROOT
BRANCH   1  13
ATOM      2  C   UNL     1      -1.262   5.149   0.358  0.00  0.00    +0.028 C 
ATOM      3  C   UNL     1      -0.832   3.725  -0.003  0.00  0.00    +0.079 C 
ATOM      4  C   UNL     1      -1.919   3.053  -0.851  0.00  0.00    +0.027 C 
ATOM      5  C   UNL     1      -1.441   1.659  -1.258  0.00  0.00    +0.039 C 
ATOM      6  C   UNL     1      -0.973   0.889  -0.051  0.00  0.00    -0.026 A 
ATOM      7  C   UNL     1      -0.913  -0.493  -0.120  0.00  0.00    +0.005 A 
ATOM      8  C   UNL     1      -0.485  -1.227   0.969  0.00  0.00    +0.000 A 
ATOM      9  C   UNL     1      -0.112  -0.585   2.136  0.00  0.00    +0.002 A 
ATOM     10  C   UNL     1      -0.170   0.792   2.213  0.00  0.00    +0.024 A 
ATOM     11  C   UNL     1      -0.602   1.532   1.119  0.00  0.00    +0.040 A 
ATOM     12  N   UNL     1      -0.660   2.929   1.220  0.00  0.00    -0.268 N 
ATOM     13  C   UNL     1      -0.563   3.534   2.421  0.00  0.00    +0.230 C 
ATOM     14  O   UNL     1      -0.636   2.877   3.438  0.00  0.00    -0.274 OA
ENDBRANCH   1  13
BRANCH   1  15
ATOM     15  S   UNL     1       0.075   5.487   4.193  0.00  0.00    -0.084 S 
BRANCH  15  16
ATOM     16  C   UNL     1       0.243   7.231   4.002  0.00  0.00    +0.126 C 
ATOM     17  N   UNL     1       0.045   7.780   2.836  0.00  0.00    -0.365 N 
ATOM     18  N   UNL     1       0.583   8.012   5.082  0.00  0.00    -0.339 N 
ATOM     19  H   UNL     1       0.687   9.100   4.963  0.00  0.00    +0.144 HD
ATOM     20  H   UNL     1       0.750   7.548   6.066  0.00  0.00    +0.144 HD
ATOM     21  H   UNL     1      -0.326   7.173   1.997  0.00  0.00    +0.161 HD
BRANCH  17  22
ATOM     22  C   UNL     1       0.317   9.207   2.643  0.00  0.00    +0.146 C 
BRANCH  22  23
ATOM     23  C   UNL     1       1.444   9.378   1.622  0.00  0.00    +0.137 C 
ATOM     24  C   UNL     1       1.820  10.871   1.503  0.00  0.00    +0.035 C 
ATOM     25  C   UNL     1       2.069  11.025  -0.024  0.00  0.00    +0.031 C 
ATOM     26  C   UNL     1       1.026  10.032  -0.595  0.00  0.00    +0.160 C 
ATOM     27  O   UNL     1       1.003   8.936   0.333  0.00  0.00    -0.375 OA
ENDBRANCH  22  23
ENDBRANCH  17  22
ENDBRANCH  15  16
ENDBRANCH   1  15
TORSDOF 5
