REMARK  Name = ZINC05000563
REMARK  7 active torsions:
REMARK  status: ('A' for Active; 'I' for Inactive)
REMARK    1  A    between atoms: C_1  and  C_2
REMARK    2  A    between atoms: C_2  and  C_23
REMARK    3  A    between atoms: C_10  and  C_11
REMARK    4  A    between atoms: C_10  and  N_12
REMARK    5  A    between atoms: C_13  and  C_15
REMARK    6  A    between atoms: C_15  and  N_16
REMARK    7  A    between atoms: N_16  and  C_17
REMARK                            x       y       z     vdW  Elec       q    Type
REMARK                         _______ _______ _______ _____ _____    ______ ____
ROOT
ATOM      1  N   UNL     1       1.822  -1.451   0.845  0.00  0.00    -0.311 N 
ATOM      2  C   UNL     1       2.579  -2.055   1.782  0.00  0.00    +0.196 C 
ATOM      3  O   UNL     1       2.346  -1.875   2.958  0.00  0.00    -0.278 OA
ATOM      4  H   UNL     1       2.008  -1.595  -0.096  0.00  0.00    +0.149 HD
ENDROOT
BRANCH   1  12
ATOM      5  C   UNL     1       0.022   1.526   0.032  0.00  0.00    +0.013 C 
ATOM      6  C   UNL     1       0.002  -0.004   0.002  0.00  0.00    -0.011 C 
ATOM      7  C   UNL     1      -1.461  -0.531   0.111  0.00  0.00    -0.003 C 
ATOM      8  C   UNL     1      -1.350  -2.057  -0.189  0.00  0.00    +0.004 C 
ATOM      9  C   UNL     1      -0.630  -2.647   1.045  0.00  0.00    +0.006 C 
ATOM     10  C   UNL     1      -0.373  -1.421   1.975  0.00  0.00    +0.013 C 
ATOM     11  C   UNL     1      -1.653  -0.534   1.669  0.00  0.00    +0.009 C 
ATOM     12  C   UNL     1       0.718  -0.576   1.247  0.00  0.00    +0.040 C 
ATOM     13  C   UNL     1       1.231   0.558   2.136  0.00  0.00    +0.032 C 
ATOM     14  C   UNL     1       0.663  -0.520  -1.278  0.00  0.00    +0.013 C 
ENDBRANCH   1  12
BRANCH   2  15
ATOM     15  C   UNL     1       3.714  -2.955   1.368  0.00  0.00    +0.015 C 
BRANCH  15  16
ATOM     16  N   UNL     1       4.379  -3.487   2.565  0.00  0.00    +0.387 N 
ATOM     17  H   UNL     1       4.739  -2.723   3.117  0.00  0.00    -0.085 HD
ATOM     18  H   UNL     1       3.715  -4.014   3.112  0.00  0.00    -0.085 HD
BRANCH  16  19
ATOM     19  C   UNL     1       5.486  -4.364   2.161  0.00  0.00    -0.071 C 
ATOM     20  C   UNL     1       4.928  -5.587   1.431  0.00  0.00    -0.016 C 
ATOM     21  C   UNL     1       6.081  -6.501   1.011  0.00  0.00    -0.002 C 
ATOM     22  C   UNL     1       6.850  -6.956   2.253  0.00  0.00    -0.000 C 
ATOM     23  C   UNL     1       7.409  -5.732   2.983  0.00  0.00    -0.002 C 
ATOM     24  C   UNL     1       6.255  -4.819   3.403  0.00  0.00    -0.016 C 
ENDBRANCH  16  19
ENDBRANCH  15  16
ENDBRANCH   2  15
TORSDOF 4
