REMARK  Name = ZINC43287999
REMARK  9 active torsions:
REMARK  status: ('A' for Active; 'I' for Inactive)
REMARK    1  A    between atoms: C_1  and  C_2
REMARK    2  A    between atoms: C_2  and  C_3
REMARK    3  A    between atoms: C_3  and  C_5
REMARK    4  A    between atoms: C_3  and  N_21
REMARK    5  A    between atoms: C_5  and  C_7
REMARK    6  A    between atoms: C_5  and  N_13
REMARK    7  A    between atoms: C_17  and  C_18
REMARK    8  A    between atoms: C_18  and  C_19
REMARK    9  A    between atoms: C_18  and  C_20
REMARK                            x       y       z     vdW  Elec       q    Type
REMARK                         _______ _______ _______ _____ _____    ______ ____
ROOT
ATOM      1  C   UNL     1       0.642  -2.013  -1.453  0.00  0.00    +0.110 C 
ENDROOT
BRANCH   1   2
ATOM      2  C   UNL     1       1.109  -2.708  -0.201  0.00  0.00    +0.012 A 
ATOM      3  C   UNL     1       2.147  -3.566  -0.037  0.00  0.00    +0.028 A 
ATOM      4  C   UNL     1       2.392  -4.088   1.220  0.00  0.00    +0.025 A 
ATOM      5  C   UNL     1       1.588  -3.728   2.250  0.00  0.00    +0.060 A 
ATOM      6  S   UNL     1       0.445  -2.611   1.453  0.00  0.00    -0.098 S 
ATOM      7 BR   UNL     1       3.827  -5.288   1.496  0.00  0.00    -0.050 Br
ENDBRANCH   1   2
BRANCH   1   8
ATOM      8  N   UNL     1      -0.742  -2.400  -1.740  0.00  0.00    -0.329 N 
ATOM      9  C   UNL     1      -1.840  -2.111  -0.976  0.00  0.00    +0.105 A 
ATOM     10  C   UNL     1      -2.903  -2.651  -1.602  0.00  0.00    +0.101 A 
ATOM     11  N   UNL     1      -2.465  -3.253  -2.718  0.00  0.00    -0.349 N 
ATOM     12  C   UNL     1      -1.172  -3.102  -2.809  0.00  0.00    +0.090 A 
ATOM     13  H   UNL     1      -3.022  -3.723  -3.357  0.00  0.00    +0.166 HD
BRANCH  12  14
ATOM     14  C   UNL     1      -0.303  -3.628  -3.922  0.00  0.00    +0.047 C 
ATOM     15  C   UNL     1      -0.852  -4.972  -4.406  0.00  0.00    +0.015 C 
ATOM     16  C   UNL     1      -0.301  -2.631  -5.083  0.00  0.00    +0.015 C 
ENDBRANCH  12  14
ENDBRANCH   1   8
BRANCH   1  17
ATOM     17  C   UNL     1       0.718  -0.498  -1.254  0.00  0.00    -0.047 C 
BRANCH  17  18
ATOM     18  N   UNL     1       0.171   0.180  -2.437  0.00  0.00    +0.382 N 
ATOM     19  H   UNL     1       0.708  -0.079  -3.251  0.00  0.00    -0.090 HD
ATOM     20  H   UNL     1      -0.791  -0.095  -2.567  0.00  0.00    -0.090 HD
ATOM     21  H   UNL     1       0.221   1.179  -2.305  0.00  0.00    -0.090 HD
ENDBRANCH  17  18
BRANCH  17  23
ATOM     22  C   UNL     1       2.240   1.410  -0.721  0.00  0.00    +0.002 C 
ATOM     23  C   UNL     1       2.177  -0.082  -1.056  0.00  0.00    -0.017 C 
ENDBRANCH  17  23
ENDBRANCH   1  17
TORSDOF 6
