REMARK  Name = ZINC39484975
REMARK  5 active torsions:
REMARK  status: ('A' for Active; 'I' for Inactive)
REMARK    1  A    between atoms: C_8  and  C_14
REMARK    2  A    between atoms: N_10  and  C_11
REMARK    3  A    between atoms: C_11  and  C_12
REMARK    4  A    between atoms: C_12  and  O_13
REMARK    5  A    between atoms: C_18  and  C_20
REMARK                            x       y       z     vdW  Elec       q    Type
REMARK                         _______ _______ _______ _____ _____    ______ ____
ROOT
ATOM      1  C   UNL     1       0.637   1.971   0.673  0.00  0.00    +0.002 A 
ATOM      2  C   UNL     1       1.936   2.441   0.625  0.00  0.00    +0.002 A 
ATOM      3  C   UNL     1       2.979   1.573   0.364  0.00  0.00    +0.025 A 
ATOM      4  C   UNL     1       2.726   0.223   0.150  0.00  0.00    +0.053 A 
ATOM      5  C   UNL     1       1.419  -0.251   0.199  0.00  0.00    +0.050 A 
ATOM      6  C   UNL     1       0.376   0.630   0.461  0.00  0.00    +0.025 A 
ATOM      7  N   UNL     1       1.404  -1.631  -0.046  0.00  0.00    -0.321 N 
ATOM      8  C   UNL     1       2.794  -2.051  -0.262  0.00  0.00    +0.190 C 
ATOM      9  N   UNL     1       3.604  -0.834  -0.128  0.00  0.00    -0.304 N 
ATOM     10  H   UNL     1       0.621  -2.203  -0.067  0.00  0.00    +0.148 HD
ENDROOT
BRANCH   8  11
ATOM     11  C   UNL     1       3.199  -3.064   0.778  0.00  0.00    -0.009 A 
ATOM     12  C   UNL     1       3.111  -2.750   2.121  0.00  0.00    +0.007 A 
ATOM     13  C   UNL     1       3.482  -3.679   3.074  0.00  0.00    +0.001 A 
ATOM     14  C   UNL     1       3.941  -4.923   2.684  0.00  0.00    +0.006 A 
ATOM     15  C   UNL     1       4.029  -5.238   1.341  0.00  0.00    -0.020 A 
ATOM     16  C   UNL     1       3.653  -4.310   0.388  0.00  0.00    +0.013 A 
BRANCH  15  17
ATOM     17  C   UNL     1       4.530  -6.594   0.916  0.00  0.00    +0.153 C 
ATOM     18  C   UNL     1       3.447  -7.645   1.088  0.00  0.00    +0.025 C 
ATOM     19  C   UNL     1       3.965  -8.498   1.975  0.00  0.00    +0.130 C 
ATOM     20  N   UNL     1       5.200  -8.104   2.355  0.00  0.00    -0.186 NA
ATOM     21  N   UNL     1       5.596  -7.062   1.819  0.00  0.00    -0.298 N 
ATOM     22  H   UNL     1       6.452  -6.630   1.965  0.00  0.00    +0.183 HD
ENDBRANCH  15  17
ENDBRANCH   8  11
BRANCH   9  23
ATOM     23  C   UNL     1       5.060  -0.742  -0.260  0.00  0.00    +0.135 C 
BRANCH  23  24
ATOM     24  C   UNL     1       5.429  -0.584  -1.736  0.00  0.00    +0.174 C 
BRANCH  24  25
ATOM     25  O   UNL     1       4.934   0.666  -2.220  0.00  0.00    -0.393 OA
ATOM     26  H   UNL     1       5.195   0.868  -3.129  0.00  0.00    +0.209 HD
ENDBRANCH  24  25
ENDBRANCH  23  24
ENDBRANCH   9  23
TORSDOF 5
