REMARK  Name = ZINC55145073
REMARK  4 active torsions:
REMARK  status: ('A' for Active; 'I' for Inactive)
REMARK    1  A    between atoms: C_3  and  C_21
REMARK    2  A    between atoms: C_6  and  C_9
REMARK    3  A    between atoms: C_15  and  C_18
REMARK    4  A    between atoms: C_21  and  N_22
REMARK                            x       y       z     vdW  Elec       q    Type
REMARK                         _______ _______ _______ _____ _____    ______ ____
ROOT
ATOM      1  C   UNL     1       0.037  -0.025   2.481  0.00  0.00    +0.219 C 
ATOM      2  O   UNL     1       0.650   0.594   3.325  0.00  0.00    -0.275 OA
ATOM      3  N   UNL     1      -1.274  -0.284   2.656  0.00  0.00    -0.301 N 
ATOM      4  C   UNL     1      -2.002  -1.136   1.706  0.00  0.00    +0.108 C 
ATOM      5  C   UNL     1      -2.696  -2.260   2.482  0.00  0.00    +0.020 C 
ATOM      6  C   UNL     1      -3.572  -1.651   3.579  0.00  0.00    +0.016 C 
ATOM      7  C   UNL     1      -2.697  -0.860   4.554  0.00  0.00    +0.092 C 
ATOM      8  C   UNL     1      -2.001   0.275   3.804  0.00  0.00    +0.120 C 
ENDROOT
BRANCH   1  13
ATOM      9  C   UNL     1       0.340   1.714   0.158  0.00  0.00    +0.001 C 
ATOM     10  C   UNL     1       1.832   2.033   0.261  0.00  0.00    +0.002 C 
ATOM     11  C   UNL     1       2.422   1.328   1.484  0.00  0.00    -0.028 C 
ATOM     12  C   UNL     1       2.233  -0.184   1.341  0.00  0.00    +0.014 C 
ATOM     13  C   UNL     1       0.740  -0.504   1.238  0.00  0.00    +0.075 C 
ATOM     14  C   UNL     1       0.151   0.202   0.015  0.00  0.00    +0.013 C 
BRANCH  11  15
ATOM     15  C   UNL     1       3.914   1.648   1.587  0.00  0.00    -0.083 C 
BRANCH  15  16
ATOM     16  N   UNL     1       4.091   3.083   1.844  0.00  0.00    +0.378 N 
ATOM     17  H   UNL     1       3.685   3.613   1.087  0.00  0.00    -0.090 HD
ATOM     18  H   UNL     1       3.634   3.329   2.709  0.00  0.00    -0.090 HD
ATOM     19  H   UNL     1       5.075   3.294   1.912  0.00  0.00    -0.090 HD
ENDBRANCH  15  16
ENDBRANCH  11  15
ENDBRANCH   1  13
BRANCH   7  20
ATOM     20  C   UNL     1      -3.556  -0.288   5.652  0.00  0.00    +0.215 C 
ATOM     21  O   UNL     1      -3.607   0.912   5.819  0.00  0.00    -0.276 OA
ATOM     22  N   UNL     1      -4.267  -1.111   6.448  0.00  0.00    -0.329 N 
ATOM     23  H   UNL     1      -4.226  -2.071   6.314  0.00  0.00    +0.145 HD
ATOM     24  H   UNL     1      -4.820  -0.743   7.155  0.00  0.00    +0.145 HD
ENDBRANCH   7  20
TORSDOF 4
