REMARK  Name = ZINC37929055
REMARK  7 active torsions:
REMARK  status: ('A' for Active; 'I' for Inactive)
REMARK    1  A    between atoms: C_1  and  C_2
REMARK    2  A    between atoms: C_4  and  C_21
REMARK    3  A    between atoms: C_5  and  N_9
REMARK    4  A    between atoms: C_6  and  C_8
REMARK    5  A    between atoms: N_9  and  S_10
REMARK    6  A    between atoms: S_10  and  C_13
REMARK    7  A    between atoms: C_18  and  N_19
REMARK                            x       y       z     vdW  Elec       q    Type
REMARK                         _______ _______ _______ _____ _____    ______ ____
ROOT
ATOM      1  S   UNL     1       1.272  -5.052   0.448  0.00  0.00    +0.074 S 
ATOM      2  O   UNL     1       1.447  -4.558   1.769  0.00  0.00    -0.150 OA
ATOM      3  O   UNL     1       1.092  -6.434   0.170  0.00  0.00    -0.150 OA
ENDROOT
BRANCH   1   4
ATOM      4  C   UNL     1       2.680  -4.531  -0.474  0.00  0.00    +0.130 A 
ATOM      5  C   UNL     1       3.686  -3.814   0.144  0.00  0.00    +0.050 A 
ATOM      6  C   UNL     1       4.792  -3.406  -0.579  0.00  0.00    +0.043 A 
ATOM      7  C   UNL     1       4.894  -3.713  -1.925  0.00  0.00    +0.022 A 
ATOM      8  C   UNL     1       3.892  -4.430  -2.549  0.00  0.00    +0.026 A 
ATOM      9  C   UNL     1       2.783  -4.846  -1.823  0.00  0.00    +0.052 A 
ATOM     10 CL   UNL     1       6.054  -2.505   0.202  0.00  0.00    -0.083 Cl
BRANCH   9  11
ATOM     11  N   UNL     1       1.770  -5.577  -2.450  0.00  0.00    -0.356 N 
ATOM     12  H   UNL     1       0.956  -5.790  -1.968  0.00  0.00    +0.142 HD
ATOM     13  H   UNL     1       1.881  -5.870  -3.368  0.00  0.00    +0.142 HD
ENDBRANCH   9  11
ENDBRANCH   1   4
BRANCH   1  14
ATOM     14  N   UNL     1      -0.043  -4.267  -0.181  0.00  0.00    -0.216 N 
ATOM     15  H   UNL     1      -0.736  -4.770  -0.637  0.00  0.00    +0.174 HD
BRANCH  14  20
ATOM     16  C   UNL     1      -0.499   1.362   0.331  0.00  0.00    +0.044 C 
ATOM     17  C   UNL     1      -0.378  -0.134   0.195  0.00  0.00    -0.050 A 
ATOM     18  C   UNL     1      -0.170  -0.698  -1.050  0.00  0.00    +0.008 A 
ATOM     19  C   UNL     1      -0.059  -2.069  -1.178  0.00  0.00    -0.028 A 
ATOM     20  C   UNL     1      -0.155  -2.880  -0.055  0.00  0.00    +0.054 A 
ATOM     21  C   UNL     1      -0.363  -2.309   1.195  0.00  0.00    -0.028 A 
ATOM     22  C   UNL     1      -0.468  -0.938   1.316  0.00  0.00    +0.008 A 
ATOM     23  C   UNL     1      -0.468  -3.186   2.416  0.00  0.00    +0.046 C 
ATOM     24  C   UNL     1       0.166  -2.684  -2.535  0.00  0.00    +0.046 C 
ENDBRANCH  14  20
ENDBRANCH   1  14
TORSDOF 4
