REMARK  Name = ZINC63271664
REMARK  3 active torsions:
REMARK  status: ('A' for Active; 'I' for Inactive)
REMARK    1  A    between atoms: N_18  and  C_19
REMARK    2  A    between atoms: C_19  and  C_20
REMARK    3  A    between atoms: N_22  and  C_23
REMARK                            x       y       z     vdW  Elec       q    Type
REMARK                         _______ _______ _______ _____ _____    ______ ____
ROOT
ATOM      1  C   UNL     1       0.063   1.342   0.993  0.00  0.00    +0.022 A 
ATOM      2  C   UNL     1       1.177   2.091   0.856  0.00  0.00    +0.027 A 
ATOM      3  C   UNL     1       2.450   1.473   0.729  0.00  0.00    +0.043 A 
ATOM      4  N   UNL     1       3.653   1.978   0.567  0.00  0.00    -0.376 N 
ATOM      5  C   UNL     1       4.620   0.883   0.571  0.00  0.00    +0.124 C 
ATOM      6  C   UNL     1       5.460   0.857  -0.711  0.00  0.00    +0.138 C 
ATOM      7  N   UNL     1       6.096  -0.467  -0.808  0.00  0.00    -0.283 N 
ATOM      8  C   UNL     1       5.280  -1.684  -0.869  0.00  0.00    +0.114 C 
ATOM      9  C   UNL     1       4.386  -1.761   0.383  0.00  0.00    +0.052 C 
ATOM     10  C   UNL     1       3.789  -0.389   0.602  0.00  0.00    -0.035 C 
ATOM     11  C   UNL     1       2.511  -0.009   0.744  0.00  0.00    +0.001 A 
ATOM     12  C   UNL     1       1.252  -0.749   0.900  0.00  0.00    +0.030 A 
ATOM     13  C   UNL     1       0.093  -0.061   1.017  0.00  0.00    +0.042 A 
ATOM     14 CL   UNL     1      -1.394  -0.936   1.203  0.00  0.00    -0.084 Cl
ATOM     15  C   UNL     1       7.440  -0.561  -0.842  0.00  0.00    +0.303 C 
ATOM     16  O   UNL     1       8.119   0.447  -0.886  0.00  0.00    -0.253 OA
ATOM     17  N   UNL     1       8.031  -1.772  -0.826  0.00  0.00    -0.291 N 
ATOM     18  H   UNL     1       7.490  -2.576  -0.865  0.00  0.00    +0.151 HD
ATOM     19  H   UNL     1       3.863   2.919   0.461  0.00  0.00    +0.160 HD
ENDROOT
BRANCH  17  20
ATOM     20  C   UNL     1       9.490  -1.874  -0.751  0.00  0.00    +0.202 C 
BRANCH  20  21
ATOM     21  C   UNL     1       9.893  -3.326  -0.749  0.00  0.00    +0.234 C 
ATOM     22  O   UNL     1       9.045  -4.191  -0.805  0.00  0.00    -0.274 OA
ATOM     23  N   UNL     1      11.196  -3.663  -0.685  0.00  0.00    -0.284 N 
ATOM     24  H   UNL     1      11.870  -2.976  -0.569  0.00  0.00    +0.155 HD
BRANCH  23  25
ATOM     25  C   UNL     1      11.574  -4.995  -0.785  0.00  0.00    +0.034 C 
ATOM     26  C   UNL     1      12.330  -5.575   0.211  0.00  0.00    +0.029 C 
ATOM     27  C   UNL     1      12.603  -6.936   0.033  0.00  0.00    -0.016 C 
ATOM     28  C   UNL     1      13.640  -7.717   0.397  0.00  0.00    +0.025 C 
ATOM     29  C   UNL     1      13.553  -8.951  -0.276  0.00  0.00    +0.106 C 
ATOM     30  N   UNL     1      12.461  -9.050  -0.984  0.00  0.00    -0.279 NA
ATOM     31  C   UNL     1      11.669  -7.853  -0.739  0.00  0.00    +0.158 C 
ATOM     32  C   UNL     1      11.226  -7.122  -1.970  0.00  0.00    +0.006 C 
ATOM     33  C   UNL     1      11.164  -5.789  -1.946  0.00  0.00    +0.021 C 
ENDBRANCH  23  25
ENDBRANCH  20  21
ENDBRANCH  17  20
TORSDOF 3
