REMARK  Name = ZINC04246394
REMARK  8 active torsions:
REMARK  status: ('A' for Active; 'I' for Inactive)
REMARK    1  A    between atoms: C_1  and  C_2
REMARK    2  A    between atoms: C_5  and  C_23
REMARK    3  A    between atoms: C_6  and  N_8
REMARK    4  A    between atoms: C_9  and  C_11
REMARK    5  A    between atoms: C_11  and  O_12
REMARK    6  A    between atoms: O_12  and  C_13
REMARK    7  A    between atoms: C_13  and  C_15
REMARK    8  A    between atoms: C_20  and  N_21
REMARK                            x       y       z     vdW  Elec       q    Type
REMARK                         _______ _______ _______ _____ _____    ______ ____
ROOT
ATOM      1  C   UNL     1       3.803   6.069   0.081  0.00  0.00    +0.328 C 
ENDROOT
BRANCH   1   3
ATOM      2  N   UNL     1       4.668   8.380   0.251  0.00  0.00    -0.282 N 
ATOM      3  C   UNL     1       3.603   7.554   0.233  0.00  0.00    +0.255 C 
ATOM      4  O   UNL     1       2.483   8.008   0.338  0.00  0.00    -0.272 OA
ATOM      5  H   UNL     1       5.559   8.025   0.104  0.00  0.00    +0.155 HD
BRANCH   2  11
ATOM      6  C   UNL     1       1.948  12.441  -0.275  0.00  0.00    +0.044 C 
ATOM      7  C   UNL     1       3.180  11.742   0.239  0.00  0.00    -0.049 A 
ATOM      8  C   UNL     1       4.137  12.454   0.940  0.00  0.00    +0.004 A 
ATOM      9  C   UNL     1       5.269  11.816   1.412  0.00  0.00    +0.005 A 
ATOM     10  C   UNL     1       5.448  10.466   1.185  0.00  0.00    -0.029 A 
ATOM     11  C   UNL     1       4.490   9.748   0.482  0.00  0.00    +0.037 A 
ATOM     12  C   UNL     1       3.356  10.392   0.005  0.00  0.00    +0.027 A 
ATOM     13  C   UNL     1       6.683   9.772   1.700  0.00  0.00    +0.045 C 
ENDBRANCH   2  11
ENDBRANCH   1   3
BRANCH   1  14
ATOM     14  O   UNL     1       2.512   5.403   0.090  0.00  0.00    -0.452 OA
BRANCH  14  15
ATOM     15  C   UNL     1       2.515   4.061  -0.036  0.00  0.00    +0.341 C 
ATOM     16  O   UNL     1       3.567   3.464  -0.151  0.00  0.00    -0.245 OA
BRANCH  15  17
ATOM     17  C   UNL     1       1.242   3.319  -0.036  0.00  0.00    +0.081 A 
ATOM     18  C   UNL     1       0.026   4.008  -0.025  0.00  0.00    +0.032 A 
ATOM     19  C   UNL     1      -1.161   3.307  -0.025  0.00  0.00    +0.019 A 
ATOM     20  C   UNL     1      -1.155   1.921  -0.041  0.00  0.00    +0.017 A 
ATOM     21  C   UNL     1       0.037   1.226  -0.046  0.00  0.00    +0.024 A 
ATOM     22  C   UNL     1       1.244   1.915  -0.046  0.00  0.00    +0.039 A 
ATOM     23 BR   UNL     1      -2.804   4.242  -0.010  0.00  0.00    -0.050 Br
BRANCH  22  24
ATOM     24  N   UNL     1       2.445   1.218  -0.058  0.00  0.00    -0.357 N 
ATOM     25  H   UNL     1       2.480   0.318  -0.418  0.00  0.00    +0.142 HD
ATOM     26  H   UNL     1       3.249   1.631   0.295  0.00  0.00    +0.142 HD
ENDBRANCH  22  24
ENDBRANCH  15  17
ENDBRANCH  14  15
ENDBRANCH   1  14
TORSDOF 6
