REMARK  Name = ZINC31886700
REMARK  5 active torsions:
REMARK  status: ('A' for Active; 'I' for Inactive)
REMARK    1  A    between atoms: C_1  and  C_2
REMARK    2  A    between atoms: C_4  and  C_16
REMARK    3  A    between atoms: C_9  and  N_15
REMARK    4  A    between atoms: C_10  and  S_14
REMARK    5  A    between atoms: C_11  and  C_13
REMARK                            x       y       z     vdW  Elec       q    Type
REMARK                         _______ _______ _______ _____ _____    ______ ____
ROOT
ATOM      1  C   UNL     1       2.499   1.091  -0.015  0.00  0.00    +0.066 C 
ATOM      2  C   UNL     1       1.169   1.800   0.001  0.00  0.00    +0.044 A 
ATOM      3  C   UNL     1      -0.013   1.076   0.008  0.00  0.00    +0.046 A 
ATOM      4  C   UNL     1      -1.214   1.768   0.017  0.00  0.00    +0.044 A 
ATOM      5  N   UNL     1      -1.195   3.091   0.030  0.00  0.00    -0.216 NA
ATOM      6  C   UNL     1      -0.049   3.752   0.023  0.00  0.00    +0.253 A 
ATOM      7  N   UNL     1       1.115   3.122   0.008  0.00  0.00    -0.216 NA
ATOM      8  N   UNL     1      -0.068   5.145   0.031  0.00  0.00    -0.183 N 
ATOM      9  C   UNL     1      -1.182   5.935   0.046  0.00  0.00    +0.136 A 
ATOM     10  C   UNL     1      -0.761   7.232   0.049  0.00  0.00    +0.067 A 
ATOM     11  C   UNL     1       0.640   7.228   0.036  0.00  0.00    +0.075 A 
ATOM     12  N   UNL     1       1.053   5.986   0.031  0.00  0.00    -0.166 NA
ATOM     13  C   UNL     1       1.523   8.449   0.035  0.00  0.00    +0.069 C 
ATOM     14  C   UNL     1      -2.523   1.023   0.019  0.00  0.00    +0.066 C 
ENDROOT
BRANCH   9  15
ATOM     15  N   UNL     1      -2.506   5.495   0.055  0.00  0.00    -0.342 N 
ATOM     16  H   UNL     1      -3.329   6.226   0.067  0.00  0.00    +0.144 HD
ATOM     17  H   UNL     1      -2.728   4.418   0.051  0.00  0.00    +0.144 HD
ENDBRANCH   9  15
BRANCH  10  18
ATOM     18  S   UNL     1      -1.795   8.658   0.068  0.00  0.00    -0.138 S 
ATOM     19  H   UNL     1      -1.347   9.663   0.069  0.00  0.00    +0.107 HD
ENDBRANCH  10  18
TORSDOF 2
