REMARK  Name = ZINC49570400
REMARK  5 active torsions:
REMARK  status: ('A' for Active; 'I' for Inactive)
REMARK    1  A    between atoms: C_1  and  O_2
REMARK    2  A    between atoms: O_2  and  C_3
REMARK    3  A    between atoms: C_8  and  N_9
REMARK    4  A    between atoms: C_12  and  C_16
REMARK    5  A    between atoms: C_16  and  N_18
REMARK                            x       y       z     vdW  Elec       q    Type
REMARK                         _______ _______ _______ _____ _____    ______ ____
ROOT
ATOM      1  N   UNL     1       0.098  -2.778   0.085  0.00  0.00    -0.297 N 
ATOM      2  C   UNL     1       0.245  -4.161   0.088  0.00  0.00    +0.124 A 
ATOM      3  C   UNL     1      -0.250  -4.907  -0.976  0.00  0.00    +0.054 A 
ATOM      4  C   UNL     1      -0.094  -6.294  -0.958  0.00  0.00    +0.008 A 
ATOM      5  C   UNL     1       0.558  -6.874   0.139  0.00  0.00    +0.030 A 
ATOM      6  C   UNL     1       1.018  -6.061   1.153  0.00  0.00    +0.113 A 
ATOM      7  N   UNL     1       0.858  -4.752   1.101  0.00  0.00    -0.240 NA
ATOM      8  H   UNL     1      -0.256  -2.329  -0.698  0.00  0.00    +0.154 HD
ENDROOT
BRANCH   1  14
ATOM      9  C   UNL     1       0.876  -0.710   1.073  0.00  0.00    +0.141 A 
ATOM     10  C   UNL     1       1.229   0.024   2.194  0.00  0.00    +0.048 A 
ATOM     11  C   UNL     1       1.175  -0.557   3.447  0.00  0.00    +0.019 A 
ATOM     12  C   UNL     1       0.768  -1.872   3.587  0.00  0.00    +0.020 A 
ATOM     13  C   UNL     1       0.414  -2.612   2.474  0.00  0.00    +0.042 A 
ATOM     14  C   UNL     1       0.461  -2.033   1.214  0.00  0.00    +0.076 A 
ATOM     15 BR   UNL     1       0.697  -2.660   5.305  0.00  0.00    -0.050 Br
BRANCH   9  17
ATOM     16  C   UNL     1       1.363   1.220  -0.228  0.00  0.00    +0.277 C 
ATOM     17  O   UNL     1       0.928  -0.140  -0.160  0.00  0.00    -0.493 OA
ENDBRANCH   9  17
ENDBRANCH   1  14
BRANCH   4  18
ATOM     18  C   UNL     1      -0.603  -7.130  -2.067  0.00  0.00    +0.077 C 
ATOM     19  S   UNL     1      -0.561  -6.540  -3.673  0.00  0.00    -0.035 S 
BRANCH  18  20
ATOM     20  N   UNL     1      -1.100  -8.357  -1.812  0.00  0.00    -0.352 N 
ATOM     21  H   UNL     1      -1.124  -8.691  -0.902  0.00  0.00    +0.143 HD
ATOM     22  H   UNL     1      -1.434  -8.905  -2.539  0.00  0.00    +0.143 HD
ENDBRANCH  18  20
ENDBRANCH   4  18
TORSDOF 4
