REMARK  Name = ZINC25465225
REMARK  10 active torsions:
REMARK  status: ('A' for Active; 'I' for Inactive)
REMARK    1  A    between atoms: C_1  and  C_2
REMARK    2  A    between atoms: C_4  and  C_15
REMARK    3  A    between atoms: C_5  and  C_14
REMARK    4  A    between atoms: N_6  and  C_7
REMARK    5  A    between atoms: N_17  and  N_18
REMARK    6  A    between atoms: N_18  and  C_19
REMARK    7  A    between atoms: C_19  and  N_21
REMARK    8  A    between atoms: N_21  and  C_22
REMARK    9  A    between atoms: C_22  and  C_23
REMARK   10  A    between atoms: C_22  and  C_24
REMARK                            x       y       z     vdW  Elec       q    Type
REMARK                         _______ _______ _______ _____ _____    ______ ____
ROOT
ATOM      1  C   UNL     1       1.709  -1.907  -0.024  0.00  0.00    +0.064 C 
ATOM      2  C   UNL     1       1.290  -0.459  -0.013  0.00  0.00    +0.022 A 
ATOM      3  C   UNL     1       2.124   0.596  -0.015  0.00  0.00    +0.036 A 
ATOM      4  C   UNL     1       1.276   1.793  -0.001  0.00  0.00    +0.059 A 
ATOM      5  C   UNL     1      -0.016   1.344   0.009  0.00  0.00    +0.033 A 
ATOM      6  N   UNL     1       0.002  -0.004   0.002  0.00  0.00    -0.314 N 
ATOM      7  C   UNL     1      -1.250   2.209   0.020  0.00  0.00    +0.064 C 
ENDROOT
BRANCH   6   8
ATOM      8  C   UNL     1      -1.137  -0.822   0.009  0.00  0.00    +0.082 A 
ATOM      9  C   UNL     1      -1.714  -1.221  -1.189  0.00  0.00    +0.029 A 
ATOM     10  C   UNL     1      -2.836  -2.026  -1.180  0.00  0.00    +0.002 A 
ATOM     11  C   UNL     1      -3.386  -2.437   0.021  0.00  0.00    +0.003 A 
ATOM     12  C   UNL     1      -2.815  -2.042   1.217  0.00  0.00    +0.040 A 
ATOM     13  C   UNL     1      -1.689  -1.239   1.215  0.00  0.00    +0.147 A 
ATOM     14  F   UNL     1      -1.128  -0.857   2.383  0.00  0.00    -0.203 F 
ENDBRANCH   6   8
BRANCH   4  15
ATOM     15  C   UNL     1       1.725   3.196   0.002  0.00  0.00    +0.262 C 
ATOM     16  O   UNL     1       0.908   4.096   0.014  0.00  0.00    -0.269 OA
ATOM     17  N   UNL     1       3.042   3.481  -0.009  0.00  0.00    -0.231 N 
ATOM     18  H   UNL     1       3.782   2.667  -0.020  0.00  0.00    +0.173 HD
BRANCH  17  19
ATOM     19  N   UNL     1       3.470   4.815  -0.006  0.00  0.00    -0.246 N 
ATOM     20  H   UNL     1       2.731   5.630   0.004  0.00  0.00    +0.172 HD
BRANCH  19  21
ATOM     21  C   UNL     1       4.787   5.101  -0.018  0.00  0.00    +0.147 C 
ATOM     22  S   UNL     1       5.309   6.731  -0.015  0.00  0.00    -0.017 S 
BRANCH  21  23
ATOM     23  N   UNL     1       5.693   4.103  -0.031  0.00  0.00    -0.323 N 
ATOM     24  H   UNL     1       5.357   3.056  -0.033  0.00  0.00    +0.148 HD
BRANCH  23  25
ATOM     25  C   UNL     1       7.124   4.414  -0.043  0.00  0.00    +0.066 C 
ATOM     26  C   UNL     1       7.906   3.241   0.554  0.00  0.00    +0.027 C 
ATOM     27  C   UNL     1       7.583   4.652  -1.483  0.00  0.00    +0.027 C 
ENDBRANCH  23  25
ENDBRANCH  21  23
ENDBRANCH  19  21
ENDBRANCH  17  19
ENDBRANCH   4  15
TORSDOF 6
