REMARK  Name = ZINC62893255
REMARK  4 active torsions:
REMARK  status: ('A' for Active; 'I' for Inactive)
REMARK    1  A    between atoms: C_1  and  C_2
REMARK    2  A    between atoms: C_2  and  C_7
REMARK    3  A    between atoms: N_9  and  C_10
REMARK    4  A    between atoms: C_19  and  O_20
REMARK                            x       y       z     vdW  Elec       q    Type
REMARK                         _______ _______ _______ _____ _____    ______ ____
ROOT
ATOM      1  C   UNL     1       0.656  -0.515  -1.256  0.00  0.00    +0.221 C 
ATOM      2  O   UNL     1       1.647  -1.211  -1.186  0.00  0.00    -0.275 OA
ATOM      3  N   UNL     1       0.149  -0.185  -2.461  0.00  0.00    -0.285 N 
ATOM      4  H   UNL     1      -0.680   0.316  -2.517  0.00  0.00    +0.155 HD
ENDROOT
BRANCH   3   5
ATOM      5  C   UNL     1       0.815  -0.566  -3.627  0.00  0.00    +0.041 A 
ATOM      6  C   UNL     1       1.490  -1.766  -3.682  0.00  0.00    +0.024 A 
ATOM      7  C   UNL     1       2.158  -2.155  -4.840  0.00  0.00    +0.003 A 
ATOM      8  C   UNL     1       2.162  -1.363  -5.948  0.00  0.00    +0.012 A 
ATOM      9  C   UNL     1       1.486  -0.133  -5.933  0.00  0.00    +0.025 A 
ATOM     10  C   UNL     1       0.798   0.271  -4.763  0.00  0.00    +0.007 A 
ATOM     11  C   UNL     1       0.118   1.500  -4.751  0.00  0.00    +0.010 A 
ATOM     12  C   UNL     1       0.121   2.285  -5.863  0.00  0.00    +0.004 A 
ATOM     13  C   UNL     1       0.790   1.891  -7.019  0.00  0.00    +0.046 A 
ATOM     14  C   UNL     1       1.474   0.708  -7.065  0.00  0.00    +0.125 A 
BRANCH  14  15
ATOM     15  O   UNL     1       2.123   0.338  -8.199  0.00  0.00    -0.506 OA
ATOM     16  H   UNL     1       1.578  -0.169  -8.816  0.00  0.00    +0.292 HD
ENDBRANCH  14  15
ENDBRANCH   3   5
BRANCH   1  18
ATOM     17  C   UNL     1      -0.033   1.512   0.019  0.00  0.00    +0.019 C 
ATOM     18  C   UNL     1      -0.006  -0.017   0.002  0.00  0.00    +0.028 C 
ATOM     19  C   UNL     1      -1.442  -0.580   0.114  0.00  0.00    -0.005 C 
ATOM     20  C   UNL     1      -1.262  -1.806   1.044  0.00  0.00    -0.082 C 
ATOM     21  N   UNL     1      -0.243  -1.344   2.022  0.00  0.00    +0.380 N 
ATOM     22  C   UNL     1       0.733  -0.552   1.243  0.00  0.00    -0.067 C 
ATOM     23  H   UNL     1      -0.675  -0.767   2.728  0.00  0.00    -0.086 HD
ATOM     24  H   UNL     1       0.213  -2.136   2.449  0.00  0.00    -0.086 HD
ENDBRANCH   1  18
TORSDOF 3
