REMARK  Name = ZINC40117999
REMARK  10 active torsions:
REMARK  status: ('A' for Active; 'I' for Inactive)
REMARK    1  A    between atoms: C_1  and  C_2
REMARK    2  A    between atoms: C_2  and  C_3
REMARK    3  A    between atoms: C_3  and  O_4
REMARK    4  A    between atoms: O_4  and  C_5
REMARK    5  A    between atoms: C_8  and  C_11
REMARK    6  A    between atoms: C_11  and  C_13
REMARK    7  A    between atoms: C_18  and  C_20
REMARK    8  A    between atoms: C_22  and  O_28
REMARK    9  A    between atoms: C_23  and  O_27
REMARK   10  A    between atoms: O_28  and  C_29
REMARK                            x       y       z     vdW  Elec       q    Type
REMARK                         _______ _______ _______ _____ _____    ______ ____
ROOT
ATOM      1  C   UNL     1      -6.327  -6.089  -0.012  0.00  0.00    +0.076 C 
ATOM      2  C   UNL     1      -7.379  -6.937  -0.088  0.00  0.00    +0.249 C 
ATOM      3  C   UNL     1      -6.880  -8.328  -0.125  0.00  0.00    +0.285 C 
ATOM      4  O   UNL     1      -7.580  -9.319  -0.193  0.00  0.00    -0.267 OA
ATOM      5  N   UNL     1      -5.535  -8.335  -0.073  0.00  0.00    -0.298 N 
ATOM      6  C   UNL     1      -5.079  -6.941  -0.005  0.00  0.00    +0.142 C 
ATOM      7  O   UNL     1      -8.681  -6.571  -0.123  0.00  0.00    -0.282 OA
ATOM      8  H   UNL     1      -4.968  -9.121  -0.084  0.00  0.00    +0.150 HD
ENDROOT
BRANCH   6   9
ATOM      9  C   UNL     1      -4.222  -6.614  -1.201  0.00  0.00    -0.018 A 
ATOM     10  C   UNL     1      -3.060  -5.882  -1.037  0.00  0.00    +0.055 A 
ATOM     11  C   UNL     1      -2.271  -5.581  -2.135  0.00  0.00    +0.163 A 
ATOM     12  C   UNL     1      -2.649  -6.016  -3.401  0.00  0.00    +0.173 A 
ATOM     13  C   UNL     1      -3.814  -6.750  -3.559  0.00  0.00    +0.063 A 
ATOM     14  C   UNL     1      -4.595  -7.052  -2.458  0.00  0.00    +0.025 A 
ATOM     15 BR   UNL     1      -4.332  -7.345  -5.277  0.00  0.00    -0.046 Br
BRANCH  12  16
ATOM     16  O   UNL     1      -1.877  -5.722  -4.482  0.00  0.00    -0.503 OA
ATOM     17  H   UNL     1      -1.199  -6.385  -4.673  0.00  0.00    +0.292 HD
ENDBRANCH  12  16
BRANCH  11  18
ATOM     18  O   UNL     1      -1.129  -4.860  -1.975  0.00  0.00    -0.491 OA
ATOM     19  C   UNL     1      -0.863  -4.346  -0.668  0.00  0.00    +0.277 C 
ENDBRANCH  11  18
ENDBRANCH   6   9
BRANCH   1  20
ATOM     20  C   UNL     1      -6.386  -4.625   0.045  0.00  0.00    +0.195 C 
ATOM     21  O   UNL     1      -6.801  -3.995  -0.910  0.00  0.00    -0.287 OA
BRANCH  20  25
ATOM     22  C   UNL     1      -5.111  -2.584   3.544  0.00  0.00    +0.121 A 
ATOM     23  C   UNL     1      -5.514  -1.860   2.428  0.00  0.00    +0.046 A 
ATOM     24  C   UNL     1      -5.929  -2.518   1.291  0.00  0.00    +0.015 A 
ATOM     25  C   UNL     1      -5.943  -3.916   1.261  0.00  0.00    +0.022 A 
ATOM     26  C   UNL     1      -5.536  -4.640   2.386  0.00  0.00    +0.015 A 
ATOM     27  C   UNL     1      -5.118  -3.974   3.517  0.00  0.00    +0.046 A 
BRANCH  22  28
ATOM     28  O   UNL     1      -4.704  -1.932   4.662  0.00  0.00    -0.492 OA
BRANCH  28  29
ATOM     29  C   UNL     1      -4.721  -0.503   4.623  0.00  0.00    +0.229 C 
BRANCH  29  31
ATOM     30  C   UNL     1      -4.250   1.579   5.920  0.00  0.00    +0.007 C 
ATOM     31  C   UNL     1      -4.232   0.050   5.963  0.00  0.00    +0.038 C 
ENDBRANCH  29  31
ENDBRANCH  28  29
ENDBRANCH  22  28
ENDBRANCH  20  25
ENDBRANCH   1  20
TORSDOF 8
