REMARK  Name = ZINC06565605
REMARK  4 active torsions:
REMARK  status: ('A' for Active; 'I' for Inactive)
REMARK    1  A    between atoms: C_6  and  C_7
REMARK    2  A    between atoms: C_16  and  C_18
REMARK    3  A    between atoms: C_18  and  S_19
REMARK    4  A    between atoms: S_19  and  C_20
REMARK                            x       y       z     vdW  Elec       q    Type
REMARK                         _______ _______ _______ _____ _____    ______ ____
ROOT
ATOM      1  C   UNL     1      -1.270  -0.765   0.011  0.00  0.00    +0.004 A 
ATOM      2  C   UNL     1      -2.240  -0.478   0.911  0.00  0.00    +0.056 A 
ATOM      3  S   UNL     1      -3.530  -1.642   0.514  0.00  0.00    -0.076 S 
ATOM      4  C   UNL     1      -2.744  -2.480  -0.838  0.00  0.00    +0.116 A 
ATOM      5  C   UNL     1      -1.503  -1.833  -0.954  0.00  0.00    +0.080 A 
ATOM      6  C   UNL     1      -0.647  -2.317  -1.994  0.00  0.00    +0.260 A 
ATOM      7  O   UNL     1       0.453  -1.823  -2.170  0.00  0.00    -0.267 OA
ATOM      8  N   UNL     1      -1.075  -3.327  -2.775  0.00  0.00    -0.310 N 
ATOM      9  H   UNL     1      -0.499  -3.659  -3.481  0.00  0.00    +0.170 HD
ATOM     10  C   UNL     1      -2.296  -3.890  -2.592  0.00  0.00    +0.121 A 
ATOM     11  N   UNL     1      -3.096  -3.477  -1.646  0.00  0.00    -0.226 NA
ENDROOT
BRANCH   1  17
ATOM     12  C   UNL     1      -0.017   1.390   0.010  0.00  0.00    +0.010 A 
ATOM     13  C   UNL     1       1.170   2.094   0.002  0.00  0.00    +0.020 A 
ATOM     14  C   UNL     1       2.378   1.418  -0.013  0.00  0.00    +0.041 A 
ATOM     15  C   UNL     1       2.403   0.034  -0.021  0.00  0.00    +0.020 A 
ATOM     16  C   UNL     1       1.222  -0.680  -0.013  0.00  0.00    +0.010 A 
ATOM     17  C   UNL     1       0.002  -0.004   0.002  0.00  0.00    -0.016 A 
ATOM     18 CL   UNL     1       3.868   2.309  -0.024  0.00  0.00    -0.084 Cl
ENDBRANCH   1  17
BRANCH  10  19
ATOM     19  C   UNL     1      -2.733  -5.019  -3.490  0.00  0.00    +0.151 C 
BRANCH  19  20
ATOM     20  S   UNL     1      -4.396  -5.564  -3.011  0.00  0.00    -0.077 S 
BRANCH  20  21
ATOM     21  C   UNL     1      -4.758  -6.869  -4.139  0.00  0.00    +0.210 A 
ATOM     22  N   UNL     1      -5.890  -7.580  -4.167  0.00  0.00    -0.188 NA
ATOM     23  H   UNL     1      -4.305  -8.862  -6.495  0.00  0.00    +0.192 HD
ATOM     24  C   UNL     1      -5.829  -8.472  -5.133  0.00  0.00    +0.209 A 
ATOM     25  N   UNL     1      -4.634  -8.341  -5.747  0.00  0.00    -0.246 N 
ATOM     26  N   UNL     1      -3.963  -7.296  -5.091  0.00  0.00    -0.144 NA
ATOM     27  N   UNL     1      -6.815  -9.385  -5.460  0.00  0.00    -0.328 N 
ATOM     28  H   UNL     1      -7.644  -9.404  -4.958  0.00  0.00    +0.145 HD
ATOM     29  H   UNL     1      -6.676 -10.006  -6.192  0.00  0.00    +0.145 HD
ENDBRANCH  20  21
ENDBRANCH  19  20
ENDBRANCH  10  19
TORSDOF 4
