REMARK  Name = ZINC47027445
REMARK  6 active torsions:
REMARK  status: ('A' for Active; 'I' for Inactive)
REMARK    1  A    between atoms: C_1  and  C_2
REMARK    2  A    between atoms: C_2  and  C_4
REMARK    3  A    between atoms: C_2  and  N_10
REMARK    4  A    between atoms: C_4  and  N_5
REMARK    5  A    between atoms: N_13  and  C_14
REMARK    6  A    between atoms: N_13  and  C_15
REMARK                            x       y       z     vdW  Elec       q    Type
REMARK                         _______ _______ _______ _____ _____    ______ ____
ROOT
ATOM      1  N   UNL     1      -1.372  -0.511   0.012  0.00  0.00    -0.295 N 
ATOM      2  C   UNL     1      -2.051  -0.643  -1.145  0.00  0.00    +0.303 C 
ATOM      3  O   UNL     1      -1.522  -0.341  -2.197  0.00  0.00    -0.253 OA
ATOM      4  N   UNL     1      -3.315  -1.109  -1.135  0.00  0.00    -0.284 N 
ATOM      5  C   UNL     1      -3.952  -1.473   0.133  0.00  0.00    +0.134 C 
ATOM      6  H   UNL     1      -1.794  -0.752   0.852  0.00  0.00    +0.151 HD
ENDROOT
BRANCH   4   7
ATOM      7  C   UNL     1      -4.053  -1.252  -2.393  0.00  0.00    +0.100 C 
ATOM      8  C   UNL     1      -5.336  -0.407  -2.341  0.00  0.00    +0.047 C 
ATOM      9  C   UNL     1      -6.271  -0.794  -3.513  0.00  0.00    +0.168 C 
ATOM     10  S   UNL     1      -5.822  -2.551  -3.823  0.00  0.00    -0.029 S 
ATOM     11  O   UNL     1      -5.284  -2.666  -5.133  0.00  0.00    -0.174 OA
ATOM     12  O   UNL     1      -6.910  -3.381  -3.439  0.00  0.00    -0.174 OA
ATOM     13  C   UNL     1      -4.460  -2.739  -2.596  0.00  0.00    +0.188 C 
ENDBRANCH   4   7
BRANCH   1  15
ATOM     14  C   UNL     1      -0.019   1.526   0.010  0.00  0.00    +0.029 C 
ATOM     15  C   UNL     1       0.002  -0.004   0.002  0.00  0.00    +0.091 C 
BRANCH  15  16
ATOM     16  C   UNL     1       0.742  -0.511   1.242  0.00  0.00    +0.144 C 
BRANCH  16  17
ATOM     17  N   UNL     1       0.866  -1.969   1.174  0.00  0.00    -0.337 N 
ATOM     18  C   UNL     1      -0.028  -2.884   1.661  0.00  0.00    +0.104 A 
ATOM     19  C   UNL     1       0.474  -4.103   1.387  0.00  0.00    +0.101 A 
ATOM     20  N   UNL     1       1.643  -3.937   0.750  0.00  0.00    -0.352 N 
ATOM     21  C   UNL     1       1.882  -2.662   0.614  0.00  0.00    +0.173 A 
ATOM     22  H   UNL     1       2.218  -4.653   0.436  0.00  0.00    +0.166 HD
ENDBRANCH  16  17
ENDBRANCH  15  16
ENDBRANCH   1  15
TORSDOF 4
