REMARK  Name = ZINC50275678
REMARK  7 active torsions:
REMARK  status: ('A' for Active; 'I' for Inactive)
REMARK    1  A    between atoms: C_1  and  C_2
REMARK    2  A    between atoms: C_2  and  C_4
REMARK    3  A    between atoms: C_2  and  N_10
REMARK    4  A    between atoms: N_6  and  C_7
REMARK    5  A    between atoms: C_7  and  C_8
REMARK    6  A    between atoms: C_7  and  C_9
REMARK    7  A    between atoms: C_13  and  C_16
REMARK                            x       y       z     vdW  Elec       q    Type
REMARK                         _______ _______ _______ _____ _____    ______ ____
ROOT
ATOM      1  N   UNL     1       0.803  -1.199   0.388  0.00  0.00    +0.387 N 
ATOM      2  C   UNL     1       1.042  -2.329  -0.517  0.00  0.00    -0.077 C 
ATOM      3  C   UNL     1       1.951  -3.352   0.169  0.00  0.00    -0.006 C 
ATOM      4  C   UNL     1       3.284  -2.687   0.520  0.00  0.00    +0.072 C 
ATOM      5  C   UNL     1       3.017  -1.465   1.404  0.00  0.00    -0.006 C 
ATOM      6  C   UNL     1       2.069  -0.512   0.672  0.00  0.00    -0.077 C 
ATOM      7  H   UNL     1       0.404  -1.539   1.250  0.00  0.00    -0.081 HD
ENDROOT
BRANCH   4   8
ATOM      8  C   UNL     1       4.155  -3.666   1.266  0.00  0.00    +0.219 C 
ATOM      9  O   UNL     1       3.711  -4.747   1.590  0.00  0.00    -0.275 OA
ATOM     10  N   UNL     1       5.426  -3.341   1.571  0.00  0.00    -0.301 N 
ATOM     11  C   UNL     1       6.212  -4.271   2.350  0.00  0.00    +0.108 C 
ATOM     12  C   UNL     1       6.021  -3.977   3.858  0.00  0.00    +0.019 C 
ATOM     13  C   UNL     1       6.695  -2.722   4.223  0.00  0.00    +0.002 C 
ATOM     14  C   UNL     1       6.139  -1.484   3.524  0.00  0.00    +0.002 C 
ATOM     15  C   UNL     1       6.797  -1.335   2.174  0.00  0.00    +0.019 C 
ATOM     16  C   UNL     1       5.961  -2.051   1.091  0.00  0.00    +0.108 C 
ENDBRANCH   4   8
BRANCH   1  18
ATOM     17  C   UNL     1      -0.357   0.938   0.684  0.00  0.00    -0.004 C 
ATOM     18  C   UNL     1      -0.132  -0.257  -0.244  0.00  0.00    +0.016 C 
BRANCH  18  19
ATOM     19  C   UNL     1      -1.446  -0.950  -0.500  0.00  0.00    +0.199 C 
ATOM     20  O   UNL     1      -1.796  -1.868   0.211  0.00  0.00    -0.278 OA
ATOM     21  N   UNL     1      -2.232  -0.548  -1.519  0.00  0.00    -0.314 N 
ATOM     22  H   UNL     1      -1.952   0.186  -2.087  0.00  0.00    +0.149 HD
BRANCH  21  23
ATOM     23  C   UNL     1      -3.509  -1.221  -1.767  0.00  0.00    +0.067 C 
ATOM     24  C   UNL     1      -4.456  -0.265  -2.495  0.00  0.00    +0.027 C 
ATOM     25  C   UNL     1      -3.272  -2.461  -2.632  0.00  0.00    +0.027 C 
ENDBRANCH  21  23
ENDBRANCH  18  19
ENDBRANCH   1  18
TORSDOF 4
