REMARK  Name = ZINC23619737
REMARK  4 active torsions:
REMARK  status: ('A' for Active; 'I' for Inactive)
REMARK    1  A    between atoms: C_3  and  N_13
REMARK    2  A    between atoms: C_5  and  N_7
REMARK    3  A    between atoms: C_16  and  N_19
REMARK    4  A    between atoms: N_19  and  C_20
REMARK                            x       y       z     vdW  Elec       q    Type
REMARK                         _______ _______ _______ _____ _____    ______ ____
ROOT
ATOM      1  N   UNL     1      -3.718   7.074   1.262  0.00  0.00    -0.330 N 
ATOM      2  C   UNL     1      -2.739   7.769   0.417  0.00  0.00    +0.103 C 
ATOM      3  C   UNL     1      -3.417   8.945  -0.289  0.00  0.00    +0.003 C 
ATOM      4  C   UNL     1      -3.987   9.904   0.760  0.00  0.00    -0.068 C 
ATOM      5  C   UNL     1      -4.967   9.143   1.657  0.00  0.00    +0.003 C 
ATOM      6  C   UNL     1      -4.244   7.962   2.307  0.00  0.00    +0.103 C 
ENDROOT
BRANCH   1   9
ATOM      7  C   UNL     1      -2.624   4.595   3.748  0.00  0.00    +0.004 A 
ATOM      8  C   UNL     1      -3.170   5.739   3.197  0.00  0.00    +0.023 A 
ATOM      9  C   UNL     1      -3.166   5.917   1.819  0.00  0.00    +0.031 A 
ATOM     10  C   UNL     1      -2.613   4.946   0.996  0.00  0.00    +0.046 A 
ATOM     11  C   UNL     1      -2.066   3.799   1.553  0.00  0.00    +0.038 A 
ATOM     12  C   UNL     1      -2.078   3.624   2.932  0.00  0.00    +0.023 A 
BRANCH  11  13
ATOM     13  N   UNL     1      -1.508   2.817   0.727  0.00  0.00    -0.271 N 
ATOM     14  C   UNL     1      -1.559   2.842  -0.740  0.00  0.00    +0.114 C 
ATOM     15  C   UNL     1      -1.226   1.401  -1.187  0.00  0.00    +0.029 C 
ATOM     16  C   UNL     1      -0.398   0.881   0.010  0.00  0.00    +0.098 C 
ATOM     17  C   UNL     1      -0.858   1.729   1.175  0.00  0.00    +0.220 C 
ATOM     18  O   UNL     1      -0.666   1.466   2.344  0.00  0.00    -0.275 OA
ENDBRANCH  11  13
ENDBRANCH   1   9
BRANCH   4  19
ATOM     19  N   UNL     1      -4.689  11.006   0.089  0.00  0.00    +0.384 N 
ATOM     20  H   UNL     1      -5.175  10.630  -0.824  0.00  0.00    -0.085 HD
ATOM     21  H   UNL     1      -5.452  11.421   0.765  0.00  0.00    -0.085 HD
BRANCH  19  22
ATOM     22  C   UNL     1      -3.756  12.078  -0.281  0.00  0.00    -0.045 C 
ATOM     23  C   UNL     1      -4.326  12.868  -1.464  0.00  0.00    -0.011 C 
ATOM     24  C   UNL     1      -3.382  14.029  -1.790  0.00  0.00    +0.026 C 
ATOM     25  C   UNL     1      -3.204  14.899  -0.543  0.00  0.00    +0.159 C 
ATOM     26  O   UNL     1      -2.700  14.096   0.527  0.00  0.00    -0.381 OA
ATOM     27  C   UNL     1      -3.563  13.023   0.908  0.00  0.00    +0.144 C 
ENDBRANCH  19  22
ENDBRANCH   4  19
TORSDOF 4
