REMARK  Name = ZINC00287509
REMARK  4 active torsions:
REMARK  status: ('A' for Active; 'I' for Inactive)
REMARK    1  A    between atoms: C_1  and  N_2
REMARK    2  A    between atoms: N_7  and  C_10
REMARK    3  A    between atoms: N_11  and  C_15
REMARK    4  A    between atoms: C_15  and  C_16
REMARK                            x       y       z     vdW  Elec       q    Type
REMARK                         _______ _______ _______ _____ _____    ______ ____
ROOT
ATOM      1  C   UNL     1       2.946  -3.173  -0.042  0.00  0.00    +0.155 C 
ATOM      2  N   UNL     1       1.482  -3.220  -0.028  0.00  0.00    -0.280 N 
ATOM      3  C   UNL     1       0.752  -2.042  -0.015  0.00  0.00    +0.170 A 
ATOM      4  C   UNL     1      -0.636  -2.115  -0.002  0.00  0.00    +0.153 A 
ATOM      5  C   UNL     1      -1.258  -3.376  -0.003  0.00  0.00    +0.282 A 
ATOM      6  O   UNL     1      -2.474  -3.463   0.008  0.00  0.00    -0.265 OA
ATOM      7  N   UNL     1      -0.494  -4.488  -0.016  0.00  0.00    -0.262 N 
ATOM      8  C   UNL     1       0.847  -4.407  -0.028  0.00  0.00    +0.333 A 
ATOM      9  O   UNL     1       1.503  -5.431  -0.040  0.00  0.00    -0.246 OA
ATOM     10  C   UNL     1      -1.137  -5.804  -0.017  0.00  0.00    +0.157 C 
ATOM     11  N   UNL     1      -1.096  -0.805   0.014  0.00  0.00    -0.303 N 
ATOM     12  C   UNL     1       0.002  -0.004   0.002  0.00  0.00    +0.196 A 
ATOM     13  N   UNL     1       1.088  -0.751  -0.012  0.00  0.00    -0.196 NA
ATOM     14  N   UNL     1      -0.017   1.372   0.010  0.00  0.00    -0.329 N 
ATOM     15  H   UNL     1       0.817   1.868   0.004  0.00  0.00    +0.145 HD
ATOM     16  H   UNL     1      -0.863   1.845   0.016  0.00  0.00    +0.145 HD
ENDROOT
BRANCH  11  17
ATOM     17  C   UNL     1      -2.495  -0.369   0.036  0.00  0.00    +0.152 C 
BRANCH  17  18
ATOM     18  C   UNL     1      -2.995  -0.213  -1.377  0.00  0.00    -0.013 C 
ATOM     19  C   UNL     1      -4.072  -0.852  -1.765  0.00  0.00    +0.005 C 
ENDBRANCH  17  18
ENDBRANCH  11  17
TORSDOF 2
