REMARK  Name = ZINC35488458
REMARK  5 active torsions:
REMARK  status: ('A' for Active; 'I' for Inactive)
REMARK    1  A    between atoms: C_1  and  N_2
REMARK    2  A    between atoms: N_2  and  C_3
REMARK    3  A    between atoms: C_3  and  C_5
REMARK    4  A    between atoms: C_3  and  C_12
REMARK    5  A    between atoms: C_5  and  C_6
REMARK                            x       y       z     vdW  Elec       q    Type
REMARK                         _______ _______ _______ _____ _____    ______ ____
ROOT
ATOM      1  C   UNL     1       0.752  -0.597   1.248  0.00  0.00    -0.041 C 
ENDROOT
BRANCH   1   2
ATOM      2  C   UNL     1       0.995  -2.080   1.139  0.00  0.00    -0.059 A 
ATOM      3  C   UNL     1       0.053  -2.890   0.527  0.00  0.00    +0.004 A 
ATOM      4  C   UNL     1       0.267  -4.250   0.422  0.00  0.00    +0.028 A 
ATOM      5  C   UNL     1       1.430  -4.807   0.932  0.00  0.00    +0.067 A 
ATOM      6  C   UNL     1       2.379  -3.991   1.549  0.00  0.00    +0.067 A 
ATOM      7  C   UNL     1       2.159  -2.625   1.645  0.00  0.00    +0.029 A 
ATOM      8  N   UNL     1       3.422  -4.821   1.953  0.00  0.00    -0.306 N 
ATOM      9  H   UNL     1       4.228  -4.538   2.412  0.00  0.00    +0.170 HD
ATOM     10  C   UNL     1       3.121  -6.084   1.598  0.00  0.00    +0.325 A 
ATOM     11  O   UNL     1       3.822  -7.057   1.805  0.00  0.00    -0.247 OA
ATOM     12  N   UNL     1       1.925  -6.108   0.980  0.00  0.00    -0.306 N 
ATOM     13  H   UNL     1       1.483  -6.897   0.628  0.00  0.00    +0.170 HD
ENDBRANCH   1   2
BRANCH   1  15
ATOM     14  C   UNL     1       1.096  -0.250  -1.100  0.00  0.00    -0.100 C 
ATOM     15  N   UNL     1       0.140  -0.108   0.005  0.00  0.00    +0.382 N 
ATOM     16  H   UNL     1      -0.109   0.864   0.113  0.00  0.00    -0.085 HD
ATOM     17  H   UNL     1      -0.689  -0.647  -0.196  0.00  0.00    -0.085 HD
ENDBRANCH   1  15
BRANCH   1  18
ATOM     18  C   UNL     1      -0.188  -0.319   2.423  0.00  0.00    -0.008 C 
BRANCH  18  19
ATOM     19  C   UNL     1      -0.323   1.192   2.622  0.00  0.00    -0.012 C 
ATOM     20  C   UNL     1       1.028   1.773   3.045  0.00  0.00    +0.003 C 
ATOM     21  C   UNL     1       0.892   3.284   3.243  0.00  0.00    +0.000 C 
ATOM     22  C   UNL     1      -0.146   3.565   4.331  0.00  0.00    +0.000 C 
ATOM     23  C   UNL     1      -1.497   2.983   3.909  0.00  0.00    +0.000 C 
ATOM     24  C   UNL     1      -1.362   1.472   3.710  0.00  0.00    +0.003 C 
ENDBRANCH  18  19
ENDBRANCH   1  18
TORSDOF 4
