REMARK  Name = ZINC42135337
REMARK  8 active torsions:
REMARK  status: ('A' for Active; 'I' for Inactive)
REMARK    1  A    between atoms: CD1_1  and  CG_2
REMARK    2  A    between atoms: CG_2  and  CD2_3
REMARK    3  A    between atoms: CG_2  and  CB_4
REMARK    4  A    between atoms: CB_4  and  CA_5
REMARK    5  A    between atoms: CA_5  and  C_7
REMARK    6  A    between atoms: CA_5  and  N_9
REMARK    7  A    between atoms: C_7  and  O_8
REMARK    8  A    between atoms: N_9  and  C_10
REMARK                            x       y       z     vdW  Elec       q    Type
REMARK                         _______ _______ _______ _____ _____    ______ ____
ROOT
ATOM      1  C   UNK A   0       1.195  -1.789   0.687  0.00  0.00    +0.049 C 
ATOM      2  C   UNK A   0       2.120  -2.437   1.691  0.00  0.00    -0.030 A 
ATOM      3  C   UNK A   0       1.963  -2.801   3.010  0.00  0.00    +0.022 A 
ATOM      4  C   UNK A   0       3.012  -3.391   3.693  0.00  0.00    +0.053 A 
ATOM      5  C   UNK A   0       4.218  -3.613   3.046  0.00  0.00    +0.139 A 
ATOM      6  C   UNK A   0       4.376  -3.248   1.723  0.00  0.00    +0.063 A 
ATOM      7  C   UNK A   0       3.323  -2.653   1.030  0.00  0.00    +0.038 A 
ATOM      8  N   UNK A   0       3.237  -2.203  -0.288  0.00  0.00    -0.286 N 
ATOM      9  C   UNK A   0       2.029  -1.682  -0.572  0.00  0.00    +0.208 C 
ATOM     10  O   UNK A   0       1.674  -1.216  -1.634  0.00  0.00    -0.277 OA
ATOM     11  F   UNK A   0       5.243  -4.188   3.712  0.00  0.00    -0.204 F 
ATOM     12 BR   UNK A   0       2.802  -3.892   5.504  0.00  0.00    -0.047 Br
ATOM     13  H   UNK A   0       3.966  -2.258  -0.926  0.00  0.00    +0.155 HD
ENDROOT
BRANCH   1  14
ATOM     14  N   LEU A   1       0.016  -2.634   0.453  0.00  0.00    +0.393 N 
ATOM     15  H1  LEU A   1      -0.472  -2.779   1.325  0.00  0.00    -0.084 HD
ATOM     16  H2  LEU A   1       0.309  -3.524   0.079  0.00  0.00    -0.084 HD
BRANCH  14  17
ATOM     17  CA  LEU A   1      -0.879  -1.971  -0.504  0.00  0.00    -0.044 C 
BRANCH  17  18
ATOM     18  CB  LEU A   1      -1.440  -0.693   0.122  0.00  0.00    -0.011 C 
BRANCH  18  20
ATOM     19  CD1 LEU A   1      -2.990   1.234  -0.232  0.00  0.00    +0.007 C 
ATOM     20  CG  LEU A   1      -2.314   0.036  -0.901  0.00  0.00    -0.019 C 
ATOM     21  CD2 LEU A   1      -1.442   0.523  -2.060  0.00  0.00    +0.007 C 
ENDBRANCH  18  20
ENDBRANCH  17  18
BRANCH  17  22
ATOM     22  C   LEU A   1      -2.031  -2.913  -0.861  0.00  0.00    +0.140 C 
BRANCH  22  23
ATOM     23  O   LEU A   1      -2.822  -3.160   0.303  0.00  0.00    -0.397 OA
ATOM     24  H   LEU A   1      -3.573  -3.750   0.151  0.00  0.00    +0.209 HD
ENDBRANCH  22  23
ENDBRANCH  17  22
ENDBRANCH  14  17
ENDBRANCH   1  14
TORSDOF 6
