REMARK  Name = ZINC43522197
REMARK  11 active torsions:
REMARK  status: ('A' for Active; 'I' for Inactive)
REMARK    1  A    between atoms: C_1  and  C_2
REMARK    2  A    between atoms: C_2  and  N_3
REMARK    3  A    between atoms: N_6  and  C_9
REMARK    4  A    between atoms: C_12  and  N_16
REMARK    5  A    between atoms: C_13  and  C_15
REMARK    6  A    between atoms: N_19  and  C_20
REMARK    7  A    between atoms: C_20  and  C_21
REMARK    8  A    between atoms: N_23  and  C_24
REMARK    9  A    between atoms: C_24  and  C_25
REMARK   10  A    between atoms: C_24  and  C_26
REMARK   11  A    between atoms: C_24  and  C_27
REMARK                            x       y       z     vdW  Elec       q    Type
REMARK                         _______ _______ _______ _____ _____    ______ ____
ROOT
ATOM      1  C   UNL     1      -4.311  -2.833  -1.724  0.00  0.00    +0.030 A 
ATOM      2  C   UNL     1      -5.113  -2.329  -2.740  0.00  0.00    +0.025 A 
ATOM      3  C   UNL     1      -5.889  -3.185  -3.497  0.00  0.00    +0.025 A 
ATOM      4  C   UNL     1      -5.867  -4.550  -3.241  0.00  0.00    +0.038 A 
ATOM      5  C   UNL     1      -5.066  -5.054  -2.226  0.00  0.00    -0.027 A 
ATOM      6  C   UNL     1      -4.285  -4.199  -1.474  0.00  0.00    +0.028 A 
ATOM      7  C   UNL     1      -5.044  -6.535  -1.949  0.00  0.00    +0.046 C 
ENDROOT
BRANCH   1  11
ATOM      8  N   UNL     1      -2.793  -0.168   1.053  0.00  0.00    +0.382 N 
ATOM      9  C   UNL     1      -3.058  -1.570   1.402  0.00  0.00    -0.060 C 
ATOM     10  C   UNL     1      -2.755  -2.462   0.193  0.00  0.00    +0.086 C 
ATOM     11  N   UNL     1      -3.525  -1.966  -0.958  0.00  0.00    -0.333 N 
ATOM     12  C   UNL     1      -3.446  -0.533  -1.280  0.00  0.00    +0.086 C 
ATOM     13  C   UNL     1      -3.717   0.268  -0.002  0.00  0.00    -0.060 C 
ATOM     14  H   UNL     1      -1.843  -0.080   0.725  0.00  0.00    -0.082 HD
BRANCH   8  16
ATOM     15  C   UNL     1      -1.934   0.303   3.297  0.00  0.00    -0.017 C 
ATOM     16  C   UNL     1      -2.979   0.673   2.243  0.00  0.00    -0.082 C 
ENDBRANCH   8  16
ENDBRANCH   1  11
BRANCH   4  17
ATOM     17  N   UNL     1      -6.655  -5.419  -4.010  0.00  0.00    -0.269 N 
ATOM     18  C   UNL     1      -7.774  -4.963  -4.608  0.00  0.00    +0.304 C 
ATOM     19  O   UNL     1      -8.062  -3.784  -4.541  0.00  0.00    -0.252 OA
ATOM     20  N   UNL     1      -8.573  -5.815  -5.280  0.00  0.00    -0.291 N 
ATOM     21  H   UNL     1      -6.395  -6.348  -4.110  0.00  0.00    +0.156 HD
ATOM     22  H   UNL     1      -8.343  -6.756  -5.333  0.00  0.00    +0.151 HD
BRANCH  20  23
ATOM     23  C   UNL     1      -9.789  -5.319  -5.930  0.00  0.00    +0.201 C 
BRANCH  23  24
ATOM     24  C   UNL     1     -10.498  -6.464  -6.607  0.00  0.00    +0.231 C 
ATOM     25  O   UNL     1     -10.034  -7.583  -6.552  0.00  0.00    -0.274 OA
ATOM     26  N   UNL     1     -11.649  -6.244  -7.274  0.00  0.00    -0.309 N 
ATOM     27  H   UNL     1     -12.020  -5.348  -7.318  0.00  0.00    +0.149 HD
BRANCH  26  28
ATOM     28  C   UNL     1     -12.338  -7.356  -7.933  0.00  0.00    +0.026 C 
ATOM     29  C   UNL     1     -12.711  -8.413  -6.891  0.00  0.00    +0.031 C 
ATOM     30  C   UNL     1     -13.608  -6.839  -8.611  0.00  0.00    +0.031 C 
ATOM     31  C   UNL     1     -11.415  -7.978  -8.983  0.00  0.00    +0.031 C 
ENDBRANCH  26  28
ENDBRANCH  23  24
ENDBRANCH  20  23
ENDBRANCH   4  17
TORSDOF 6
