REMARK  Name = ZINC49559524
REMARK  6 active torsions:
REMARK  status: ('A' for Active; 'I' for Inactive)
REMARK    1  A    between atoms: C_1  and  C_2
REMARK    2  A    between atoms: C_2  and  C_3
REMARK    3  A    between atoms: C_3  and  C_4
REMARK    4  A    between atoms: C_4  and  C_5
REMARK    5  A    between atoms: C_4  and  C_6
REMARK    6  A    between atoms: C_4  and  N_18
REMARK                            x       y       z     vdW  Elec       q    Type
REMARK                         _______ _______ _______ _____ _____    ______ ____
ROOT
ATOM      1  C   UNL     1       1.550  -2.512  -2.439  0.00  0.00    +0.207 C 
ATOM      2  O   UNL     1       1.677  -1.810  -3.420  0.00  0.00    -0.277 OA
ATOM      3  N   UNL     1       2.133  -3.727  -2.400  0.00  0.00    -0.266 N 
ATOM      4  C   UNL     1       2.880  -4.174  -3.483  0.00  0.00    +0.165 A 
ATOM      5  N   UNL     1       3.130  -3.554  -4.616  0.00  0.00    -0.229 NA
ATOM      6  C   UNL     1       3.869  -4.108  -5.573  0.00  0.00    +0.054 A 
ATOM      7  C   UNL     1       4.336  -5.351  -5.286  0.00  0.00    +0.014 A 
ATOM      8  S   UNL     1       3.693  -5.639  -3.661  0.00  0.00    -0.057 S 
ATOM      9  C   UNL     1       5.182  -6.227  -6.146  0.00  0.00    +0.044 C 
ATOM     10  C   UNL     1       5.155  -5.666  -7.577  0.00  0.00    +0.006 C 
ATOM     11  C   UNL     1       5.404  -4.156  -7.520  0.00  0.00    +0.006 C 
ATOM     12  C   UNL     1       4.196  -3.446  -6.904  0.00  0.00    +0.056 C 
ATOM     13  H   UNL     1       2.031  -4.288  -1.616  0.00  0.00    +0.157 HD
ENDROOT
BRANCH   1  14
ATOM     14  C   UNL     1       0.739  -2.027  -1.265  0.00  0.00    +0.005 C 
ATOM     15  C   UNL     1      -0.692  -2.556  -1.380  0.00  0.00    -0.001 C 
BRANCH  14  16
ATOM     16  N   UNL     1       1.343  -2.516  -0.018  0.00  0.00    +0.387 N 
ATOM     17  H   UNL     1       0.800  -2.191   0.768  0.00  0.00    -0.089 HD
ATOM     18  H   UNL     1       1.357  -3.525  -0.024  0.00  0.00    -0.089 HD
ATOM     19  H   UNL     1       2.287  -2.167   0.058  0.00  0.00    -0.089 HD
ENDBRANCH  14  16
BRANCH  14  20
ATOM     20  C   UNL     1       0.718  -0.497  -1.257  0.00  0.00    -0.004 C 
BRANCH  20  22
ATOM     21  C   UNL     1      -0.019   1.526   0.010  0.00  0.00    +0.004 C 
ATOM     22  C   UNL     1       0.002  -0.004   0.002  0.00  0.00    -0.004 C 
ENDBRANCH  20  22
ENDBRANCH  14  20
ENDBRANCH   1  14
TORSDOF 4
