REMARK  Name = ZINC64293136
REMARK  11 active torsions:
REMARK  status: ('A' for Active; 'I' for Inactive)
REMARK    1  A    between atoms: C_1  and  C_2
REMARK    2  A    between atoms: C_2  and  C_4
REMARK    3  A    between atoms: C_2  and  N_14
REMARK    4  A    between atoms: C_15  and  C_17
REMARK    5  A    between atoms: C_17  and  C_19
REMARK    6  A    between atoms: C_17  and  N_20
REMARK    7  A    between atoms: C_21  and  O_23
REMARK    8  A    between atoms: O_23  and  C_24
REMARK    9  A    between atoms: C_24  and  C_25
REMARK   10  A    between atoms: C_24  and  C_26
REMARK   11  A    between atoms: C_24  and  C_27
REMARK                            x       y       z     vdW  Elec       q    Type
REMARK                         _______ _______ _______ _____ _____    ______ ____
ROOT
ATOM      1  N   UNL     1       0.711  -0.489   1.189  0.00  0.00    -0.307 N 
ATOM      2  C   UNL     1       0.051  -0.633   2.355  0.00  0.00    +0.234 C 
ATOM      3  O   UNL     1      -1.129  -0.361   2.423  0.00  0.00    -0.274 OA
ATOM      4  H   UNL     1       1.654  -0.707   1.135  0.00  0.00    +0.149 HD
ENDROOT
BRANCH   1   6
ATOM      5  C   UNL     1      -0.019   1.526   0.010  0.00  0.00    +0.033 C 
ATOM      6  C   UNL     1       0.002  -0.004   0.002  0.00  0.00    +0.100 C 
BRANCH   6   7
ATOM      7  C   UNL     1       0.707  -0.490  -1.238  0.00  0.00    -0.026 A 
ATOM      8  C   UNL     1       2.165  -0.503  -1.263  0.00  0.00    +0.007 A 
ATOM      9  C   UNL     1       2.859  -0.926  -2.342  0.00  0.00    +0.025 A 
ATOM     10  C   UNL     1       2.139  -1.388  -3.526  0.00  0.00    +0.056 A 
ATOM     11  N   UNL     1       2.491  -1.848  -4.700  0.00  0.00    -0.268 N 
ATOM     12  C   UNL     1       1.351  -2.126  -5.417  0.00  0.00    +0.308 C 
ATOM     13  O   UNL     1       1.328  -2.568  -6.547  0.00  0.00    -0.252 OA
ATOM     14  N   UNL     1       0.241  -1.829  -4.662  0.00  0.00    -0.268 N 
ATOM     15  C   UNL     1       0.641  -1.375  -3.501  0.00  0.00    +0.056 A 
ATOM     16  C   UNL     1      -0.030  -0.906  -2.290  0.00  0.00    +0.030 A 
ATOM     17  H   UNL     1       3.401  -1.971  -5.012  0.00  0.00    +0.156 HD
ATOM     18  H   UNL     1      -0.681  -1.936  -4.942  0.00  0.00    +0.156 HD
ENDBRANCH   6   7
ENDBRANCH   1   6
BRANCH   2  19
ATOM     19  C   UNL     1       0.780  -1.133   3.576  0.00  0.00    +0.159 C 
ATOM     20  C   UNL     1       1.924  -0.175   3.914  0.00  0.00    +0.038 C 
BRANCH  19  21
ATOM     21  N   UNL     1      -0.150  -1.201   4.706  0.00  0.00    -0.270 N 
ATOM     22  C   UNL     1       0.089  -2.051   5.725  0.00  0.00    +0.401 C 
ATOM     23  O   UNL     1       1.075  -2.760   5.706  0.00  0.00    -0.226 OA
ATOM     24  H   UNL     1      -0.937  -0.634   4.721  0.00  0.00    +0.153 HD
BRANCH  22  25
ATOM     25  O   UNL     1      -0.766  -2.113   6.763  0.00  0.00    -0.445 OA
BRANCH  25  26
ATOM     26  C   UNL     1      -0.451  -3.036   7.808  0.00  0.00    +0.107 C 
ATOM     27  C   UNL     1       0.907  -2.677   8.414  0.00  0.00    +0.055 C 
ATOM     28  C   UNL     1      -1.528  -2.966   8.892  0.00  0.00    +0.055 C 
ATOM     29  C   UNL     1      -0.395  -4.454   7.236  0.00  0.00    +0.055 C 
ENDBRANCH  25  26
ENDBRANCH  22  25
ENDBRANCH  19  21
ENDBRANCH   2  19
TORSDOF 6
