REMARK  Name = ZINC04069806
REMARK  7 active torsions:
REMARK  status: ('A' for Active; 'I' for Inactive)
REMARK    1  A    between atoms: C_1  and  C_2
REMARK    2  A    between atoms: C_2  and  C_3
REMARK    3  A    between atoms: N_5  and  C_6
REMARK    4  A    between atoms: C_6  and  C_8
REMARK    5  A    between atoms: C_6  and  N_37
REMARK    6  A    between atoms: C_13  and  C_20
REMARK    7  A    between atoms: C_16  and  C_19
REMARK                            x       y       z     vdW  Elec       q    Type
REMARK                         _______ _______ _______ _____ _____    ______ ____
ROOT
ATOM      1  C   UNL     1      -0.013   1.086   0.008  0.00  0.00    +0.071 C 
ENDROOT
BRANCH   1   9
ATOM      2  C   UNL     1       2.186   0.753   0.968  0.00  0.00    -0.044 C 
ATOM      3  C   UNL     1       3.684   0.952   0.721  0.00  0.00    +0.099 C 
ATOM      4  O   UNL     1       3.948   2.343   0.521  0.00  0.00    -0.378 OA
ATOM      5  C   UNL     1       3.228   2.915  -0.574  0.00  0.00    +0.099 C 
ATOM      6  C   UNL     1       1.726   2.736  -0.339  0.00  0.00    -0.044 C 
ATOM      7  C   UNL     1       3.555   4.406  -0.677  0.00  0.00    +0.036 C 
ATOM      8  C   UNL     1       4.104   0.169  -0.525  0.00  0.00    +0.036 C 
ATOM      9  N   UNL     1       1.439   1.294  -0.186  0.00  0.00    +0.398 N 
ATOM     10  H   UNL     1       1.736   0.802  -1.037  0.00  0.00    -0.079 HD
ENDBRANCH   1   9
BRANCH   1  13
ATOM     11  C   UNL     1      -0.844   1.609   2.238  0.00  0.00    +0.211 C 
ATOM     12  O   UNL     1      -0.684   0.444   2.538  0.00  0.00    -0.276 OA
ATOM     13  N   UNL     1      -0.538   2.032   0.996  0.00  0.00    -0.325 N 
ATOM     14  H   UNL     1      -0.665   2.963   0.756  0.00  0.00    +0.147 HD
BRANCH  11  16
ATOM     15  C   UNL     1      -1.646   1.850   4.572  0.00  0.00    +0.013 C 
ATOM     16  C   UNL     1      -1.383   2.582   3.254  0.00  0.00    +0.092 C 
ENDBRANCH  11  16
ENDBRANCH   1  13
BRANCH   1  17
ATOM     17  C   UNL     1      -0.724   1.298  -1.330  0.00  0.00    +0.194 C 
ATOM     18 CL   UNL     1       0.083   0.309  -2.603  0.00  0.00    -0.084 Cl
ATOM     19 CL   UNL     1      -2.449   0.794  -1.180  0.00  0.00    -0.084 Cl
ATOM     20 CL   UNL     1      -0.645   3.042  -1.782  0.00  0.00    -0.084 Cl
ENDBRANCH   1  17
TORSDOF 4
