REMARK  Name = ZINC02719617
REMARK  4 active torsions:
REMARK  status: ('A' for Active; 'I' for Inactive)
REMARK    1  A    between atoms: C_7  and  C_11
REMARK    2  A    between atoms: C_11  and  C_12
REMARK    3  A    between atoms: C_12  and  N_13
REMARK    4  A    between atoms: N_13  and  C_14
REMARK                            x       y       z     vdW  Elec       q    Type
REMARK                         _______ _______ _______ _____ _____    ______ ____
ROOT
ATOM      1  N   UNL     1       0.835  -4.983  -2.406  0.00  0.00    -0.327 N 
ATOM      2  H   UNL     1       0.388  -4.463  -3.092  0.00  0.00    +0.148 HD
ENDROOT
BRANCH   1   3
ATOM      3  C   UNL     1       0.988  -6.350  -2.563  0.00  0.00    +0.150 A 
ATOM      4  C   UNL     1       0.502  -7.001  -3.710  0.00  0.00    +0.147 A 
ATOM      5  N   UNL     1      -0.150  -6.601  -4.828  0.00  0.00    -0.231 NA
ATOM      6  C   UNL     1      -0.372  -7.631  -5.592  0.00  0.00    +0.198 A 
ATOM      7  N   UNL     1       0.126  -8.758  -5.009  0.00  0.00    -0.329 N 
ATOM      8  C   UNL     1       0.688  -8.390  -3.813  0.00  0.00    +0.163 A 
ATOM      9  N   UNL     1       1.311  -9.033  -2.831  0.00  0.00    -0.216 NA
ATOM     10  C   UNL     1       1.750  -8.381  -1.775  0.00  0.00    +0.225 A 
ATOM     11  N   UNL     1       1.604  -7.076  -1.636  0.00  0.00    -0.219 NA
ATOM     12  H   UNL     1       0.090  -9.657  -5.374  0.00  0.00    +0.168 HD
ENDBRANCH   1   3
BRANCH   1  13
ATOM     13  C   UNL     1       1.349  -4.322  -1.204  0.00  0.00    +0.104 C 
BRANCH  13  14
ATOM     14  C   UNL     1       1.051  -2.823  -1.280  0.00  0.00    +0.032 C 
BRANCH  14  21
ATOM     15  C   UNL     1      -0.017   1.381   0.010  0.00  0.00    +0.000 A 
ATOM     16  C   UNL     1       1.173   2.088   0.002  0.00  0.00    +0.002 A 
ATOM     17  C   UNL     1       2.381   1.425  -0.013  0.00  0.00    +0.028 A 
ATOM     18  C   UNL     1       2.412   0.026  -0.021  0.00  0.00    +0.067 A 
ATOM     19  C   UNL     1       1.201  -0.671  -0.013  0.00  0.00    -0.014 A 
ATOM     20  C   UNL     1       0.002  -0.004   0.002  0.00  0.00    +0.006 A 
ATOM     21  C   UNL     1       1.587  -2.133  -0.025  0.00  0.00    +0.064 C 
ATOM     22  C   UNL     1       3.102  -2.090  -0.039  0.00  0.00    +0.092 C 
ATOM     23  N   UNL     1       3.458  -0.855  -0.035  0.00  0.00    -0.259 NA
ENDBRANCH  14  21
ENDBRANCH  13  14
ENDBRANCH   1  13
TORSDOF 4
