REMARK  Name = ZINC54402745
REMARK  8 active torsions:
REMARK  status: ('A' for Active; 'I' for Inactive)
REMARK    1  A    between atoms: C_1  and  C_2
REMARK    2  A    between atoms: C_2  and  C_3
REMARK    3  A    between atoms: C_3  and  C_4
REMARK    4  A    between atoms: C_3  and  C_5
REMARK    5  A    between atoms: C_3  and  C_6
REMARK    6  A    between atoms: C_6  and  C_8
REMARK    7  A    between atoms: C_6  and  N_20
REMARK    8  A    between atoms: N_20  and  C_21
REMARK                            x       y       z     vdW  Elec       q    Type
REMARK                         _______ _______ _______ _____ _____    ______ ____
ROOT
ATOM      1  C   UNL     1      -2.960  -2.362   0.004  0.00  0.00    -0.061 A 
ATOM      2  C   UNL     1      -3.615  -2.297  -1.212  0.00  0.00    +0.004 A 
ATOM      3  C   UNL     1      -4.958  -2.579  -1.275  0.00  0.00    +0.024 A 
ATOM      4  C   UNL     1      -5.689  -2.929  -0.126  0.00  0.00    +0.037 A 
ATOM      5  C   UNL     1      -5.032  -2.988   1.084  0.00  0.00    -0.026 A 
ATOM      6  C   UNL     1      -3.665  -2.710   1.133  0.00  0.00    +0.007 A 
ATOM      7  C   UNL     1      -5.667  -3.329   2.393  0.00  0.00    +0.037 C 
ATOM      8  C   UNL     1      -7.069  -2.840   2.584  0.00  0.00    +0.014 C 
ATOM      9  C   UNL     1      -8.099  -3.669   1.857  0.00  0.00    +0.096 C 
ATOM     10  C   UNL     1      -8.068  -3.433   0.390  0.00  0.00    +0.217 C 
ATOM     11  O   UNL     1      -9.136  -3.460  -0.184  0.00  0.00    -0.275 OA
ATOM     12  N   UNL     1      -7.020  -3.199  -0.347  0.00  0.00    -0.285 N 
ATOM     13  H   UNL     1      -7.231  -3.221  -1.294  0.00  0.00    +0.155 HD
ENDROOT
BRANCH   1  14
ATOM     14  C   UNL     1      -1.486  -2.061   0.091  0.00  0.00    -0.036 C 
BRANCH  14  15
ATOM     15  N   UNL     1      -0.800  -2.635  -1.074  0.00  0.00    +0.382 N 
ATOM     16  C   UNL     1      -0.883  -4.100  -1.020  0.00  0.00    -0.100 C 
ATOM     17  H   UNL     1      -1.240  -2.304  -1.920  0.00  0.00    -0.085 HD
ATOM     18  H   UNL     1       0.169  -2.352  -1.067  0.00  0.00    -0.085 HD
ENDBRANCH  14  15
BRANCH  14  19
ATOM     19  C   UNL     1      -1.276  -0.546   0.112  0.00  0.00    -0.044 C 
ATOM     20  C   UNL     1       0.207  -0.240   0.335  0.00  0.00    +0.009 C 
ATOM     21  C   UNL     1      -2.099   0.067   1.247  0.00  0.00    +0.009 C 
BRANCH  19  23
ATOM     22  C   UNL     1      -1.416   1.548  -1.243  0.00  0.00    +0.004 C 
ATOM     23  C   UNL     1      -1.725   0.050  -1.223  0.00  0.00    +0.002 C 
ENDBRANCH  19  23
ENDBRANCH  14  19
ENDBRANCH   1  14
TORSDOF 4
