REMARK  Name = ZINC54903784
REMARK  9 active torsions:
REMARK  status: ('A' for Active; 'I' for Inactive)
REMARK    1  A    between atoms: C_1  and  C_2
REMARK    2  A    between atoms: C_2  and  N_3
REMARK    3  A    between atoms: N_3  and  C_4
REMARK    4  A    between atoms: C_7  and  C_22
REMARK    5  A    between atoms: C_7  and  C_23
REMARK    6  A    between atoms: N_14  and  C_15
REMARK    7  A    between atoms: N_14  and  C_16
REMARK    8  A    between atoms: C_16  and  C_18
REMARK    9  A    between atoms: C_16  and  C_19
REMARK                            x       y       z     vdW  Elec       q    Type
REMARK                         _______ _______ _______ _____ _____    ______ ____
ROOT
ATOM      1  C   UNL     1      -1.469  -1.978   0.047  0.00  0.00    -0.032 C 
ATOM      2  C   UNL     1      -2.935  -2.409  -0.122  0.00  0.00    -0.004 C 
ATOM      3  C   UNL     1      -3.058  -3.892   0.237  0.00  0.00    -0.031 C 
ATOM      4  C   UNL     1      -2.867  -4.087   1.743  0.00  0.00    +0.060 C 
ATOM      5  C   UNL     1      -1.566  -3.415   2.160  0.00  0.00    +0.027 A 
ATOM      6  C   UNL     1      -0.984  -2.482   1.364  0.00  0.00    -0.002 A 
ATOM      7  S   UNL     1       0.462  -2.035   2.283  0.00  0.00    -0.061 S 
ATOM      8  C   UNL     1       0.214  -3.062   3.596  0.00  0.00    +0.139 A 
ATOM      9  N   UNL     1      -0.912  -3.673   3.290  0.00  0.00    -0.341 N 
ATOM     10  N   UNL     1       1.003  -3.224   4.724  0.00  0.00    -0.311 N 
ATOM     11  C   UNL     1       0.609  -4.179   5.763  0.00  0.00    +0.131 C 
ATOM     12  C   UNL     1      -1.991  -4.688  -0.517  0.00  0.00    +0.011 C 
ATOM     13  C   UNL     1      -4.444  -4.399  -0.167  0.00  0.00    +0.011 C 
ATOM     14  H   UNL     1      -1.274  -4.330   3.905  0.00  0.00    +0.167 HD
ENDROOT
BRANCH   1  15
ATOM     15  N   UNL     1      -1.376  -0.512   0.012  0.00  0.00    +0.384 N 
ATOM     16  H   UNL     1      -0.434  -0.230   0.236  0.00  0.00    -0.085 HD
ATOM     17  H   UNL     1      -2.014  -0.119   0.688  0.00  0.00    -0.085 HD
BRANCH  15  19
ATOM     18  C   UNL     1      -1.505   1.481  -1.404  0.00  0.00    -0.017 C 
ATOM     19  C   UNL     1      -1.726  -0.031  -1.331  0.00  0.00    -0.085 C 
ENDBRANCH  15  19
ENDBRANCH   1  15
BRANCH  10  20
ATOM     20  C   UNL     1       2.231  -2.439   4.878  0.00  0.00    +0.075 C 
ATOM     21  C   UNL     1       2.137  -1.589   6.147  0.00  0.00    +0.028 C 
BRANCH  20  22
ATOM     22  C   UNL     1       3.430  -3.384   4.985  0.00  0.00    +0.009 C 
ATOM     23  C   UNL     1       4.149  -3.463   6.333  0.00  0.00    +0.005 C 
ATOM     24  C   UNL     1       4.814  -2.753   5.152  0.00  0.00    +0.005 C 
ENDBRANCH  20  22
ENDBRANCH  10  20
TORSDOF 4
