REMARK  Name = ZINC20205072
REMARK  5 active torsions:
REMARK  status: ('A' for Active; 'I' for Inactive)
REMARK    1  A    between atoms: C_1  and  N_2
REMARK    2  A    between atoms: C_4  and  C_11
REMARK    3  A    between atoms: N_7  and  C_10
REMARK    4  A    between atoms: C_11  and  N_12
REMARK    5  A    between atoms: N_12  and  C_13
REMARK                            x       y       z     vdW  Elec       q    Type
REMARK                         _______ _______ _______ _____ _____    ______ ____
ROOT
ATOM      1  N   UNL     1      -1.818   2.302  -1.357  0.00  0.00    +0.386 N 
ATOM      2  H   UNL     1      -1.082   2.862  -1.952  0.00  0.00    -0.085 HD
ATOM      3  H   UNL     1      -1.967   1.306  -1.800  0.00  0.00    -0.085 HD
ENDROOT
BRANCH   1   4
ATOM      4  C   UNL     1      -3.096   3.026  -1.386  0.00  0.00    -0.037 C 
ATOM      5  C   UNL     1      -3.277   3.700  -2.752  0.00  0.00    -0.011 C 
ATOM      6  C   UNL     1      -4.711   4.224  -2.875  0.00  0.00    +0.006 C 
ATOM      7  C   UNL     1      -5.680   3.043  -2.997  0.00  0.00    +0.074 C 
ATOM      8  C   UNL     1      -5.378   2.062  -1.891  0.00  0.00    +0.106 A 
ATOM      9  C   UNL     1      -4.232   2.059  -1.179  0.00  0.00    -0.020 A 
ATOM     10  C   UNL     1      -4.324   1.008  -0.248  0.00  0.00    +0.043 A 
ATOM     11  C   UNL     1      -5.523   0.424  -0.442  0.00  0.00    +0.195 A 
ATOM     12  O   UNL     1      -6.155   1.069  -1.440  0.00  0.00    -0.468 OA
ENDBRANCH   1   4
BRANCH   1  13
ATOM     13  C   UNL     1      -1.327   2.157   0.020  0.00  0.00    -0.039 C 
BRANCH  13  17
ATOM     14  C   UNL     1       3.603   2.122  -0.021  0.00  0.00    +0.153 C 
ATOM     15  N   UNL     1       2.333   1.392  -0.013  0.00  0.00    -0.303 N 
ATOM     16  C   UNL     1       1.153   2.084   0.002  0.00  0.00    +0.097 A 
ATOM     17  C   UNL     1      -0.017   1.411   0.010  0.00  0.00    +0.016 A 
ATOM     18  C   UNL     1       0.002  -0.004   0.002  0.00  0.00    +0.258 A 
ATOM     19  O   UNL     1      -1.041  -0.633   0.008  0.00  0.00    -0.267 OA
ATOM     20  N   UNL     1       1.186  -0.650  -0.013  0.00  0.00    -0.264 N 
ATOM     21  C   UNL     1       2.338   0.046  -0.020  0.00  0.00    +0.331 A 
ATOM     22  O   UNL     1       3.398  -0.549  -0.033  0.00  0.00    -0.246 OA
ATOM     23  C   UNL     1       1.218  -2.114  -0.020  0.00  0.00    +0.157 C 
ENDBRANCH  13  17
ENDBRANCH   1  13
TORSDOF 3
