REMARK  Name = ZINC20465634
REMARK  9 active torsions:
REMARK  status: ('A' for Active; 'I' for Inactive)
REMARK    1  A    between atoms: C_1  and  C_2
REMARK    2  A    between atoms: C_2  and  C_3
REMARK    3  A    between atoms: C_2  and  N_4
REMARK    4  A    between atoms: N_7  and  C_8
REMARK    5  A    between atoms: C_8  and  C_9
REMARK    6  A    between atoms: C_11  and  N_21
REMARK    7  A    between atoms: C_13  and  O_20
REMARK    8  A    between atoms: C_15  and  C_18
REMARK    9  A    between atoms: C_18  and  O_19
REMARK                            x       y       z     vdW  Elec       q    Type
REMARK                         _______ _______ _______ _____ _____    ______ ____
ROOT
ATOM      1  C   UNL     1      -3.814   0.978   4.888  0.00  0.00    +0.155 C 
ATOM      2  C   UNL     1      -5.240   0.472   5.179  0.00  0.00    +0.118 C 
ATOM      3  C   UNL     1      -6.148   1.680   4.841  0.00  0.00    +0.165 C 
ATOM      4  C   UNL     1      -5.154   2.866   4.925  0.00  0.00    +0.174 C 
ATOM      5  O   UNL     1      -3.931   2.320   4.386  0.00  0.00    -0.365 OA
ENDROOT
BRANCH   2   6
ATOM      6  N   UNL     1      -5.565  -0.672   4.318  0.00  0.00    -0.292 NA
ATOM      7  C   UNL     1      -7.020  -0.851   4.207  0.00  0.00    +0.104 C 
ATOM      8  C   UNL     1      -7.317  -2.001   3.241  0.00  0.00    +0.122 C 
ATOM      9  N   UNL     1      -6.675  -3.228   3.732  0.00  0.00    -0.314 N 
ATOM     10  C   UNL     1      -5.221  -3.049   3.843  0.00  0.00    +0.122 C 
ATOM     11  C   UNL     1      -4.923  -1.900   4.809  0.00  0.00    +0.104 C 
ATOM     12  C   UNL     1      -6.983  -4.311   2.917  0.00  0.00    +0.099 A 
ATOM     13  C   UNL     1      -8.314  -4.648   2.691  0.00  0.00    +0.042 A 
ATOM     14  C   UNL     1      -8.606  -5.725   1.874  0.00  0.00    +0.005 A 
ATOM     15  C   UNL     1      -7.553  -6.439   1.317  0.00  0.00    +0.018 A 
ATOM     16  C   UNL     1      -6.256  -6.052   1.587  0.00  0.00    +0.084 A 
ATOM     17  N   UNL     1      -6.007  -5.017   2.367  0.00  0.00    -0.350 N 
ATOM     18  H   UNL     1      -4.958  -4.745   2.555  0.00  0.00    +0.166 HD
ENDBRANCH   2   6
BRANCH   3  19
ATOM     19  O   UNL     1      -6.687   1.559   3.523  0.00  0.00    -0.388 OA
ATOM     20  H   UNL     1      -7.356   2.339   3.129  0.00  0.00    +0.210 HD
ENDBRANCH   3  19
BRANCH   1  21
ATOM     21  C   UNL     1      -3.150   0.086   3.837  0.00  0.00    +0.139 C 
BRANCH  21  25
ATOM     22  N   UNL     1      -0.023   0.696   2.001  0.00  0.00    -0.297 N 
ATOM     23  C   UNL     1      -1.159   0.112   2.433  0.00  0.00    +0.300 C 
ATOM     24  O   UNL     1      -1.500  -0.964   1.980  0.00  0.00    -0.253 OA
ATOM     25  N   UNL     1      -1.916   0.721   3.367  0.00  0.00    -0.297 N 
ATOM     26  H   UNL     1       0.285   1.669   2.411  0.00  0.00    +0.150 HD
ATOM     27  H   UNL     1      -1.607   1.694   3.777  0.00  0.00    +0.150 HD
BRANCH  22  29
ATOM     28  C   UNL     1       2.247   0.514   1.110  0.00  0.00    +0.027 C 
ATOM     29  C   UNL     1       0.800   0.034   0.985  0.00  0.00    +0.068 C 
ATOM     30  C   UNL     1       0.267   0.378  -0.407  0.00  0.00    +0.027 C 
ENDBRANCH  22  29
ENDBRANCH  21  25
ENDBRANCH   1  21
BRANCH   4  31
ATOM     31  C   UNL     1      -5.642   4.039   4.072  0.00  0.00    +0.190 C 
BRANCH  31  32
ATOM     32  O   UNL     1      -4.716   5.122   4.177  0.00  0.00    -0.392 OA
ATOM     33  H   UNL     1      -4.900   6.059   3.629  0.00  0.00    +0.210 HD
ENDBRANCH  31  32
ENDBRANCH   4  31
TORSDOF 7
