REMARK  Name = ZINC56882687
REMARK  7 active torsions:
REMARK  status: ('A' for Active; 'I' for Inactive)
REMARK    1  A    between atoms: C_1  and  C_2
REMARK    2  A    between atoms: C_3  and  C_8
REMARK    3  A    between atoms: N_6  and  C_7
REMARK    4  A    between atoms: C_8  and  C_10
REMARK    5  A    between atoms: C_8  and  N_11
REMARK    6  A    between atoms: C_12  and  C_14
REMARK    7  A    between atoms: C_15  and  C_16
REMARK                            x       y       z     vdW  Elec       q    Type
REMARK                         _______ _______ _______ _____ _____    ______ ____
ROOT
ATOM      1  N   UNL     1      -0.579  -1.372  -3.378  0.00  0.00    -0.305 N 
ATOM      2  C   UNL     1      -1.156  -1.045  -4.552  0.00  0.00    +0.237 C 
ATOM      3  O   UNL     1      -1.201   0.119  -4.904  0.00  0.00    -0.271 OA
ATOM      4  H   UNL     1      -0.543  -2.300  -3.098  0.00  0.00    +0.150 HD
ENDROOT
BRANCH   1   5
ATOM      5  C   UNL     1      -0.006  -0.327  -2.527  0.00  0.00    +0.104 C 
ATOM      6  C   UNL     1       1.425  -0.028  -2.980  0.00  0.00    +0.033 C 
BRANCH   5   9
ATOM      7  C   UNL     1      -0.018   1.503   0.010  0.00  0.00    +0.065 C 
ATOM      8  C   UNL     1       0.002  -0.004   0.002  0.00  0.00    +0.041 A 
ATOM      9  C   UNL     1       0.008  -0.796  -1.095  0.00  0.00    +0.013 A 
ATOM     10  C   UNL     1       0.028  -2.127  -0.666  0.00  0.00    +0.140 A 
ATOM     11  N   UNL     1       0.035  -2.134   0.643  0.00  0.00    -0.179 NA
ATOM     12  N   UNL     1       0.024  -0.805   1.088  0.00  0.00    -0.271 N 
ATOM     13  C   UNL     1       0.031  -0.364   2.485  0.00  0.00    +0.172 C 
ENDBRANCH   5   9
ENDBRANCH   1   5
BRANCH   2  14
ATOM     14  C   UNL     1      -1.728  -2.089  -5.401  0.00  0.00    +0.070 C 
ATOM     15  C   UNL     1      -2.307  -1.761  -6.579  0.00  0.00    +0.040 C 
BRANCH  15  16
ATOM     16  C   UNL     1      -2.880  -2.806  -7.429  0.00  0.00    +0.101 A 
ATOM     17  N   UNL     1      -2.938  -4.119  -7.226  0.00  0.00    -0.248 NA
ATOM     18  C   UNL     1      -3.507  -4.865  -8.139  0.00  0.00    +0.119 A 
ATOM     19  C   UNL     1      -4.018  -4.290  -9.260  0.00  0.00    +0.067 A 
ATOM     20  S   UNL     1      -3.693  -2.657  -9.011  0.00  0.00    -0.076 S 
ENDBRANCH  15  16
ENDBRANCH   2  14
TORSDOF 4
