REMARK  Name = ZINC63807427
REMARK  8 active torsions:
REMARK  status: ('A' for Active; 'I' for Inactive)
REMARK    1  A    between atoms: C_1  and  C_2
REMARK    2  A    between atoms: C_4  and  C_19
REMARK    3  A    between atoms: C_7  and  N_10
REMARK    4  A    between atoms: N_10  and  C_11
REMARK    5  A    between atoms: C_16  and  C_18
REMARK    6  A    between atoms: N_21  and  C_22
REMARK    7  A    between atoms: C_22  and  C_23
REMARK    8  A    between atoms: C_23  and  C_24
REMARK                            x       y       z     vdW  Elec       q    Type
REMARK                         _______ _______ _______ _____ _____    ______ ____
ROOT
ATOM      1  C   UNL     1      -0.397   0.696  -0.216  0.00  0.00    +0.025 C 
ATOM      2  C   UNL     1      -0.260  -0.802   0.063  0.00  0.00    +0.075 C 
ATOM      3  C   UNL     1      -1.670  -1.383   0.331  0.00  0.00    +0.152 C 
ATOM      4  S   UNL     1      -1.269  -2.598   1.664  0.00  0.00    -0.108 S 
ATOM      5  C   UNL     1       0.167  -1.673   2.366  0.00  0.00    +0.205 C 
ATOM      6  N   UNL     1       0.681  -0.984   1.161  0.00  0.00    -0.286 NA
ATOM      7  H   UNL     1       1.534  -1.416   0.838  0.00  0.00    +0.125 HD
ENDROOT
BRANCH   5   8
ATOM      8  N   UNL     1      -0.272  -0.707   3.376  0.00  0.00    -0.274 N 
ATOM      9  C   UNL     1       0.630  -0.134   4.197  0.00  0.00    +0.214 C 
ATOM     10  O   UNL     1       0.259   0.596   5.092  0.00  0.00    -0.276 OA
ATOM     11  C   UNL     1       2.101  -0.399   4.003  0.00  0.00    +0.109 C 
BRANCH   8  12
ATOM     12  C   UNL     1      -1.691  -0.363   3.494  0.00  0.00    +0.078 C 
ATOM     13  C   UNL     1      -1.883   1.158   3.326  0.00  0.00    +0.022 C 
ATOM     14  C   UNL     1      -3.010   1.512   4.328  0.00  0.00    +0.002 C 
ATOM     15  C   UNL     1      -2.690   0.600   5.538  0.00  0.00    +0.002 C 
ATOM     16  C   UNL     1      -2.204  -0.718   4.900  0.00  0.00    +0.022 C 
ENDBRANCH   8  12
ENDBRANCH   5   8
BRANCH   3  17
ATOM     17  C   UNL     1      -2.219  -2.072  -0.892  0.00  0.00    +0.228 C 
ATOM     18  O   UNL     1      -1.474  -2.674  -1.635  0.00  0.00    -0.275 OA
ATOM     19  N   UNL     1      -3.539  -2.019  -1.160  0.00  0.00    -0.314 N 
ATOM     20  H   UNL     1      -4.136  -1.537  -0.565  0.00  0.00    +0.149 HD
BRANCH  19  21
ATOM     21  C   UNL     1      -4.073  -2.688  -2.348  0.00  0.00    +0.110 C 
BRANCH  21  22
ATOM     22  C   UNL     1      -5.587  -2.475  -2.417  0.00  0.00    +0.073 C 
BRANCH  22  23
ATOM     23  C   UNL     1      -6.136  -3.164  -3.639  0.00  0.00    +0.035 A 
ATOM     24  H   UNL     1      -7.261  -5.501  -5.372  0.00  0.00    +0.166 HD
ATOM     25  C   UNL     1      -6.491  -4.460  -3.725  0.00  0.00    +0.105 A 
ATOM     26  N   UNL     1      -6.936  -4.665  -5.003  0.00  0.00    -0.352 N 
ATOM     27  C   UNL     1      -6.837  -3.487  -5.655  0.00  0.00    +0.171 A 
ATOM     28  N   UNL     1      -6.363  -2.592  -4.832  0.00  0.00    -0.350 N 
ATOM     29  H   UNL     1      -6.198  -1.661  -5.048  0.00  0.00    +0.166 HD
ENDBRANCH  22  23
ENDBRANCH  21  22
ENDBRANCH  19  21
ENDBRANCH   3  17
TORSDOF 6
