REMARK  Name = ZINC19594253
REMARK  7 active torsions:
REMARK  status: ('A' for Active; 'I' for Inactive)
REMARK    1  A    between atoms: C_1  and  O_2
REMARK    2  A    between atoms: O_2  and  C_3
REMARK    3  A    between atoms: C_3  and  C_4
REMARK    4  A    between atoms: C_5  and  C_23
REMARK    5  A    between atoms: C_10  and  O_13
REMARK    6  A    between atoms: C_26  and  O_29
REMARK    7  A    between atoms: O_29  and  C_30
REMARK                            x       y       z     vdW  Elec       q    Type
REMARK                         _______ _______ _______ _____ _____    ______ ____
ROOT
ATOM      1  C   UNL     1       0.633  -2.085   1.012  0.00  0.00    +0.099 A 
ATOM      2  C   UNL     1      -0.374  -2.919   1.528  0.00  0.00    +0.048 A 
ATOM      3  C   UNL     1      -0.032  -4.223   1.211  0.00  0.00    +0.138 A 
ATOM      4  N   UNL     1      -0.646  -5.430   1.461  0.00  0.00    -0.297 N 
ATOM      5  C   UNL     1      -0.075  -6.591   1.024  0.00  0.00    +0.065 C 
ATOM      6  C   UNL     1       1.131  -6.547   0.323  0.00  0.00    +0.092 C 
ATOM      7  C   UNL     1       1.733  -5.332   0.078  0.00  0.00    +0.217 C 
ATOM      8  N   UNL     1       1.148  -4.174   0.525  0.00  0.00    -0.185 N 
ATOM      9  N   UNL     1       1.527  -2.830   0.416  0.00  0.00    -0.164 NA
ATOM     10  C   UNL     1      -0.726  -7.880   1.290  0.00  0.00    +0.110 C 
ATOM     11  C   UNL     1      -1.935  -8.086   1.973  0.00  0.00    +0.002 C 
ATOM     12  C   UNL     1      -2.135  -9.437   1.972  0.00  0.00    +0.040 C 
ATOM     13  N   UNL     1      -1.109  -9.990   1.331  0.00  0.00    -0.281 N 
ATOM     14  H   UNL     1      -0.999 -10.943   1.185  0.00  0.00    +0.189 HD
ATOM     15  N   UNL     1      -0.288  -9.090   0.925  0.00  0.00    -0.172 NA
ATOM     16  C   UNL     1      -3.425  -9.767   2.690  0.00  0.00    +0.055 C 
ATOM     17  C   UNL     1      -3.769  -8.500   3.502  0.00  0.00    +0.011 C 
ATOM     18  C   UNL     1      -3.067  -7.390   2.689  0.00  0.00    +0.039 C 
ATOM     19  H   UNL     1      -1.484  -5.456   1.949  0.00  0.00    +0.154 HD
ENDROOT
BRANCH   2  20
ATOM     20  C   UNL     1      -1.581  -2.483   2.272  0.00  0.00    -0.013 A 
ATOM     21  C   UNL     1      -1.744  -2.842   3.609  0.00  0.00    +0.012 A 
ATOM     22  C   UNL     1      -2.868  -2.435   4.299  0.00  0.00    +0.046 A 
ATOM     23  C   UNL     1      -3.835  -1.669   3.663  0.00  0.00    +0.120 A 
ATOM     24  C   UNL     1      -3.675  -1.310   2.332  0.00  0.00    +0.046 A 
ATOM     25  C   UNL     1      -2.551  -1.708   1.638  0.00  0.00    +0.012 A 
BRANCH  23  26
ATOM     26  O   UNL     1      -4.941  -1.270   4.345  0.00  0.00    -0.495 OA
ATOM     27  C   UNL     1      -5.896  -0.484   3.630  0.00  0.00    +0.277 C 
ENDBRANCH  23  26
ENDBRANCH   2  20
BRANCH   7  28
ATOM     28  O   UNL     1       2.899  -5.282  -0.599  0.00  0.00    -0.492 OA
ATOM     29  H   UNL     1       3.233  -6.147  -0.872  0.00  0.00    +0.294 HD
ENDBRANCH   7  28
BRANCH   1  30
ATOM     30  C   UNL     1       0.673  -0.582   1.123  0.00  0.00    +0.217 C 
BRANCH  30  32
ATOM     31  C   UNL     1      -0.017   1.425   0.010  0.00  0.00    +0.194 C 
ATOM     32  O   UNL     1       0.002  -0.004   0.002  0.00  0.00    -0.377 OA
ENDBRANCH  30  32
ENDBRANCH   1  30
TORSDOF 5
