REMARK  Name = ZINC59249287
REMARK  5 active torsions:
REMARK  status: ('A' for Active; 'I' for Inactive)
REMARK    1  A    between atoms: C_4  and  C_7
REMARK    2  A    between atoms: C_10  and  C_15
REMARK    3  A    between atoms: N_17  and  C_18
REMARK    4  A    between atoms: C_18  and  C_19
REMARK    5  A    between atoms: C_19  and  C_20
REMARK                            x       y       z     vdW  Elec       q    Type
REMARK                         _______ _______ _______ _____ _____    ______ ____
ROOT
ATOM      1  C   UNL     1       7.373  -2.764  -0.088  0.00  0.00    +0.249 C 
ATOM      2  O   UNL     1       8.425  -2.159  -0.184  0.00  0.00    -0.270 OA
ATOM      3  N   UNL     1       7.376  -4.109   0.001  0.00  0.00    -0.311 N 
ATOM      4  H   UNL     1       6.537  -4.596   0.004  0.00  0.00    +0.149 HD
ENDROOT
BRANCH   1   8
ATOM      5  C   UNL     1       3.695  -0.682  -0.032  0.00  0.00    +0.049 A 
ATOM      6  C   UNL     1       4.876   0.036  -0.018  0.00  0.00    +0.027 A 
ATOM      7  C   UNL     1       6.093  -0.632  -0.036  0.00  0.00    +0.020 A 
ATOM      8  C   UNL     1       6.101  -2.028  -0.068  0.00  0.00    +0.101 A 
ATOM      9  C   UNL     1       4.868  -2.727  -0.082  0.00  0.00    +0.261 A 
ATOM     10  O   UNL     1       4.859  -3.946  -0.109  0.00  0.00    -0.267 OA
ATOM     11  N   UNL     1       3.707  -2.047  -0.058  0.00  0.00    -0.321 N 
ATOM     12  H   UNL     1       2.868  -2.533  -0.064  0.00  0.00    +0.169 HD
BRANCH   5  16
ATOM     13  C   UNL     1      -0.016   1.381   0.021  0.00  0.00    +0.000 A 
ATOM     14  C   UNL     1       1.169   2.095   0.030  0.00  0.00    +0.001 A 
ATOM     15  C   UNL     1       2.378   1.431   0.013  0.00  0.00    +0.010 A 
ATOM     16  C   UNL     1       2.405   0.035  -0.013  0.00  0.00    -0.002 A 
ATOM     17  C   UNL     1       1.204  -0.680  -0.022  0.00  0.00    +0.010 A 
ATOM     18  C   UNL     1       0.002  -0.003  -0.005  0.00  0.00    +0.001 A 
ENDBRANCH   5  16
ENDBRANCH   1   8
BRANCH   3  19
ATOM     19  C   UNL     1       8.645  -4.835   0.094  0.00  0.00    +0.109 C 
BRANCH  19  20
ATOM     20  C   UNL     1       8.368  -6.337   0.184  0.00  0.00    +0.056 C 
BRANCH  20  21
ATOM     21  C   UNL     1       9.673  -7.083   0.279  0.00  0.00    -0.021 A 
ATOM     22  C   UNL     1      10.359  -7.626  -0.739  0.00  0.00    +0.087 A 
ATOM     23  N   UNL     1      11.497  -8.223  -0.270  0.00  0.00    -0.360 N 
ATOM     24  H   UNL     1      12.153  -8.682  -0.818  0.00  0.00    +0.165 HD
ATOM     25  C   UNL     1      11.574  -8.075   1.097  0.00  0.00    +0.047 A 
ATOM     26  C   UNL     1      10.438  -7.349   1.500  0.00  0.00    +0.003 A 
ATOM     27  C   UNL     1      10.250  -7.041   2.849  0.00  0.00    +0.010 A 
ATOM     28  C   UNL     1      11.174  -7.444   3.772  0.00  0.00    +0.001 A 
ATOM     29  C   UNL     1      12.299  -8.156   3.379  0.00  0.00    +0.002 A 
ATOM     30  C   UNL     1      12.499  -8.479   2.054  0.00  0.00    +0.026 A 
ENDBRANCH  20  21
ENDBRANCH  19  20
ENDBRANCH   3  19
TORSDOF 5
