REMARK  Name = ZINC15017020
REMARK  7 active torsions:
REMARK  status: ('A' for Active; 'I' for Inactive)
REMARK    1  A    between atoms: C_1  and  S_2
REMARK    2  A    between atoms: S_2  and  C_3
REMARK    3  A    between atoms: C_6  and  C_9
REMARK    4  A    between atoms: C_11  and  C_29
REMARK    5  A    between atoms: C_13  and  C_22
REMARK    6  A    between atoms: C_13  and  O_28
REMARK    7  A    between atoms: C_17  and  C_19
REMARK                            x       y       z     vdW  Elec       q    Type
REMARK                         _______ _______ _______ _____ _____    ______ ____
ROOT
ATOM      1  C   UNL     1       0.160  -4.420   0.063  0.00  0.00    +0.061 C 
ATOM      2  C   UNL     1       1.085  -5.078   1.094  0.00  0.00    +0.155 C 
ATOM      3  C   UNL     1       0.907  -6.595   1.013  0.00  0.00    +0.175 C 
ATOM      4  N   UNL     1       1.034  -7.050  -0.366  0.00  0.00    -0.282 N 
ATOM      5  C   UNL     1       0.907  -6.256  -1.430  0.00  0.00    +0.228 C 
ATOM      6  O   UNL     1       0.992  -6.756  -2.532  0.00  0.00    -0.275 OA
ATOM      7  C   UNL     1       0.663  -4.777  -1.337  0.00  0.00    +0.169 C 
ATOM      8  H   UNL     1       1.223  -7.989  -0.519  0.00  0.00    +0.152 HD
ENDROOT
BRANCH   1  12
ATOM      9  C   UNL     1       0.223  -0.177   0.575  0.00  0.00    +0.008 A 
ATOM     10  C   UNL     1       0.750  -1.005   1.558  0.00  0.00    +0.015 A 
ATOM     11  C   UNL     1       0.724  -2.375   1.392  0.00  0.00    +0.005 A 
ATOM     12  C   UNL     1       0.182  -2.924   0.243  0.00  0.00    -0.042 A 
ATOM     13  C   UNL     1      -0.339  -2.102  -0.740  0.00  0.00    +0.005 A 
ATOM     14  C   UNL     1      -0.320  -0.731  -0.578  0.00  0.00    +0.015 A 
BRANCH   9  16
ATOM     15  C   UNL     1       1.036   1.808   2.403  0.00  0.00    +0.090 C 
ATOM     16  S   UNL     1       0.249   1.573   0.785  0.00  0.00    -0.129 S 
ENDBRANCH   9  16
ENDBRANCH   1  12
BRANCH   3  17
ATOM     17  C   UNL     1      -0.456  -6.966   1.536  0.00  0.00    +0.003 A 
ATOM     18  C   UNL     1      -0.654  -7.132   2.894  0.00  0.00    +0.008 A 
ATOM     19  C   UNL     1      -1.905  -7.468   3.374  0.00  0.00    +0.000 A 
ATOM     20  C   UNL     1      -2.958  -7.647   2.496  0.00  0.00    +0.000 A 
ATOM     21  C   UNL     1      -2.759  -7.487   1.138  0.00  0.00    +0.000 A 
ATOM     22  C   UNL     1      -1.508  -7.146   0.657  0.00  0.00    +0.008 A 
ENDBRANCH   3  17
BRANCH   7  23
ATOM     23  C   UNL     1       1.949  -4.040  -1.610  0.00  0.00    +0.223 C 
ATOM     24  O   UNL     1       2.129  -2.939  -1.136  0.00  0.00    -0.275 OA
ATOM     25  N   UNL     1       2.899  -4.605  -2.382  0.00  0.00    -0.329 N 
ATOM     26  H   UNL     1       2.755  -5.486  -2.762  0.00  0.00    +0.145 HD
ATOM     27  H   UNL     1       3.726  -4.130  -2.558  0.00  0.00    +0.145 HD
ENDBRANCH   7  23
BRANCH   3  28
ATOM     28  O   UNL     1       1.909  -7.227   1.813  0.00  0.00    -0.366 OA
ATOM     29  H   UNL     1       1.852  -8.192   1.823  0.00  0.00    +0.212 HD
ENDBRANCH   3  28
BRANCH   2  30
ATOM     30  C   UNL     1       2.483  -4.727   0.797  0.00  0.00    +0.071 C 
ATOM     31  N   UNL     1       3.562  -4.457   0.568  0.00  0.00    -0.196 NA
ENDBRANCH   2  30
TORSDOF 6
