REMARK  Name = ZINC35379254
REMARK  7 active torsions:
REMARK  status: ('A' for Active; 'I' for Inactive)
REMARK    1  A    between atoms: C_1  and  C_2
REMARK    2  A    between atoms: C_2  and  C_3
REMARK    3  A    between atoms: C_10  and  C_34
REMARK    4  A    between atoms: C_11  and  S_15
REMARK    5  A    between atoms: S_15  and  N_18
REMARK    6  A    between atoms: C_22  and  C_25
REMARK    7  A    between atoms: N_27  and  C_28
REMARK                            x       y       z     vdW  Elec       q    Type
REMARK                         _______ _______ _______ _____ _____    ______ ____
ROOT
ATOM      1  S   UNL     1      -1.005  -0.319  -6.310  0.00  0.00    +0.061 S 
ATOM      2  O   UNL     1      -1.660  -1.046  -7.341  0.00  0.00    -0.153 OA
ATOM      3  O   UNL     1      -1.344   1.024  -5.993  0.00  0.00    -0.153 OA
ENDROOT
BRANCH   1  11
ATOM      4  C   UNL     1      -3.344  -4.819  -2.572  0.00  0.00    +0.259 C 
ATOM      5  C   UNL     1      -2.532  -4.518  -1.337  0.00  0.00    +0.258 C 
ATOM      6  O   UNL     1      -2.617  -5.235  -0.362  0.00  0.00    -0.271 OA
ATOM      7  N   UNL     1      -1.709  -3.448  -1.321  0.00  0.00    -0.280 N 
ATOM      8  C   UNL     1      -1.527  -2.708  -2.498  0.00  0.00    +0.076 A 
ATOM      9  C   UNL     1      -0.878  -1.484  -2.466  0.00  0.00    +0.032 A 
ATOM     10  C   UNL     1      -0.719  -0.759  -3.633  0.00  0.00    -0.022 A 
ATOM     11  C   UNL     1      -1.206  -1.252  -4.830  0.00  0.00    +0.112 A 
ATOM     12  C   UNL     1      -1.850  -2.475  -4.868  0.00  0.00    +0.076 A 
ATOM     13  C   UNL     1      -2.008  -3.209  -3.705  0.00  0.00    +0.145 A 
ATOM     14  O   UNL     1      -2.611  -4.427  -3.735  0.00  0.00    -0.478 OA
ATOM     15  C   UNL     1      -0.013   0.572  -3.601  0.00  0.00    +0.046 C 
ATOM     16  H   UNL     1      -1.249  -3.195  -0.506  0.00  0.00    +0.155 HD
BRANCH   4  18
ATOM     17  C   UNL     1      -5.540  -4.445  -3.702  0.00  0.00    +0.008 C 
ATOM     18  C   UNL     1      -4.662  -4.044  -2.515  0.00  0.00    +0.051 C 
ENDBRANCH   4  18
ENDBRANCH   1  11
BRANCH   1  19
ATOM     19  N   UNL     1       0.609  -0.326  -6.678  0.00  0.00    -0.176 NA
ATOM     20  C   UNL     1       1.485   0.765  -6.228  0.00  0.00    +0.109 C 
ATOM     21  C   UNL     1       2.672   0.163  -5.470  0.00  0.00    +0.018 C 
ATOM     22  C   UNL     1       3.366  -0.873  -6.356  0.00  0.00    +0.015 C 
ATOM     23  C   UNL     1       2.385  -2.000  -6.690  0.00  0.00    +0.091 C 
ATOM     24  C   UNL     1       1.195  -1.426  -7.457  0.00  0.00    +0.122 C 
BRANCH  23  25
ATOM     25  C   UNL     1       3.078  -3.037  -7.535  0.00  0.00    +0.218 C 
ATOM     26  O   UNL     1       2.661  -3.292  -8.645  0.00  0.00    -0.275 OA
ATOM     27  N   UNL     1       4.162  -3.680  -7.058  0.00  0.00    -0.312 N 
ATOM     28  H   UNL     1       4.496  -3.476  -6.171  0.00  0.00    +0.149 HD
BRANCH  27  29
ATOM     29  C   UNL     1       4.836  -4.688  -7.880  0.00  0.00    +0.073 C 
ATOM     30  C   UNL     1       4.139  -6.039  -7.705  0.00  0.00    +0.022 C 
ATOM     31  C   UNL     1       4.843  -7.091  -8.563  0.00  0.00    +0.002 C 
ATOM     32  C   UNL     1       6.305  -7.211  -8.127  0.00  0.00    +0.000 C 
ATOM     33  C   UNL     1       7.002  -5.861  -8.302  0.00  0.00    +0.002 C 
ATOM     34  C   UNL     1       6.298  -4.808  -7.444  0.00  0.00    +0.022 C 
ENDBRANCH  27  29
ENDBRANCH  23  25
ENDBRANCH   1  19
TORSDOF 5
