REMARK  Name = ZINC61542277
REMARK  4 active torsions:
REMARK  status: ('A' for Active; 'I' for Inactive)
REMARK    1  A    between atoms: C_1  and  N_2
REMARK    2  A    between atoms: N_2  and  C_3
REMARK    3  A    between atoms: N_11  and  C_12
REMARK    4  A    between atoms: C_18  and  O_20
REMARK                            x       y       z     vdW  Elec       q    Type
REMARK                         _______ _______ _______ _____ _____    ______ ____
ROOT
ATOM      1  C   UNL     1      -0.018   1.461   0.010  0.00  0.00    +0.132 C 
ATOM      2  N   UNL     1       0.002  -0.004   0.002  0.00  0.00    -0.306 N 
ATOM      3  C   UNL     1       0.024  -0.743   1.267  0.00  0.00    +0.132 C 
ATOM      4  C   UNL     1       0.000  -0.688  -1.197  0.00  0.00    +0.223 A 
ATOM      5  N   UNL     1       0.013  -2.016  -1.205  0.00  0.00    -0.181 NA
ATOM      6  C   UNL     1       0.010  -2.671  -2.361  0.00  0.00    +0.221 A 
ATOM      7  N   UNL     1      -0.005  -1.994  -3.507  0.00  0.00    -0.184 NA
ATOM      8  C   UNL     1      -0.017  -0.671  -3.496  0.00  0.00    +0.229 A 
ATOM      9  N   UNL     1      -0.020  -0.017  -2.346  0.00  0.00    -0.184 NA
ATOM     10 CL   UNL     1      -0.036   0.207  -4.993  0.00  0.00    -0.041 Cl
ATOM     11  N   UNL     1       0.023  -4.051  -2.374  0.00  0.00    -0.308 N 
ATOM     12  H   UNL     1       0.035  -4.543  -1.538  0.00  0.00    +0.149 HD
ENDROOT
BRANCH  11  13
ATOM     13  C   UNL     1       0.021  -4.771  -3.649  0.00  0.00    +0.102 C 
ATOM     14  C   UNL     1      -1.419  -4.927  -4.144  0.00  0.00    +0.025 C 
ATOM     15  C   UNL     1      -2.231  -5.713  -3.112  0.00  0.00    +0.002 C 
ATOM     16  C   UNL     1      -1.606  -7.096  -2.918  0.00  0.00    +0.003 C 
ATOM     17  C   UNL     1      -0.167  -6.940  -2.423  0.00  0.00    +0.033 C 
ATOM     18  C   UNL     1       0.645  -6.154  -3.454  0.00  0.00    +0.135 C 
BRANCH  18  19
ATOM     19  O   UNL     1       1.990  -6.009  -2.992  0.00  0.00    -0.390 OA
ATOM     20  H   UNL     1       2.448  -6.848  -2.847  0.00  0.00    +0.210 HD
ENDBRANCH  18  19
ENDBRANCH  11  13
TORSDOF 2
