REMARK  Name = ZINC64995392
REMARK  11 active torsions:
REMARK  status: ('A' for Active; 'I' for Inactive)
REMARK    1  A    between atoms: C_1  and  C_2
REMARK    2  A    between atoms: C_2  and  C_3
REMARK    3  A    between atoms: C_3  and  C_4
REMARK    4  A    between atoms: C_4  and  N_5
REMARK    5  A    between atoms: C_6  and  C_8
REMARK    6  A    between atoms: C_11  and  C_24
REMARK    7  A    between atoms: N_12  and  C_14
REMARK    8  A    between atoms: C_14  and  C_15
REMARK    9  A    between atoms: N_20  and  C_21
REMARK   10  A    between atoms: C_21  and  C_22
REMARK   11  A    between atoms: C_21  and  C_23
REMARK                            x       y       z     vdW  Elec       q    Type
REMARK                         _______ _______ _______ _____ _____    ______ ____
ROOT
ATOM      1  C   UNL     1       2.269  -4.308  -3.932  0.00  0.00    +0.058 C 
ATOM      2  C   UNL     1       1.526  -3.806  -5.173  0.00  0.00    +0.009 C 
ATOM      3  C   UNL     1       2.204  -4.369  -6.425  0.00  0.00    -0.015 C 
ATOM      4  C   UNL     1       2.228  -5.897  -6.342  0.00  0.00    -0.071 C 
ATOM      5  N   UNL     1       2.975  -6.314  -5.149  0.00  0.00    +0.388 N 
ATOM      6  C   UNL     1       2.290  -5.838  -3.941  0.00  0.00    -0.065 C 
ATOM      7  C   UNL     1       2.905  -6.465  -7.591  0.00  0.00    -0.013 C 
ATOM      8  H   UNL     1       3.905  -5.925  -5.183  0.00  0.00    -0.081 HD
ENDROOT
BRANCH   1  10
ATOM      9  N   UNL     1       1.425  -2.500  -2.470  0.00  0.00    -0.315 N 
ATOM     10  C   UNL     1       1.564  -3.822  -2.692  0.00  0.00    +0.214 C 
ATOM     11  O   UNL     1       1.121  -4.620  -1.894  0.00  0.00    -0.276 OA
ATOM     12  H   UNL     1       1.779  -1.861  -3.109  0.00  0.00    +0.149 HD
BRANCH   9  13
ATOM     13  C   UNL     1       0.739  -2.027  -1.265  0.00  0.00    +0.104 C 
BRANCH  13  14
ATOM     14  C   UNL     1       0.718  -0.497  -1.257  0.00  0.00    +0.018 C 
BRANCH  14  16
ATOM     15  C   UNL     1      -0.019   1.526   0.010  0.00  0.00    +0.004 C 
ATOM     16  C   UNL     1       0.002  -0.004   0.002  0.00  0.00    -0.002 C 
ENDBRANCH  14  16
ENDBRANCH  13  14
ENDBRANCH   9  13
ENDBRANCH   1  10
BRANCH   5  17
ATOM     17  C   UNL     1       3.061  -7.780  -5.116  0.00  0.00    +0.019 C 
BRANCH  17  18
ATOM     18  C   UNL     1       3.931  -8.206  -3.961  0.00  0.00    +0.204 C 
ATOM     19  O   UNL     1       4.429  -7.370  -3.237  0.00  0.00    -0.277 OA
ATOM     20  N   UNL     1       4.154  -9.515  -3.732  0.00  0.00    -0.242 N 
ATOM     21  C   UNL     1       4.932  -9.895  -2.699  0.00  0.00    +0.306 C 
ATOM     22  O   UNL     1       5.431  -9.058  -1.973  0.00  0.00    -0.252 OA
ATOM     23  N   UNL     1       5.155 -11.204  -2.470  0.00  0.00    -0.297 N 
ATOM     24  H   UNL     1       3.756 -10.183  -4.311  0.00  0.00    +0.159 HD
ATOM     25  H   UNL     1       4.757 -11.873  -3.049  0.00  0.00    +0.151 HD
BRANCH  23  26
ATOM     26  C   UNL     1       6.001 -11.618  -1.347  0.00  0.00    +0.068 C 
ATOM     27  C   UNL     1       5.157 -11.690  -0.073  0.00  0.00    +0.027 C 
ATOM     28  C   UNL     1       6.600 -12.995  -1.640  0.00  0.00    +0.027 C 
ENDBRANCH  23  26
ENDBRANCH  17  18
ENDBRANCH   5  17
TORSDOF 7
