REMARK  Name = ZINC40701875
REMARK  7 active torsions:
REMARK  status: ('A' for Active; 'I' for Inactive)
REMARK    1  A    between atoms: C_1  and  N_2
REMARK    2  A    between atoms: C_5  and  N_8
REMARK    3  A    between atoms: N_8  and  C_9
REMARK    4  A    between atoms: C_11  and  N_27
REMARK    5  A    between atoms: C_12  and  N_16
REMARK    6  A    between atoms: N_16  and  C_17
REMARK    7  A    between atoms: C_22  and  C_23
REMARK                            x       y       z     vdW  Elec       q    Type
REMARK                         _______ _______ _______ _____ _____    ______ ____
ROOT
ATOM      1  N   UNL     1       1.228  -4.025  -0.088  0.00  0.00    -0.314 N 
ATOM      2  C   UNL     1       0.623  -3.608  -1.356  0.00  0.00    +0.131 C 
ATOM      3  C   UNL     1       2.375  -4.811  -0.091  0.00  0.00    +0.147 A 
ATOM      4  C   UNL     1       2.283  -6.200  -0.200  0.00  0.00    +0.106 A 
ATOM      5  C   UNL     1       3.465  -6.941  -0.198  0.00  0.00    +0.149 A 
ATOM      6  N   UNL     1       4.628  -6.300  -0.093  0.00  0.00    -0.219 NA
ATOM      7  C   UNL     1       4.671  -4.987   0.007  0.00  0.00    +0.225 A 
ATOM      8  N   UNL     1       3.578  -4.250   0.004  0.00  0.00    -0.219 NA
ENDROOT
BRANCH   1  13
ATOM      9  C   UNL     1      -2.168  -1.699   3.768  0.00  0.00    -0.096 C 
ATOM     10  N   UNL     1      -1.474  -2.173   2.563  0.00  0.00    +0.378 N 
ATOM     11  C   UNL     1      -0.098  -1.663   2.560  0.00  0.00    -0.077 C 
ATOM     12  C   UNL     1       0.605  -2.086   1.268  0.00  0.00    +0.004 C 
ATOM     13  C   UNL     1       0.625  -3.615   1.182  0.00  0.00    +0.071 C 
ATOM     14  C   UNL     1      -0.811  -4.140   1.260  0.00  0.00    +0.004 C 
ATOM     15  C   UNL     1      -1.461  -3.641   2.553  0.00  0.00    -0.077 C 
ATOM     16  H   UNL     1      -1.957  -1.836   1.743  0.00  0.00    -0.082 HD
ENDBRANCH   1  13
BRANCH   4  17
ATOM     17  N   UNL     1       1.034  -6.834  -0.308  0.00  0.00    -0.353 N 
ATOM     18  H   UNL     1       0.226  -6.303  -0.381  0.00  0.00    +0.143 HD
ATOM     19  H   UNL     1       0.981  -7.802  -0.309  0.00  0.00    +0.143 HD
ENDBRANCH   4  17
BRANCH   5  20
ATOM     20  N   UNL     1       3.430  -8.327  -0.303  0.00  0.00    -0.297 N 
ATOM     21  H   UNL     1       2.579  -8.793  -0.291  0.00  0.00    +0.154 HD
BRANCH  20  22
ATOM     22  C   UNL     1       4.620  -9.049  -0.426  0.00  0.00    +0.044 A 
ATOM     23  C   UNL     1       5.755  -8.438  -0.946  0.00  0.00    +0.024 A 
ATOM     24  C   UNL     1       6.929  -9.154  -1.066  0.00  0.00    +0.002 A 
ATOM     25  C   UNL     1       6.977 -10.479  -0.669  0.00  0.00    +0.001 A 
ATOM     26  C   UNL     1       5.850 -11.090  -0.151  0.00  0.00    +0.014 A 
ATOM     27  C   UNL     1       4.674 -10.377  -0.023  0.00  0.00    +0.076 A 
BRANCH  27  28
ATOM     28  C   UNL     1       3.447 -11.042   0.548  0.00  0.00    +0.419 C 
ATOM     29  F   UNL     1       3.747 -12.368   0.878  0.00  0.00    -0.166 F 
ATOM     30  F   UNL     1       3.037 -10.357   1.696  0.00  0.00    -0.166 F 
ATOM     31  F   UNL     1       2.420 -11.018  -0.401  0.00  0.00    -0.166 F 
ENDBRANCH  27  28
ENDBRANCH  20  22
ENDBRANCH   5  20
TORSDOF 5
