REMARK  Name = ZINC63729973
REMARK  5 active torsions:
REMARK  status: ('A' for Active; 'I' for Inactive)
REMARK    1  A    between atoms: C_1  and  C_2
REMARK    2  A    between atoms: C_2  and  C_3
REMARK    3  A    between atoms: C_8  and  C_15
REMARK    4  A    between atoms: C_15  and  N_16
REMARK    5  A    between atoms: N_16  and  C_17
REMARK                            x       y       z     vdW  Elec       q    Type
REMARK                         _______ _______ _______ _____ _____    ______ ____
ROOT
ATOM      1  C   UNL     1      -1.472  -0.633   0.313  0.00  0.00    -0.046 A 
ATOM      2  C   UNL     1      -2.142  -0.949   1.496  0.00  0.00    +0.004 A 
ATOM      3  C   UNL     1      -3.416  -1.419   1.483  0.00  0.00    +0.010 A 
ATOM      4  C   UNL     1      -4.090  -1.593   0.196  0.00  0.00    -0.007 A 
ATOM      5  C   UNL     1      -5.369  -2.062   0.135  0.00  0.00    -0.007 C 
ATOM      6  C   UNL     1      -5.990  -2.211  -1.241  0.00  0.00    +0.082 C 
ATOM      7  C   UNL     1      -5.140  -1.827  -2.432  0.00  0.00    +0.222 C 
ATOM      8  O   UNL     1      -5.588  -1.927  -3.558  0.00  0.00    -0.275 OA
ATOM      9  N   UNL     1      -3.909  -1.384  -2.243  0.00  0.00    -0.285 N 
ATOM     10  C   UNL     1      -3.359  -1.251  -1.036  0.00  0.00    +0.041 A 
ATOM     11  C   UNL     1      -2.044  -0.767  -0.911  0.00  0.00    +0.027 A 
ATOM     12  H   UNL     1      -3.380  -1.143  -3.021  0.00  0.00    +0.155 HD
ENDROOT
BRANCH   1  14
ATOM     13  C   UNL     1      -0.081   1.410   0.512  0.00  0.00    +0.009 C 
ATOM     14  C   UNL     1      -0.059  -0.116   0.399  0.00  0.00    +0.032 C 
ENDBRANCH   1  14
BRANCH   6  15
ATOM     15  C   UNL     1      -7.260  -1.358  -1.277  0.00  0.00    -0.065 C 
BRANCH  15  16
ATOM     16  N   UNL     1      -8.245  -1.907  -0.335  0.00  0.00    +0.382 N 
ATOM     17  H   UNL     1      -8.403  -2.881  -0.544  0.00  0.00    -0.085 HD
ATOM     18  H   UNL     1      -7.895  -1.817   0.607  0.00  0.00    -0.085 HD
BRANCH  16  19
ATOM     19  C   UNL     1      -9.508  -1.167  -0.462  0.00  0.00    -0.072 C 
ATOM     20  C   UNL     1      -9.294   0.284  -0.025  0.00  0.00    -0.016 C 
ATOM     21  C   UNL     1     -10.610   1.054  -0.157  0.00  0.00    -0.002 C 
ATOM     22  C   UNL     1     -11.672   0.405   0.732  0.00  0.00    -0.000 C 
ATOM     23  C   UNL     1     -11.885  -1.046   0.296  0.00  0.00    -0.002 C 
ATOM     24  C   UNL     1     -10.570  -1.816   0.428  0.00  0.00    -0.016 C 
ENDBRANCH  16  19
ENDBRANCH  15  16
ENDBRANCH   6  15
TORSDOF 4
