REMARK  Name = ZINC37033818
REMARK  3 active torsions:
REMARK  status: ('A' for Active; 'I' for Inactive)
REMARK    1  A    between atoms: C_5  and  N_8
REMARK    2  A    between atoms: C_9  and  C_11
REMARK    3  A    between atoms: C_14  and  O_18
REMARK                            x       y       z     vdW  Elec       q    Type
REMARK                         _______ _______ _______ _____ _____    ______ ____
ROOT
ATOM      1  N   UNL     1       1.158  -2.095  -0.021  0.00  0.00    -0.284 N 
ATOM      2  C   UNL     1       0.057  -2.759   0.384  0.00  0.00    +0.203 C 
ATOM      3  O   UNL     1      -0.950  -2.147   0.668  0.00  0.00    -0.277 OA
ATOM      4  H   UNL     1       1.939  -2.587  -0.319  0.00  0.00    +0.155 HD
ENDROOT
BRANCH   1   9
ATOM      5  C   UNL     1       1.701   1.365   1.101  0.00  0.00    +0.044 A 
ATOM      6  C   UNL     1       1.237   2.113   0.071  0.00  0.00    +0.071 A 
ATOM      7  C   UNL     1       0.703   1.484  -1.088  0.00  0.00    +0.120 A 
ATOM      8  C   UNL     1       0.669   0.028  -1.134  0.00  0.00    +0.124 A 
ATOM      9  C   UNL     1       1.173  -0.697  -0.014  0.00  0.00    +0.080 A 
ATOM     10  C   UNL     1       1.672  -0.029   1.062  0.00  0.00    +0.066 A 
ATOM     11 CL   UNL     1       2.282  -0.929   2.414  0.00  0.00    -0.082 Cl
ATOM     12  N   UNL     1       0.149  -0.450  -2.265  0.00  0.00    -0.189 NA
ATOM     13  S   UNL     1      -0.240   0.841  -3.143  0.00  0.00    +0.117 S 
ATOM     14  N   UNL     1       0.206   2.055  -2.187  0.00  0.00    -0.189 NA
ATOM     15 CL   UNL     1       1.295   3.846   0.166  0.00  0.00    -0.081 Cl
ENDBRANCH   1   9
BRANCH   2  16
ATOM     16  C   UNL     1       0.078  -4.263   0.483  0.00  0.00    +0.019 C 
ATOM     17  C   UNL     1      -0.125  -4.884  -0.915  0.00  0.00    +0.023 C 
ATOM     18  C   UNL     1      -1.024  -6.115  -0.624  0.00  0.00    +0.097 C 
ATOM     19  C   UNL     1      -1.925  -5.580   0.518  0.00  0.00    -0.050 C 
ATOM     20  N   UNL     1      -1.033  -4.725   1.335  0.00  0.00    +0.388 N 
ATOM     21  H   UNL     1      -0.667  -5.256   2.111  0.00  0.00    -0.085 HD
ATOM     22  H   UNL     1      -1.548  -3.929   1.682  0.00  0.00    -0.085 HD
BRANCH  18  23
ATOM     23  O   UNL     1      -1.802  -6.463  -1.770  0.00  0.00    -0.394 OA
ATOM     24  H   UNL     1      -2.380  -7.227  -1.636  0.00  0.00    +0.210 HD
ENDBRANCH  18  23
ENDBRANCH   2  16
TORSDOF 3
