REMARK  Name = ZINC06693063
REMARK  8 active torsions:
REMARK  status: ('A' for Active; 'I' for Inactive)
REMARK    1  A    between atoms: C_1  and  C_2
REMARK    2  A    between atoms: C_2  and  C_3
REMARK    3  A    between atoms: C_2  and  C_4
REMARK    4  A    between atoms: C_2  and  C_5
REMARK    5  A    between atoms: C_8  and  C_11
REMARK    6  A    between atoms: C_14  and  C_25
REMARK    7  A    between atoms: C_20  and  N_24
REMARK    8  A    between atoms: C_21  and  C_22
REMARK                            x       y       z     vdW  Elec       q    Type
REMARK                         _______ _______ _______ _____ _____    ______ ____
ROOT
ATOM      1  C   UNL     1       3.578   0.658  -0.032  0.00  0.00    +0.102 C 
ATOM      2  C   UNL     1       2.072   0.716  -0.014  0.00  0.00    +0.054 A 
ATOM      3  C   UNL     1       1.230   1.832   0.000  0.00  0.00    +0.100 A 
ATOM      4  N   UNL     1      -0.017   1.399   0.010  0.00  0.00    -0.171 NA
ATOM      5  N   UNL     1       0.002  -0.004   0.002  0.00  0.00    -0.246 N 
ATOM      6  H   UNL     1      -0.943  -0.567   0.007  0.00  0.00    +0.192 HD
ATOM      7  C   UNL     1       1.291  -0.403  -0.012  0.00  0.00    +0.223 A 
ATOM      8  O   UNL     1       1.808  -1.657  -0.021  0.00  0.00    -0.423 OA
ATOM      9  C   UNL     1       3.124  -1.792   0.243  0.00  0.00    +0.200 C 
ATOM     10  C   UNL     1       3.998  -0.761   0.257  0.00  0.00    +0.098 C 
ENDROOT
BRANCH   1  14
ATOM     11  C   UNL     1       5.025   1.837  -3.874  0.00  0.00    -0.042 A 
ATOM     12  C   UNL     1       5.416   2.533  -2.745  0.00  0.00    +0.004 A 
ATOM     13  C   UNL     1       4.947   2.151  -1.502  0.00  0.00    +0.005 A 
ATOM     14  C   UNL     1       4.088   1.074  -1.387  0.00  0.00    -0.035 A 
ATOM     15  C   UNL     1       3.702   0.375  -2.515  0.00  0.00    +0.005 A 
ATOM     16  C   UNL     1       4.167   0.759  -3.759  0.00  0.00    +0.004 A 
BRANCH  11  18
ATOM     17  C   UNL     1       7.063   2.162  -5.249  0.00  0.00    +0.015 C 
ATOM     18  C   UNL     1       5.535   2.253  -5.230  0.00  0.00    -0.013 C 
ATOM     19  C   UNL     1       4.955   1.325  -6.299  0.00  0.00    +0.015 C 
ATOM     20  C   UNL     1       5.106   3.693  -5.516  0.00  0.00    +0.015 C 
ENDBRANCH  11  18
ENDBRANCH   1  14
BRANCH   3  21
ATOM     21  C   UNL     1       1.661   3.252   0.004  0.00  0.00    +0.003 A 
ATOM     22  C   UNL     1       2.813   3.631   0.691  0.00  0.00    +0.010 A 
ATOM     23  C   UNL     1       3.213   4.952   0.686  0.00  0.00    +0.001 A 
ATOM     24  C   UNL     1       2.466   5.901   0.011  0.00  0.00    +0.000 A 
ATOM     25  C   UNL     1       1.319   5.531  -0.667  0.00  0.00    +0.001 A 
ATOM     26  C   UNL     1       0.913   4.212  -0.674  0.00  0.00    +0.010 A 
ENDBRANCH   3  21
BRANCH   9  27
ATOM     27  N   UNL     1       3.603  -3.050   0.514  0.00  0.00    -0.328 N 
ATOM     28  H   UNL     1       4.671  -3.196   0.734  0.00  0.00    +0.145 HD
ATOM     29  H   UNL     1       2.919  -3.911   0.511  0.00  0.00    +0.145 HD
ENDBRANCH   9  27
BRANCH  10  30
ATOM     30  C   UNL     1       5.373  -1.027   0.555  0.00  0.00    +0.101 C 
ATOM     31  N   UNL     1       6.464  -1.238   0.792  0.00  0.00    -0.191 NA
ENDBRANCH  10  30
TORSDOF 5
