REMARK  Name = ZINC61643091
REMARK  8 active torsions:
REMARK  status: ('A' for Active; 'I' for Inactive)
REMARK    1  A    between atoms: C_1  and  N_2
REMARK    2  A    between atoms: N_2  and  C_3
REMARK    3  A    between atoms: N_2  and  C_4
REMARK    4  A    between atoms: C_4  and  C_5
REMARK    5  A    between atoms: C_5  and  N_6
REMARK    6  A    between atoms: N_9  and  C_12
REMARK    7  A    between atoms: C_15  and  C_19
REMARK    8  A    between atoms: C_17  and  N_18
REMARK                            x       y       z     vdW  Elec       q    Type
REMARK                         _______ _______ _______ _____ _____    ______ ____
ROOT
ATOM      1  C   UNL     1       5.201   0.015  -5.701  0.00  0.00    +0.051 A 
ATOM      2  C   UNL     1       5.548   1.361  -5.711  0.00  0.00    +0.026 A 
ATOM      3  C   UNL     1       6.342   1.864  -6.718  0.00  0.00    +0.015 A 
ATOM      4  C   UNL     1       6.802   1.021  -7.733  0.00  0.00    +0.038 A 
ATOM      5  C   UNL     1       6.455  -0.334  -7.725  0.00  0.00    +0.037 A 
ATOM      6  C   UNL     1       5.663  -0.835  -6.710  0.00  0.00    +0.047 A 
ENDROOT
BRANCH   1  10
ATOM      7  N   UNL     1       2.846  -0.527  -2.366  0.00  0.00    -0.301 NA
ATOM      8  C   UNL     1       2.323   0.140  -3.565  0.00  0.00    +0.103 C 
ATOM      9  C   UNL     1       2.933  -0.507  -4.813  0.00  0.00    +0.120 C 
ATOM     10  N   UNL     1       4.397  -0.488  -4.681  0.00  0.00    -0.326 N 
ATOM     11  C   UNL     1       4.991  -1.016  -3.443  0.00  0.00    +0.120 C 
ATOM     12  C   UNL     1       4.300  -0.349  -2.249  0.00  0.00    +0.103 C 
BRANCH   7  13
ATOM     13  C   UNL     1       2.159  -0.053  -1.157  0.00  0.00    +0.066 C 
BRANCH  13  14
ATOM     14  C   UNL     1       0.690  -0.478  -1.207  0.00  0.00    -0.064 C 
BRANCH  14  16
ATOM     15  C   UNL     1      -0.018   1.465   0.010  0.00  0.00    -0.097 C 
ATOM     16  N   UNL     1       0.002  -0.004   0.002  0.00  0.00    +0.377 N 
ATOM     17  C   UNL     1      -1.376  -0.512   0.012  0.00  0.00    -0.097 C 
ATOM     18  H   UNL     1       0.490  -0.338   0.820  0.00  0.00    -0.083 HD
ENDBRANCH  14  16
ENDBRANCH  13  14
ENDBRANCH   7  13
ENDBRANCH   1  10
BRANCH   4  19
ATOM     19  C   UNL     1       7.653   1.559  -8.812  0.00  0.00    +0.242 C 
ATOM     20  O   UNL     1       8.052   0.825  -9.695  0.00  0.00    -0.270 OA
ATOM     21  N   UNL     1       7.986   2.865  -8.819  0.00  0.00    -0.325 N 
ATOM     22  H   UNL     1       7.667   3.451  -8.114  0.00  0.00    +0.145 HD
ATOM     23  H   UNL     1       8.545   3.219  -9.528  0.00  0.00    +0.145 HD
ENDBRANCH   4  19
BRANCH   6  24
ATOM     24  N   UNL     1       5.318  -2.192  -6.695  0.00  0.00    -0.357 N 
ATOM     25  H   UNL     1       4.759  -2.542  -5.984  0.00  0.00    +0.142 HD
ATOM     26  H   UNL     1       5.639  -2.781  -7.395  0.00  0.00    +0.142 HD
ENDBRANCH   6  24
TORSDOF 6
