REMARK  Name = ZINC04150792
REMARK  6 active torsions:
REMARK  status: ('A' for Active; 'I' for Inactive)
REMARK    1  A    between atoms: C_1  and  C_2
REMARK    2  A    between atoms: C_6  and  C_9
REMARK    3  A    between atoms: C_7  and  O_8
REMARK    4  A    between atoms: N_10  and  N_11
REMARK    5  A    between atoms: C_12  and  C_14
REMARK    6  A    between atoms: C_18  and  C_19
REMARK                            x       y       z     vdW  Elec       q    Type
REMARK                         _______ _______ _______ _____ _____    ______ ____
ROOT
ATOM      1  C   UNL     1       2.420   3.933  -0.001  0.00  0.00    +0.142 C 
ATOM      2  N   UNL     1       2.399   5.231   0.006  0.00  0.00    -0.187 NA
ENDROOT
BRANCH   1   8
ATOM      3  C   UNL     1      -2.576   3.853   0.046  0.00  0.00    +0.047 C 
ATOM      4  C   UNL     1      -1.253   3.131   0.030  0.00  0.00    -0.008 A 
ATOM      5  C   UNL     1      -1.222   1.748   0.017  0.00  0.00    +0.007 A 
ATOM      6  C   UNL     1      -0.013   1.076   0.008  0.00  0.00    +0.001 A 
ATOM      7  C   UNL     1       1.174   1.779   0.000  0.00  0.00    +0.013 A 
ATOM      8  C   UNL     1       1.156   3.175   0.008  0.00  0.00    +0.036 A 
ATOM      9  C   UNL     1      -0.071   3.852   0.022  0.00  0.00    +0.128 A 
BRANCH   9  10
ATOM     10  O   UNL     1      -0.101   5.210   0.030  0.00  0.00    -0.506 OA
ATOM     11  H   UNL     1      -0.118   5.608  -0.851  0.00  0.00    +0.292 HD
ENDBRANCH   9  10
ENDBRANCH   1   8
BRANCH   2  12
ATOM     12  N   UNL     1       3.601   5.951  -0.002  0.00  0.00    -0.203 N 
ATOM     13  C   UNL     1       3.579   7.298   0.005  0.00  0.00    +0.267 C 
ATOM     14  O   UNL     1       2.516   7.889   0.018  0.00  0.00    -0.268 OA
ATOM     15  H   UNL     1       4.449   5.479  -0.013  0.00  0.00    +0.178 HD
BRANCH  13  16
ATOM     16  C   UNL     1       4.843   8.056  -0.004  0.00  0.00    +0.079 A 
ATOM     17  C   UNL     1       6.207   7.508  -0.013  0.00  0.00    +0.054 A 
ATOM     18  C   UNL     1       7.030   8.568  -0.022  0.00  0.00    +0.196 A 
ATOM     19  O   UNL     1       6.299   9.693  -0.009  0.00  0.00    -0.467 OA
ATOM     20  C   UNL     1       4.992   9.412   0.002  0.00  0.00    +0.114 A 
ATOM     21  C   UNL     1       3.873  10.421   0.018  0.00  0.00    +0.087 C 
ENDBRANCH  13  16
ENDBRANCH   2  12
TORSDOF 4
