REMARK  Name = ZINC53165562
REMARK  4 active torsions:
REMARK  status: ('A' for Active; 'I' for Inactive)
REMARK    1  A    between atoms: C_3  and  O_8
REMARK    2  A    between atoms: C_6  and  N_7
REMARK    3  A    between atoms: O_8  and  C_9
REMARK    4  A    between atoms: C_10  and  N_17
REMARK                            x       y       z     vdW  Elec       q    Type
REMARK                         _______ _______ _______ _____ _____    ______ ____
ROOT
ATOM      1  C   UNL     1       4.711   1.406  -0.035  0.00  0.00    +0.196 A 
ATOM      2  C   UNL     1       5.314   1.034   1.158  0.00  0.00    +0.171 A 
ATOM      3  C   UNL     1       6.495   0.318   1.142  0.00  0.00    +0.039 A 
ATOM      4  C   UNL     1       7.079  -0.030  -0.062  0.00  0.00    +0.044 A 
ATOM      5  C   UNL     1       6.482   0.339  -1.256  0.00  0.00    +0.162 A 
ATOM      6  C   UNL     1       5.294   1.052  -1.245  0.00  0.00    +0.203 A 
ATOM      7  F   UNL     1       4.707   1.407  -2.409  0.00  0.00    -0.199 F 
ATOM      8  F   UNL     1       7.055  -0.002  -2.431  0.00  0.00    -0.202 F 
ENDROOT
BRANCH   2   9
ATOM      9  N   UNL     1       4.691   1.406   2.448  0.00  0.00    +0.060 N 
ATOM     10  O   UNL     1       5.216   1.082   3.488  0.00  0.00    -0.126 OA
ATOM     11  O   UNL     1       3.658   2.033   2.462  0.00  0.00    -0.126 OA
ENDBRANCH   2   9
BRANCH   1  12
ATOM     12  O   UNL     1       3.549   2.110  -0.021  0.00  0.00    -0.451 OA
BRANCH  12  15
ATOM     13  C   UNL     1      -0.017   1.385   0.010  0.00  0.00    +0.026 A 
ATOM     14  C   UNL     1       1.170   2.091   0.002  0.00  0.00    +0.048 A 
ATOM     15  C   UNL     1       2.381   1.414  -0.013  0.00  0.00    +0.129 A 
ATOM     16  C   UNL     1       2.400   0.026  -0.021  0.00  0.00    +0.048 A 
ATOM     17  C   UNL     1       1.214  -0.681  -0.014  0.00  0.00    +0.026 A 
ATOM     18  C   UNL     1       0.002  -0.004   0.002  0.00  0.00    +0.025 A 
BRANCH  18  19
ATOM     19  N   UNL     1      -1.200  -0.721   0.010  0.00  0.00    -0.358 N 
ATOM     20  H   UNL     1      -2.046  -0.247   0.021  0.00  0.00    +0.142 HD
ATOM     21  H   UNL     1      -1.186  -1.690   0.005  0.00  0.00    +0.142 HD
ENDBRANCH  18  19
ENDBRANCH  12  15
ENDBRANCH   1  12
TORSDOF 4
