REMARK  Name = ZINC36026311
REMARK  4 active torsions:
REMARK  status: ('A' for Active; 'I' for Inactive)
REMARK    1  A    between atoms: C_1  and  C_2
REMARK    2  A    between atoms: N_6  and  C_23
REMARK    3  A    between atoms: C_14  and  C_16
REMARK    4  A    between atoms: C_23  and  C_24
REMARK                            x       y       z     vdW  Elec       q    Type
REMARK                         _______ _______ _______ _____ _____    ______ ____
ROOT
ATOM      1  C   UNL     1      -0.213   1.388  -0.063  0.00  0.00    -0.004 C 
ATOM      2  C   UNL     1      -0.059  -0.126   0.097  0.00  0.00    +0.016 C 
ATOM      3  C   UNL     1       0.772  -0.693  -1.033  0.00  0.00    +0.200 C 
ATOM      4  O   UNL     1       0.657  -0.413  -2.207  0.00  0.00    -0.277 OA
ATOM      5  N   UNL     1       1.664  -1.563  -0.514  0.00  0.00    -0.310 N 
ATOM      6  C   UNL     1       1.488  -1.635   0.939  0.00  0.00    +0.006 C 
ATOM      7  N   UNL     1       0.708  -0.439   1.328  0.00  0.00    +0.401 N 
ATOM      8  C   UNL     1       2.846  -1.616   1.638  0.00  0.00    +0.025 C 
ATOM      9  C   UNL     1       3.660  -2.838   1.201  0.00  0.00    +0.108 C 
ATOM     10  N   UNL     1       2.862  -4.048   1.445  0.00  0.00    -0.298 N 
ATOM     11  C   UNL     1       1.510  -4.131   0.876  0.00  0.00    +0.108 C 
ATOM     12  C   UNL     1       0.715  -2.897   1.316  0.00  0.00    +0.025 C 
ATOM     13  C   UNL     1       3.362  -5.064   2.177  0.00  0.00    +0.247 C 
ATOM     14  O   UNL     1       4.436  -4.941   2.733  0.00  0.00    -0.270 OA
ATOM     15  H   UNL     1       1.322   0.324   1.569  0.00  0.00    -0.082 HD
ATOM     16  H   UNL     1       0.084  -0.651   2.092  0.00  0.00    -0.082 HD
ENDROOT
BRANCH  13  17
ATOM     17  C   UNL     1       2.605  -6.327   2.303  0.00  0.00    +0.040 A 
ATOM     18  C   UNL     1       1.895  -6.830   1.211  0.00  0.00    +0.013 A 
ATOM     19  C   UNL     1       1.191  -8.010   1.333  0.00  0.00    +0.004 A 
ATOM     20  C   UNL     1       1.185  -8.695   2.535  0.00  0.00    +0.038 A 
ATOM     21  C   UNL     1       1.887  -8.202   3.623  0.00  0.00    +0.124 A 
ATOM     22  C   UNL     1       2.601  -7.024   3.511  0.00  0.00    +0.051 A 
ATOM     23  F   UNL     1       1.876  -8.876   4.794  0.00  0.00    -0.205 F 
ENDBRANCH  13  17
BRANCH   5  24
ATOM     24  C   UNL     1       2.654  -2.319  -1.284  0.00  0.00    +0.132 C 
BRANCH  24  25
ATOM     25  C   UNL     1       3.890  -1.479  -1.475  0.00  0.00    -0.016 C 
ATOM     26  C   UNL     1       5.068  -1.970  -1.180  0.00  0.00    +0.005 C 
ENDBRANCH  24  25
ENDBRANCH   5  24
TORSDOF 3
