REMARK  Name = ZINC43147386
REMARK  11 active torsions:
REMARK  status: ('A' for Active; 'I' for Inactive)
REMARK    1  A    between atoms: C_1  and  C_2
REMARK    2  A    between atoms: C_5  and  C_26
REMARK    3  A    between atoms: C_6  and  O_8
REMARK    4  A    between atoms: O_8  and  C_9
REMARK    5  A    between atoms: C_9  and  C_10
REMARK    6  A    between atoms: N_12  and  N_13
REMARK    7  A    between atoms: N_16  and  C_17
REMARK    8  A    between atoms: C_17  and  C_18
REMARK    9  A    between atoms: C_18  and  N_23
REMARK   10  A    between atoms: N_23  and  C_24
REMARK   11  A    between atoms: N_23  and  C_25
REMARK                            x       y       z     vdW  Elec       q    Type
REMARK                         _______ _______ _______ _____ _____    ______ ____
ROOT
ATOM      1  N   UNL     1      -0.397  -3.380   7.313  0.00  0.00    -0.218 N 
ATOM      2  C   UNL     1      -0.222  -2.825   8.529  0.00  0.00    +0.316 C 
ATOM      3  O   UNL     1      -0.116  -3.534   9.511  0.00  0.00    -0.251 OA
ATOM      4  N   UNL     1      -0.166  -1.485   8.656  0.00  0.00    -0.300 N 
ATOM      5  H   UNL     1      -0.438  -4.345   7.221  0.00  0.00    +0.174 HD
ATOM      6  H   UNL     1      -0.251  -0.919   7.873  0.00  0.00    +0.150 HD
ENDROOT
BRANCH   1   9
ATOM      7  C   UNL     1      -0.694  -3.117   4.965  0.00  0.00    +0.267 C 
ATOM      8  O   UNL     1      -0.745  -4.323   4.851  0.00  0.00    -0.271 OA
ATOM      9  N   UNL     1      -0.519  -2.562   6.181  0.00  0.00    -0.230 N 
ATOM     10  H   UNL     1      -0.479  -1.598   6.273  0.00  0.00    +0.173 HD
BRANCH   7  11
ATOM     11  C   UNL     1      -0.826  -2.238   3.748  0.00  0.00    +0.326 C 
BRANCH  11  12
ATOM     12  O   UNL     1      -1.001  -3.054   2.588  0.00  0.00    -0.482 OA
BRANCH  12  18
ATOM     13  C   UNL     1      -1.202   1.129   0.081  0.00  0.00    +0.044 C 
ATOM     14  C   UNL     1      -1.240  -0.377   0.136  0.00  0.00    -0.047 A 
ATOM     15  C   UNL     1      -1.413  -1.107  -1.026  0.00  0.00    +0.004 A 
ATOM     16  C   UNL     1      -1.447  -2.488  -0.978  0.00  0.00    +0.007 A 
ATOM     17  C   UNL     1      -1.310  -3.143   0.231  0.00  0.00    -0.009 A 
ATOM     18  C   UNL     1      -1.137  -2.412   1.398  0.00  0.00    +0.124 A 
ATOM     19  C   UNL     1      -1.096  -1.026   1.347  0.00  0.00    +0.049 A 
ATOM     20  C   UNL     1      -1.349  -4.648   0.282  0.00  0.00    +0.047 C 
ENDBRANCH  12  18
ENDBRANCH  11  12
ENDBRANCH   7  11
ENDBRANCH   1   9
BRANCH   4  21
ATOM     21  C   UNL     1       0.024  -0.882   9.978  0.00  0.00    +0.094 C 
BRANCH  21  22
ATOM     22  C   UNL     1       0.165   0.634   9.832  0.00  0.00    -0.050 C 
ATOM     23  C   UNL     1       1.437   0.972   9.026  0.00  0.00    -0.010 C 
ATOM     24  C   UNL     1       1.986   2.252   9.703  0.00  0.00    -0.001 C 
ATOM     25  C   UNL     1       1.706   1.993  11.204  0.00  0.00    -0.001 C 
ATOM     26  C   UNL     1       0.336   1.284  11.216  0.00  0.00    -0.010 C 
BRANCH  22  27
ATOM     27  N   UNL     1      -1.019   1.187   9.160  0.00  0.00    +0.381 N 
ATOM     28  C   UNL     1      -2.212   0.922   9.974  0.00  0.00    -0.096 C 
ATOM     29  C   UNL     1      -0.854   2.636   8.990  0.00  0.00    -0.096 C 
ATOM     30  H   UNL     1      -1.125   0.752   8.255  0.00  0.00    -0.082 HD
ENDBRANCH  22  27
ENDBRANCH  21  22
ENDBRANCH   4  21
TORSDOF 7
