REMARK  Name = ZINC08643718
REMARK  9 active torsions:
REMARK  status: ('A' for Active; 'I' for Inactive)
REMARK    1  A    between atoms: C_1  and  N_49
REMARK    2  A    between atoms: C_2  and  C_3
REMARK    3  A    between atoms: C_2  and  N_49
REMARK    4  A    between atoms: N_5  and  C_8
REMARK    5  A    between atoms: C_8  and  C_9
REMARK    6  A    between atoms: C_11  and  O_28
REMARK    7  A    between atoms: C_13  and  O_27
REMARK    8  A    between atoms: C_15  and  C_18
REMARK    9  A    between atoms: C_18  and  C_19
REMARK                            x       y       z     vdW  Elec       q    Type
REMARK                         _______ _______ _______ _____ _____    ______ ____
ROOT
ATOM      1  C   UNL     1       3.175   2.144  -1.198  0.00  0.00    +0.171 C 
ATOM      2  C   UNL     1       4.638   1.653  -1.285  0.00  0.00    +0.176 C 
ATOM      3  C   UNL     1       5.427   2.903  -1.733  0.00  0.00    +0.175 C 
ATOM      4  C   UNL     1       4.349   4.002  -1.864  0.00  0.00    +0.159 C 
ATOM      5  O   UNL     1       3.274   3.571  -0.999  0.00  0.00    -0.366 OA
ENDROOT
BRANCH   3   6
ATOM      6  O   UNL     1       6.063   2.670  -2.991  0.00  0.00    -0.387 OA
ATOM      7  H   UNL     1       6.707   1.949  -2.978  0.00  0.00    +0.210 HD
ENDBRANCH   3   6
BRANCH   2   8
ATOM      8  O   UNL     1       4.758   0.608  -2.252  0.00  0.00    -0.387 OA
ATOM      9  H   UNL     1       5.657   0.263  -2.348  0.00  0.00    +0.210 HD
ENDBRANCH   2   8
BRANCH   1  10
ATOM     10  C   UNL     1       2.463   1.488  -0.013  0.00  0.00    +0.179 C 
BRANCH  10  13
ATOM     11  C   UNL     1      -1.106   1.874   0.017  0.00  0.00    +0.066 A 
ATOM     12  C   UNL     1      -0.013   1.076   0.008  0.00  0.00    +0.131 A 
ATOM     13  N   UNL     1       1.058   1.903   0.002  0.00  0.00    -0.249 N 
ATOM     14  N   UNL     1       0.630   3.117   0.012  0.00  0.00    -0.065 NA
ATOM     15  N   UNL     1      -0.656   3.134   0.024  0.00  0.00    -0.136 NA
BRANCH  11  16
ATOM     16  C   UNL     1      -2.546   1.430   0.021  0.00  0.00    -0.023 C 
BRANCH  16  18
ATOM     17  C   UNL     1      -4.448   0.966   1.446  0.00  0.00    -0.100 C 
ATOM     18  N   UNL     1      -3.037   1.397   1.411  0.00  0.00    +0.381 N 
ATOM     19  H   UNL     1      -2.468   0.739   1.956  0.00  0.00    -0.086 HD
ATOM     20  H   UNL     1      -2.960   2.336   1.820  0.00  0.00    -0.086 HD
ENDBRANCH  16  18
ENDBRANCH  11  16
ENDBRANCH  10  13
ENDBRANCH   1  10
BRANCH   4  21
ATOM     21  C   UNL     1       4.902   5.349  -1.396  0.00  0.00    +0.130 C 
BRANCH  21  22
ATOM     22  C   UNL     1       3.877   6.426  -1.647  0.00  0.00    +0.218 C 
ATOM     23  O   UNL     1       2.811   6.144  -2.149  0.00  0.00    -0.276 OA
ATOM     24  N   UNL     1       4.147   7.704  -1.312  0.00  0.00    -0.297 N 
ATOM     25  C   UNL     1       5.432   8.070  -0.695  0.00  0.00    +0.136 C 
ATOM     26  C   UNL     1       6.022   9.251  -1.483  0.00  0.00    +0.179 C 
ATOM     27  O   UNL     1       5.043  10.289  -1.574  0.00  0.00    -0.377 OA
ATOM     28  C   UNL     1       3.861   9.918  -2.287  0.00  0.00    +0.179 C 
ATOM     29  C   UNL     1       3.163   8.772  -1.546  0.00  0.00    +0.136 C 
ENDBRANCH  21  22
ENDBRANCH   4  21
TORSDOF 8
