REMARK  Name = ZINC53097002
REMARK  9 active torsions:
REMARK  status: ('A' for Active; 'I' for Inactive)
REMARK    1  A    between atoms: C_5  and  O_7
REMARK    2  A    between atoms: O_7  and  C_8
REMARK    3  A    between atoms: C_8  and  C_9
REMARK    4  A    between atoms: C_9  and  C_11
REMARK    5  A    between atoms: C_9  and  O_21
REMARK    6  A    between atoms: C_11  and  N_12
REMARK    7  A    between atoms: N_12  and  C_13
REMARK    8  A    between atoms: C_13  and  C_19
REMARK    9  A    between atoms: C_19  and  O_20
REMARK                            x       y       z     vdW  Elec       q    Type
REMARK                         _______ _______ _______ _____ _____    ______ ____
ROOT
ATOM      1  C   UNL     1      -1.151  -4.937   0.113  0.00  0.00    -0.047 C 
ENDROOT
BRANCH   1   2
ATOM      2  N   UNL     1      -0.927  -6.384   0.222  0.00  0.00    +0.386 N 
ATOM      3  H   UNL     1      -0.452  -6.715  -0.604  0.00  0.00    -0.085 HD
ATOM      4  H   UNL     1      -0.361  -6.576   1.035  0.00  0.00    -0.085 HD
BRANCH   2   5
ATOM      5  C   UNL     1      -2.219  -7.071   0.352  0.00  0.00    -0.045 C 
ATOM      6  C   UNL     1      -3.078  -6.780  -0.880  0.00  0.00    -0.010 C 
ATOM      7  C   UNL     1      -2.357  -7.281  -2.134  0.00  0.00    -0.001 C 
ATOM      8  C   UNL     1      -2.124  -8.789  -2.019  0.00  0.00    -0.000 C 
ATOM      9  C   UNL     1      -1.266  -9.080  -0.786  0.00  0.00    -0.001 C 
ATOM     10  C   UNL     1      -1.986  -8.579   0.467  0.00  0.00    -0.010 C 
BRANCH   5  11
ATOM     11  C   UNL     1      -2.939  -6.570   1.606  0.00  0.00    +0.143 C 
BRANCH  11  12
ATOM     12  O   UNL     1      -4.196  -7.238   1.732  0.00  0.00    -0.396 OA
ATOM     13  H   UNL     1      -4.709  -6.969   2.507  0.00  0.00    +0.209 HD
ENDBRANCH  11  12
ENDBRANCH   5  11
ENDBRANCH   2   5
ENDBRANCH   1   2
BRANCH   1  14
ATOM     14  C   UNL     1       0.195  -4.221  -0.023  0.00  0.00    +0.135 C 
BRANCH  14  15
ATOM     15  O   UNL     1       0.815  -4.602  -1.252  0.00  0.00    -0.390 OA
ATOM     16  H   UNL     1       0.296  -4.385  -2.039  0.00  0.00    +0.210 HD
ENDBRANCH  14  15
BRANCH  14  17
ATOM     17  C   UNL     1      -0.029  -2.708  -0.012  0.00  0.00    +0.258 C 
BRANCH  17  18
ATOM     18  O   UNL     1       1.234  -2.039  -0.021  0.00  0.00    -0.488 OA
BRANCH  18  23
ATOM     19  C   UNL     1      -0.017   1.377   0.010  0.00  0.00    +0.004 A 
ATOM     20  C   UNL     1       1.170   2.087   0.002  0.00  0.00    +0.002 A 
ATOM     21  C   UNL     1       2.379   1.416  -0.013  0.00  0.00    +0.023 A 
ATOM     22  C   UNL     1       2.404   0.034  -0.021  0.00  0.00    +0.083 A 
ATOM     23  C   UNL     1       1.213  -0.680  -0.013  0.00  0.00    +0.139 A 
ATOM     24  C   UNL     1       0.002  -0.004   0.002  0.00  0.00    +0.047 A 
ATOM     25 CL   UNL     1       3.922  -0.809  -0.041  0.00  0.00    -0.080 Cl
ENDBRANCH  18  23
ENDBRANCH  17  18
ENDBRANCH  14  17
ENDBRANCH   1  14
TORSDOF 9
