REMARK  Name = ZINC11173700
REMARK  15 active torsions:
REMARK  status: ('A' for Active; 'I' for Inactive)
REMARK    1  A    between atoms: C_1  and  C_2
REMARK    2  A    between atoms: C_8  and  N_10
REMARK    3  A    between atoms: C_14  and  C_16
REMARK    4  A    between atoms: C_16  and  O_17
REMARK    5  A    between atoms: O_17  and  C_18
REMARK    6  A    between atoms: C_18  and  C_20
REMARK    7  A    between atoms: C_22  and  O_35
REMARK    8  A    between atoms: C_23  and  O_33
REMARK    9  A    between atoms: C_25  and  N_26
REMARK   10  A    between atoms: C_27  and  C_29
REMARK   11  A    between atoms: C_29  and  C_30
REMARK   12  A    between atoms: C_29  and  C_31
REMARK   13  A    between atoms: C_29  and  C_32
REMARK   14  A    between atoms: O_33  and  C_34
REMARK   15  A    between atoms: O_35  and  C_36
REMARK                            x       y       z     vdW  Elec       q    Type
REMARK                         _______ _______ _______ _____ _____    ______ ____
ROOT
ATOM      1  C   UNL     1      -8.442   1.570  -4.184  0.00  0.00    +0.342 C 
ATOM      2  O   UNL     1      -7.956   1.913  -5.245  0.00  0.00    -0.245 OA
ENDROOT
BRANCH   1   3
ATOM      3  C   UNL     1      -9.899   1.622  -3.991  0.00  0.00    +0.084 A 
ATOM      4  C   UNL     1     -10.471   1.127  -2.813  0.00  0.00    +0.066 A 
ATOM      5  C   UNL     1     -11.837   1.182  -2.635  0.00  0.00    +0.162 A 
ATOM      6  C   UNL     1     -12.653   1.721  -3.631  0.00  0.00    +0.163 A 
ATOM      7  C   UNL     1     -12.096   2.209  -4.802  0.00  0.00    +0.073 A 
ATOM      8  C   UNL     1     -10.724   2.164  -4.991  0.00  0.00    +0.051 A 
BRANCH   8   9
ATOM      9  N   UNL     1     -10.163   2.655  -6.169  0.00  0.00    -0.284 N 
ATOM     10  C   UNL     1     -10.706   3.728  -6.777  0.00  0.00    +0.223 C 
ATOM     11  O   UNL     1     -11.621   4.325  -6.251  0.00  0.00    -0.275 OA
ATOM     12  H   UNL     1      -9.383   2.224  -6.551  0.00  0.00    +0.155 HD
BRANCH  10  13
ATOM     13  C   UNL     1     -10.175   4.187  -8.111  0.00  0.00    +0.039 C 
ATOM     14  C   UNL     1     -10.959   5.416  -8.576  0.00  0.00    +0.020 C 
ATOM     15  C   UNL     1      -8.695   4.549  -7.973  0.00  0.00    +0.020 C 
ATOM     16  C   UNL     1     -10.332   3.063  -9.136  0.00  0.00    +0.020 C 
ENDBRANCH  10  13
ENDBRANCH   8   9
BRANCH   6  17
ATOM     17  O   UNL     1     -13.998   1.768  -3.451  0.00  0.00    -0.491 OA
ATOM     18  C   UNL     1     -14.775   2.333  -4.510  0.00  0.00    +0.277 C 
ENDBRANCH   6  17
BRANCH   5  19
ATOM     19  O   UNL     1     -12.391   0.705  -1.488  0.00  0.00    -0.491 OA
ATOM     20  C   UNL     1     -11.498   0.167  -0.511  0.00  0.00    +0.277 C 
ENDBRANCH   5  19
ENDBRANCH   1   3
BRANCH   1  21
ATOM     21  O   UNL     1      -7.645   1.142  -3.185  0.00  0.00    -0.452 OA
BRANCH  21  22
ATOM     22  C   UNL     1      -6.216   1.117  -3.446  0.00  0.00    +0.328 C 
BRANCH  22  27
ATOM     23  N   UNL     1      -2.156  -0.052  -1.153  0.00  0.00    -0.296 N 
ATOM     24  C   UNL     1      -3.500   0.056  -1.142  0.00  0.00    +0.306 C 
ATOM     25  O   UNL     1      -4.126  -0.252  -0.147  0.00  0.00    -0.252 OA
ATOM     26  N   UNL     1      -4.148   0.505  -2.235  0.00  0.00    -0.237 N 
ATOM     27  C   UNL     1      -5.492   0.614  -2.224  0.00  0.00    +0.258 C 
ATOM     28  O   UNL     1      -6.117   0.307  -1.232  0.00  0.00    -0.272 OA
ATOM     29  H   UNL     1      -1.656   0.193  -1.947  0.00  0.00    +0.151 HD
ATOM     30  H   UNL     1      -3.648   0.751  -3.029  0.00  0.00    +0.159 HD
BRANCH  23  37
ATOM     31  C   UNL     1      -0.040   1.520   0.045  0.00  0.00    +0.009 C 
ATOM     32  C   UNL     1      -0.017  -0.010   0.031  0.00  0.00    +0.006 C 
ATOM     33  C   UNL     1       0.719  -0.520   1.272  0.00  0.00    +0.005 C 
ATOM     34  C   UNL     1       0.742  -2.050   1.258  0.00  0.00    +0.000 C 
ATOM     35  C   UNL     1      -0.693  -2.581   1.261  0.00  0.00    +0.002 C 
ATOM     36  C   UNL     1      -1.429  -2.071   0.021  0.00  0.00    +0.022 C 
ATOM     37  C   UNL     1      -1.452  -0.541   0.035  0.00  0.00    +0.077 C 
ENDBRANCH  23  37
ENDBRANCH  22  27
ENDBRANCH  21  22
ENDBRANCH   1  21
TORSDOF 9
