REMARK  Name = ZINC00622857
REMARK  9 active torsions:
REMARK  status: ('A' for Active; 'I' for Inactive)
REMARK    1  A    between atoms: C_1  and  C_2
REMARK    2  A    between atoms: C_5  and  C_8
REMARK    3  A    between atoms: C_15  and  N_36
REMARK    4  A    between atoms: C_16  and  C_34
REMARK    5  A    between atoms: C_17  and  C_19
REMARK    6  A    between atoms: C_23  and  O_25
REMARK    7  A    between atoms: O_25  and  C_26
REMARK    8  A    between atoms: C_26  and  C_27
REMARK    9  A    between atoms: C_32  and  C_33
REMARK                            x       y       z     vdW  Elec       q    Type
REMARK                         _______ _______ _______ _____ _____    ______ ____
ROOT
ATOM      1  C   UNL     1       0.061  -4.256  -0.021  0.00  0.00    +0.100 A 
ATOM      2  C   UNL     1       0.720  -5.075   0.900  0.00  0.00    +0.054 A 
ATOM      3  C   UNL     1       0.494  -6.374   0.548  0.00  0.00    +0.223 A 
ATOM      4  N   UNL     1      -0.279  -6.372  -0.557  0.00  0.00    -0.246 N 
ATOM      5  H   UNL     1      -0.599  -7.155  -1.031  0.00  0.00    +0.192 HD
ATOM      6  N   UNL     1      -0.546  -5.036  -0.896  0.00  0.00    -0.171 NA
ATOM      7  O   UNL     1       0.999  -7.421   1.249  0.00  0.00    -0.423 OA
ATOM      8  C   UNL     1       1.510  -7.166   2.470  0.00  0.00    +0.200 C 
ATOM      9  C   UNL     1       1.788  -5.925   2.926  0.00  0.00    +0.098 C 
ATOM     10  C   UNL     1       1.553  -4.688   2.095  0.00  0.00    +0.102 C 
ENDROOT
BRANCH   1  15
ATOM     11  C   UNL     1      -0.018   1.503   0.010  0.00  0.00    +0.044 C 
ATOM     12  C   UNL     1       0.002  -0.004   0.002  0.00  0.00    -0.050 A 
ATOM     13  C   UNL     1       0.006  -0.686  -1.201  0.00  0.00    +0.004 A 
ATOM     14  C   UNL     1       0.025  -2.067  -1.214  0.00  0.00    +0.010 A 
ATOM     15  C   UNL     1       0.041  -2.772  -0.013  0.00  0.00    +0.003 A 
ATOM     16  C   UNL     1       0.037  -2.080   1.196  0.00  0.00    +0.010 A 
ATOM     17  C   UNL     1       0.023  -0.700   1.198  0.00  0.00    +0.004 A 
ENDBRANCH   1  15
BRANCH  10  18
ATOM     18  C   UNL     1       2.873  -4.126   1.633  0.00  0.00    -0.031 A 
ATOM     19  C   UNL     1       3.725  -4.902   0.868  0.00  0.00    +0.005 A 
ATOM     20  C   UNL     1       4.937  -4.390   0.444  0.00  0.00    +0.004 A 
ATOM     21  C   UNL     1       5.300  -3.101   0.783  0.00  0.00    +0.045 A 
ATOM     22  C   UNL     1       4.448  -2.321   1.551  0.00  0.00    +0.121 A 
ATOM     23  C   UNL     1       3.230  -2.835   1.971  0.00  0.00    +0.050 A 
BRANCH  22  24
ATOM     24  O   UNL     1       4.804  -1.053   1.886  0.00  0.00    -0.487 OA
BRANCH  24  25
ATOM     25  C   UNL     1       6.070  -0.588   1.414  0.00  0.00    +0.264 C 
BRANCH  25  26
ATOM     26  C   UNL     1       6.291   0.828   1.881  0.00  0.00    -0.007 A 
ATOM     27  C   UNL     1       5.331   1.460   2.650  0.00  0.00    +0.007 A 
ATOM     28  C   UNL     1       5.534   2.758   3.078  0.00  0.00    +0.000 A 
ATOM     29  C   UNL     1       6.696   3.425   2.738  0.00  0.00    +0.000 A 
ATOM     30  C   UNL     1       7.655   2.793   1.970  0.00  0.00    +0.004 A 
ATOM     31  C   UNL     1       7.455   1.493   1.545  0.00  0.00    -0.044 A 
ATOM     32  C   UNL     1       8.503   0.802   0.712  0.00  0.00    +0.044 C 
ENDBRANCH  25  26
ENDBRANCH  24  25
ENDBRANCH  22  24
ENDBRANCH  10  18
BRANCH   8  33
ATOM     33  N   UNL     1       1.763  -8.231   3.300  0.00  0.00    -0.328 N 
ATOM     34  H   UNL     1       1.573  -9.134   3.001  0.00  0.00    +0.145 HD
ATOM     35  H   UNL     1       2.130  -8.079   4.185  0.00  0.00    +0.145 HD
ENDBRANCH   8  33
BRANCH   9  36
ATOM     36  C   UNL     1       2.325  -5.777   4.245  0.00  0.00    +0.101 C 
ATOM     37  N   UNL     1       2.750  -5.661   5.292  0.00  0.00    -0.191 NA
ENDBRANCH   9  36
TORSDOF 7
