REMARK  Name = ZINC09418983
REMARK  5 active torsions:
REMARK  status: ('A' for Active; 'I' for Inactive)
REMARK    1  A    between atoms: C_1  and  C_2
REMARK    2  A    between atoms: C_11  and  O_22
REMARK    3  A    between atoms: C_12  and  C_13
REMARK    4  A    between atoms: C_13  and  N_38
REMARK    5  A    between atoms: C_14  and  N_38
REMARK                            x       y       z     vdW  Elec       q    Type
REMARK                         _______ _______ _______ _____ _____    ______ ____
ROOT
ATOM      1  C   UNL     1      -1.280  -0.796   0.009  0.00  0.00    +0.045 C 
ATOM      2  C   UNL     1       0.002  -0.004   0.002  0.00  0.00    -0.033 A 
ATOM      3  C   UNL     1      -0.016   1.354   0.009  0.00  0.00    +0.096 A 
ATOM      4  C   UNL     1       1.197   2.072   0.002  0.00  0.00    +0.337 A 
ATOM      5  O   UNL     1       1.166   3.290   0.008  0.00  0.00    -0.245 OA
ATOM      6  O   UNL     1       2.385   1.448  -0.013  0.00  0.00    -0.422 OA
ATOM      7  C   UNL     1       2.474   0.101  -0.021  0.00  0.00    +0.144 A 
ATOM      8  C   UNL     1       1.302  -0.678  -0.014  0.00  0.00    +0.022 A 
ATOM      9  C   UNL     1       1.389  -2.075  -0.023  0.00  0.00    +0.035 A 
ATOM     10  C   UNL     1       2.615  -2.678  -0.038  0.00  0.00    +0.083 A 
ATOM     11  C   UNL     1       3.779  -1.911  -0.046  0.00  0.00    +0.140 A 
ATOM     12  C   UNL     1       3.710  -0.527  -0.037  0.00  0.00    +0.021 A 
ATOM     13 CL   UNL     1       2.723  -4.411  -0.049  0.00  0.00    -0.080 Cl
ENDROOT
BRANCH  11  14
ATOM     14  O   UNL     1       4.990  -2.525  -0.062  0.00  0.00    -0.505 OA
ATOM     15  H   UNL     1       5.331  -2.697  -0.950  0.00  0.00    +0.292 HD
ENDBRANCH  11  14
BRANCH  12  16
ATOM     16  C   UNL     1       4.974   0.292  -0.046  0.00  0.00    -0.039 C 
BRANCH  16  17
ATOM     17  N   UNL     1       5.365   0.563  -1.442  0.00  0.00    +0.385 N 
ATOM     18  H   UNL     1       4.612   1.079  -1.911  0.00  0.00    -0.085 HD
ATOM     19  H   UNL     1       5.524  -0.327  -1.928  0.00  0.00    -0.085 HD
BRANCH  17  20
ATOM     20  C   UNL     1       6.603   1.365  -1.481  0.00  0.00    -0.049 C 
ATOM     21  C   UNL     1       7.821   0.431  -1.399  0.00  0.00    +0.008 C 
ATOM     22  C   UNL     1       9.089   1.254  -1.762  0.00  0.00    +0.164 C 
ATOM     23  S   UNL     1       8.445   2.262  -3.164  0.00  0.00    -0.033 S 
ATOM     24  O   UNL     1       8.708   1.581  -4.383  0.00  0.00    -0.174 OA
ATOM     25  O   UNL     1       8.878   3.606  -3.005  0.00  0.00    -0.174 OA
ATOM     26  C   UNL     1       6.644   2.168  -2.804  0.00  0.00    +0.150 C 
ENDBRANCH  17  20
ENDBRANCH  16  17
ENDBRANCH  12  16
TORSDOF 4
