REMARK  Name = ZINC12229484
REMARK  7 active torsions:
REMARK  status: ('A' for Active; 'I' for Inactive)
REMARK    1  A    between atoms: C_1  and  C_2
REMARK    2  A    between atoms: C_4  and  C_7
REMARK    3  A    between atoms: N_9  and  C_10
REMARK    4  A    between atoms: C_11  and  C_21
REMARK    5  A    between atoms: C_18  and  C_19
REMARK    6  A    between atoms: C_18  and  C_20
REMARK    7  A    between atoms: C_18  and  N_44
REMARK                            x       y       z     vdW  Elec       q    Type
REMARK                         _______ _______ _______ _____ _____    ______ ____
ROOT
ATOM      1  C   UNL     1       1.873   2.331   1.184  0.00  0.00    +0.085 A 
ATOM      2  C   UNL     1       1.245   1.963   0.001  0.00  0.00    +0.068 A 
ATOM      3  C   UNL     1       1.880   2.355  -1.243  0.00  0.00    -0.027 A 
ATOM      4  C   UNL     1       3.038   3.042  -1.109  0.00  0.00    -0.021 A 
ATOM      5  S   UNL     1       3.286   3.172   0.637  0.00  0.00    -0.079 S 
ATOM      6  C   UNL     1       3.895   3.563  -2.220  0.00  0.00    -0.035 C 
ATOM      7  C   UNL     1       2.017   2.978  -3.634  0.00  0.00    -0.073 C 
ATOM      8  C   UNL     1       1.331   2.046  -2.631  0.00  0.00    +0.018 C 
ATOM      9  N   UNL     1       3.482   2.881  -3.470  0.00  0.00    +0.384 N 
ATOM     10  H   UNL     1       3.747   1.890  -3.414  0.00  0.00    -0.081 HD
ENDROOT
BRANCH   2  11
ATOM     11  C   UNL     1      -0.014   1.213   0.009  0.00  0.00    +0.244 C 
ATOM     12  O   UNL     1       0.002  -0.004   0.002  0.00  0.00    -0.270 OA
ATOM     13  N   UNL     1      -1.191   1.871   0.018  0.00  0.00    -0.325 N 
ATOM     14  H   UNL     1      -2.024   1.375   0.019  0.00  0.00    +0.145 HD
ATOM     15  H   UNL     1      -1.204   2.841   0.023  0.00  0.00    +0.145 HD
ENDBRANCH   2  11
BRANCH   1  18
ATOM     16  C   UNL     1       2.216   2.522   3.518  0.00  0.00    +0.270 C 
ATOM     17  O   UNL     1       3.243   3.136   3.307  0.00  0.00    -0.268 OA
ATOM     18  N   UNL     1       1.469   2.083   2.486  0.00  0.00    -0.274 N 
ATOM     19  H   UNL     1       0.649   1.594   2.654  0.00  0.00    +0.156 HD
BRANCH  16  23
ATOM     20  C   UNL     1       1.897   2.307   8.576  0.00  0.00    +0.089 C 
ATOM     21  C   UNL     1       1.661   2.174   7.093  0.00  0.00    +0.135 A 
ATOM     22  C   UNL     1       2.453   2.650   6.104  0.00  0.00    +0.080 A 
ATOM     23  C   UNL     1       1.783   2.257   4.911  0.00  0.00    +0.168 A 
ATOM     24  N   UNL     1       0.704   1.619   5.293  0.00  0.00    -0.073 NA
ATOM     25  O   UNL     1       0.628   1.562   6.498  0.00  0.00    -0.359 OA
ENDBRANCH  16  23
ENDBRANCH   1  18
BRANCH   9  26
ATOM     26  C   UNL     1       4.162   3.495  -4.631  0.00  0.00    -0.074 C 
ATOM     27  C   UNL     1       5.670   3.516  -4.372  0.00  0.00    -0.014 C 
ATOM     28  C   UNL     1       3.870   2.656  -5.877  0.00  0.00    -0.014 C 
ENDBRANCH   9  26
TORSDOF 4
