REMARK  Name = ZINC64733542
REMARK  7 active torsions:
REMARK  status: ('A' for Active; 'I' for Inactive)
REMARK    1  A    between atoms: C_1  and  C_2
REMARK    2  A    between atoms: C_2  and  C_3
REMARK    3  A    between atoms: C_3  and  C_5
REMARK    4  A    between atoms: C_3  and  N_14
REMARK    5  A    between atoms: C_10  and  C_13
REMARK    6  A    between atoms: N_14  and  N_15
REMARK    7  A    between atoms: C_16  and  C_18
REMARK                            x       y       z     vdW  Elec       q    Type
REMARK                         _______ _______ _______ _____ _____    ______ ____
ROOT
ATOM      1  N   UNL     1      -2.107  -0.147  -1.234  0.00  0.00    -0.228 NA
ATOM      2  H   UNL     1      -3.076  -0.429  -1.224  0.00  0.00    +0.145 HD
ENDROOT
BRANCH   1   3
ATOM      3  N   UNL     1      -1.459  -0.662  -2.321  0.00  0.00    -0.246 N 
ATOM      4  C   UNL     1      -1.925  -0.418  -3.561  0.00  0.00    +0.256 C 
ATOM      5  O   UNL     1      -2.924   0.260  -3.714  0.00  0.00    -0.269 OA
ATOM      6  H   UNL     1      -0.663  -1.202  -2.199  0.00  0.00    +0.169 HD
BRANCH   4   7
ATOM      7  C   UNL     1      -1.229  -0.970  -4.728  0.00  0.00    +0.044 C 
ATOM      8  C   UNL     1      -1.570  -0.811  -6.053  0.00  0.00    +0.008 A 
ATOM      9  C   UNL     1      -2.625  -0.118  -6.700  0.00  0.00    +0.010 A 
ATOM     10  C   UNL     1      -2.721  -0.131  -8.047  0.00  0.00    +0.001 A 
ATOM     11  C   UNL     1      -1.805  -0.815  -8.862  0.00  0.00    +0.002 A 
ATOM     12  C   UNL     1      -0.765  -1.506  -8.346  0.00  0.00    +0.026 A 
ATOM     13  C   UNL     1      -0.586  -1.544  -6.886  0.00  0.00    +0.043 A 
ATOM     14  N   UNL     1       0.309  -2.120  -6.134  0.00  0.00    -0.380 N 
ATOM     15  C   UNL     1       0.017  -1.828  -4.727  0.00  0.00    +0.154 C 
ATOM     16  H   UNL     1       1.052  -2.655  -6.455  0.00  0.00    +0.160 HD
ENDBRANCH   4   7
ENDBRANCH   1   3
BRANCH   1  17
ATOM     17  C   UNL     1      -1.433  -0.534   0.013  0.00  0.00    +0.158 C 
BRANCH  17  18
ATOM     18  C   UNL     1      -1.414  -2.036   0.129  0.00  0.00    +0.237 C 
ATOM     19  O   UNL     1      -1.912  -2.718  -0.742  0.00  0.00    -0.274 OA
ATOM     20  N   UNL     1      -0.842  -2.622   1.199  0.00  0.00    -0.266 N 
ATOM     21  C   UNL     1      -0.824  -4.013   1.306  0.00  0.00    +0.168 A 
ATOM     22  C   UNL     1      -1.359  -4.926   0.370  0.00  0.00    +0.091 A 
ATOM     23  C   UNL     1      -1.144  -6.171   0.832  0.00  0.00    +0.136 A 
ATOM     24  O   UNL     1      -0.502  -6.077   2.007  0.00  0.00    -0.358 OA
ATOM     25  N   UNL     1      -0.304  -4.703   2.289  0.00  0.00    -0.063 NA
ATOM     26  C   UNL     1      -1.552  -7.450   0.147  0.00  0.00    +0.089 C 
ATOM     27  H   UNL     1      -0.444  -2.077   1.895  0.00  0.00    +0.156 HD
ENDBRANCH  17  18
BRANCH  17  29
ATOM     28  C   UNL     1      -0.019   1.526   0.010  0.00  0.00    +0.006 C 
ATOM     29  C   UNL     1       0.002  -0.004   0.002  0.00  0.00    +0.026 C 
ENDBRANCH  17  29
ENDBRANCH   1  17
TORSDOF 5
