REMARK  Name = ZINC39605614
REMARK  8 active torsions:
REMARK  status: ('A' for Active; 'I' for Inactive)
REMARK    1  A    between atoms: C_1  and  C_2
REMARK    2  A    between atoms: C_4  and  C_8
REMARK    3  A    between atoms: N_6  and  C_7
REMARK    4  A    between atoms: C_12  and  C_21
REMARK    5  A    between atoms: N_23  and  C_24
REMARK    6  A    between atoms: C_24  and  C_25
REMARK    7  A    between atoms: C_25  and  C_26
REMARK    8  A    between atoms: C_26  and  O_27
REMARK                            x       y       z     vdW  Elec       q    Type
REMARK                         _______ _______ _______ _____ _____    ______ ____
ROOT
ATOM      1  C   UNL     1       0.078  -3.478  -1.513  0.00  0.00    +0.267 C 
ATOM      2  O   UNL     1       0.017  -3.448  -2.727  0.00  0.00    -0.268 OA
ATOM      3  N   UNL     1       0.063  -4.661  -0.867  0.00  0.00    -0.295 N 
ATOM      4  C   UNL     1       0.122  -4.898   0.595  0.00  0.00    +0.121 C 
ATOM      5  C   UNL     1      -0.860  -6.066   0.841  0.00  0.00    +0.100 C 
ATOM      6  C   UNL     1      -0.946  -6.797  -0.509  0.00  0.00    -0.004 C 
ATOM      7  C   UNL     1      -0.023  -6.018  -1.458  0.00  0.00    +0.115 C 
ATOM      8  C   UNL     1      -2.378  -6.770  -1.035  0.00  0.00    -0.010 C 
ATOM      9  C   UNL     1      -2.448  -7.553  -2.350  0.00  0.00    -0.082 C 
ATOM     10  N   UNL     1      -2.016  -8.937  -2.121  0.00  0.00    +0.379 N 
ATOM     11  C   UNL     1      -0.609  -8.960  -1.704  0.00  0.00    -0.082 C 
ATOM     12  C   UNL     1      -0.460  -8.236  -0.362  0.00  0.00    -0.010 C 
ATOM     13  H   UNL     1      -2.586  -9.351  -1.399  0.00  0.00    -0.086 HD
ATOM     14  H   UNL     1      -2.121  -9.466  -2.974  0.00  0.00    -0.086 HD
ENDROOT
BRANCH   1  18
ATOM     15  C   UNL     1       0.345   1.421  -0.243  0.00  0.00    +0.065 C 
ATOM     16  C   UNL     1       0.285  -0.084  -0.209  0.00  0.00    +0.037 A 
ATOM     17  C   UNL     1       0.196  -0.908  -1.279  0.00  0.00    +0.057 A 
ATOM     18  C   UNL     1       0.170  -2.219  -0.746  0.00  0.00    +0.147 A 
ATOM     19  N   UNL     1       0.241  -2.102   0.565  0.00  0.00    -0.167 NA
ATOM     20  N   UNL     1       0.314  -0.863   0.894  0.00  0.00    -0.271 N 
ATOM     21  C   UNL     1       0.411  -0.365   2.268  0.00  0.00    +0.172 C 
ENDBRANCH   1  18
BRANCH   5  22
ATOM     22  C   UNL     1      -0.325  -6.986   1.906  0.00  0.00    +0.218 C 
ATOM     23  O   UNL     1       0.873  -7.123   2.045  0.00  0.00    -0.275 OA
ATOM     24  N   UNL     1      -1.176  -7.659   2.706  0.00  0.00    -0.315 N 
ATOM     25  H   UNL     1      -2.134  -7.550   2.596  0.00  0.00    +0.149 HD
BRANCH  24  26
ATOM     26  C   UNL     1      -0.655  -8.554   3.742  0.00  0.00    +0.106 C 
BRANCH  26  27
ATOM     27  C   UNL     1      -1.823  -9.188   4.502  0.00  0.00    +0.046 C 
BRANCH  27  28
ATOM     28  C   UNL     1      -1.279 -10.123   5.584  0.00  0.00    +0.157 C 
BRANCH  28  29
ATOM     29  O   UNL     1      -2.369 -10.714   6.294  0.00  0.00    -0.395 OA
ATOM     30  H   UNL     1      -2.098 -11.321   6.997  0.00  0.00    +0.209 HD
ENDBRANCH  28  29
ENDBRANCH  27  28
ENDBRANCH  26  27
ENDBRANCH  24  26
ENDBRANCH   5  22
TORSDOF 6
