REMARK  Name = ZINC39680676
REMARK  6 active torsions:
REMARK  status: ('A' for Active; 'I' for Inactive)
REMARK    1  A    between atoms: C_1  and  N_2
REMARK    2  A    between atoms: N_2  and  C_3
REMARK    3  A    between atoms: C_4  and  C_6
REMARK    4  A    between atoms: C_6  and  N_7
REMARK    5  A    between atoms: C_8  and  C_10
REMARK    6  A    between atoms: C_21  and  C_23
REMARK                            x       y       z     vdW  Elec       q    Type
REMARK                         _______ _______ _______ _____ _____    ______ ____
ROOT
ATOM      1  C   UNL     1       0.023  -4.478  -4.238  0.00  0.00    +0.100 C 
ATOM      2  C   UNL     1       1.236  -3.912  -5.010  0.00  0.00    +0.121 C 
ATOM      3  N   UNL     1       2.269  -4.969  -4.910  0.00  0.00    -0.300 N 
ATOM      4  C   UNL     1       1.515  -6.237  -5.059  0.00  0.00    +0.115 C 
ATOM      5  C   UNL     1       0.208  -6.004  -4.275  0.00  0.00    -0.004 C 
ATOM      6  C   UNL     1      -0.965  -6.661  -4.997  0.00  0.00    -0.010 C 
ATOM      7  C   UNL     1      -0.787  -8.182  -4.970  0.00  0.00    -0.082 C 
ATOM      8  N   UNL     1      -0.722  -8.644  -3.579  0.00  0.00    +0.379 N 
ATOM      9  C   UNL     1       0.461  -8.080  -2.919  0.00  0.00    -0.082 C 
ATOM     10  C   UNL     1       0.337  -6.555  -2.859  0.00  0.00    -0.010 C 
ATOM     11  C   UNL     1       3.595  -4.813  -4.727  0.00  0.00    +0.219 C 
ATOM     12  O   UNL     1       4.318  -5.786  -4.666  0.00  0.00    -0.275 OA
ATOM     13  H   UNL     1      -1.553  -8.348  -3.088  0.00  0.00    -0.086 HD
ATOM     14  H   UNL     1      -0.667  -9.652  -3.563  0.00  0.00    -0.086 HD
ENDROOT
BRANCH  11  15
ATOM     15  C   UNL     1       4.181  -3.431  -4.597  0.00  0.00    +0.079 C 
ATOM     16  C   UNL     1       5.700  -3.530  -4.408  0.00  0.00    +0.017 C 
ATOM     17  C   UNL     1       6.242  -2.132  -4.101  0.00  0.00    +0.027 C 
ATOM     18  C   UNL     1       5.718  -1.143  -5.102  0.00  0.00    -0.031 C 
ATOM     19  C   UNL     1       4.698  -1.360  -5.870  0.00  0.00    -0.030 C 
ATOM     20  C   UNL     1       3.898  -2.631  -5.870  0.00  0.00    +0.039 C 
ENDBRANCH  11  15
BRANCH   1  22
ATOM     21  N   UNL     1      -1.131  -3.851  -2.141  0.00  0.00    -0.306 N 
ATOM     22  C   UNL     1       0.030  -3.983  -2.814  0.00  0.00    +0.219 C 
ATOM     23  O   UNL     1       1.079  -3.703  -2.275  0.00  0.00    -0.275 OA
ATOM     24  H   UNL     1      -1.970  -4.075  -2.573  0.00  0.00    +0.149 HD
BRANCH  21  25
ATOM     25  C   UNL     1      -1.124  -3.370  -0.757  0.00  0.00    +0.200 C 
BRANCH  25  29
ATOM     26  C   UNL     1      -4.152  -2.844   1.526  0.00  0.00    +0.131 C 
ATOM     27  N   UNL     1      -2.777  -2.898   1.021  0.00  0.00    -0.306 N 
ATOM     28  C   UNL     1      -1.663  -2.501   1.885  0.00  0.00    +0.131 C 
ATOM     29  C   UNL     1      -2.538  -3.314  -0.238  0.00  0.00    +0.232 C 
ATOM     30  O   UNL     1      -3.460  -3.644  -0.954  0.00  0.00    -0.274 OA
ENDBRANCH  25  29
ENDBRANCH  21  25
ENDBRANCH   1  22
TORSDOF 4
