REMARK  Name = ZINC41153390
REMARK  3 active torsions:
REMARK  status: ('A' for Active; 'I' for Inactive)
REMARK    1  A    between atoms: C_8  and  C_10
REMARK    2  A    between atoms: C_12  and  C_15
REMARK    3  A    between atoms: C_15  and  N_21
REMARK                            x       y       z     vdW  Elec       q    Type
REMARK                         _______ _______ _______ _____ _____    ______ ____
ROOT
ATOM      1  C   UNL     1       3.796  -3.325  -0.054  0.00  0.00    +0.294 A 
ATOM      2  N   UNL     1       5.112  -3.365  -0.062  0.00  0.00    -0.191 NA
ATOM      3  C   UNL     1       5.529  -4.631  -0.075  0.00  0.00    +0.161 A 
ATOM      4  N   UNL     1       4.494  -5.423  -0.075  0.00  0.00    -0.062 NA
ATOM      5  O   UNL     1       3.343  -4.592  -0.056  0.00  0.00    -0.330 OA
ENDROOT
BRANCH   1  13
ATOM      6  C   UNL     1      -0.017   1.362   0.009  0.00  0.00    +0.001 A 
ATOM      7  C   UNL     1       1.171   2.082   0.002  0.00  0.00    +0.004 A 
ATOM      8  C   UNL     1       2.387   1.433  -0.013  0.00  0.00    +0.047 A 
ATOM      9  C   UNL     1       2.431   0.044  -0.021  0.00  0.00    +0.136 A 
ATOM     10  C   UNL     1       1.224  -0.680  -0.013  0.00  0.00    +0.021 A 
ATOM     11  C   UNL     1       0.002  -0.004   0.002  0.00  0.00    +0.011 A 
ATOM     12  C   UNL     1       1.609  -2.091  -0.025  0.00  0.00    +0.063 A 
ATOM     13  C   UNL     1       2.967  -2.111  -0.039  0.00  0.00    +0.193 A 
ATOM     14  O   UNL     1       3.441  -0.848  -0.037  0.00  0.00    -0.450 OA
ENDBRANCH   1  13
BRANCH   3  15
ATOM     15  C   UNL     1       6.969  -5.077  -0.088  0.00  0.00    -0.006 C 
ATOM     16  C   UNL     1       7.661  -4.528  -1.337  0.00  0.00    -0.005 C 
ATOM     17  C   UNL     1       9.123  -4.980  -1.350  0.00  0.00    -0.001 C 
ATOM     18  C   UNL     1       9.184  -6.509  -1.363  0.00  0.00    -0.000 C 
ATOM     19  C   UNL     1       8.492  -7.057  -0.113  0.00  0.00    -0.001 C 
ATOM     20  C   UNL     1       7.030  -6.605  -0.101  0.00  0.00    -0.005 C 
BRANCH  15  21
ATOM     21  N   UNL     1       7.649  -4.569   1.111  0.00  0.00    +0.387 N 
ATOM     22  H   UNL     1       7.192  -4.931   1.935  0.00  0.00    -0.089 HD
ATOM     23  H   UNL     1       8.613  -4.867   1.103  0.00  0.00    -0.089 HD
ATOM     24  H   UNL     1       7.609  -3.561   1.120  0.00  0.00    -0.089 HD
ENDBRANCH  15  21
ENDBRANCH   3  15
TORSDOF 3
