REMARK  Name = ZINC55002319
REMARK  9 active torsions:
REMARK  status: ('A' for Active; 'I' for Inactive)
REMARK    1  A    between atoms: C_1  and  C_2
REMARK    2  A    between atoms: C_2  and  O_3
REMARK    3  A    between atoms: O_3  and  C_4
REMARK    4  A    between atoms: C_13  and  C_18
REMARK    5  A    between atoms: C_14  and  C_16
REMARK    6  A    between atoms: C_16  and  N_17
REMARK    7  A    between atoms: C_18  and  C_19
REMARK    8  A    between atoms: C_18  and  C_20
REMARK    9  A    between atoms: C_18  and  C_21
REMARK                            x       y       z     vdW  Elec       q    Type
REMARK                         _______ _______ _______ _____ _____    ______ ____
ROOT
ATOM      1  C   UNL     1       1.675  -2.860  -2.559  0.00  0.00    +0.136 C 
ATOM      2  C   UNL     1       2.462  -3.450  -3.732  0.00  0.00    +0.035 C 
ATOM      3  C   UNL     1       2.190  -4.953  -3.826  0.00  0.00    +0.021 C 
ATOM      4  C   UNL     1       0.697  -5.184  -4.080  0.00  0.00    +0.107 C 
ATOM      5  N   UNL     1      -0.072  -4.496  -3.034  0.00  0.00    -0.307 N 
ATOM      6  C   UNL     1       0.176  -3.067  -2.798  0.00  0.00    +0.138 C 
ATOM      7  C   UNL     1      -1.015  -5.181  -2.284  0.00  0.00    +0.161 A 
ATOM      8  N   UNL     1      -1.355  -6.450  -2.360  0.00  0.00    -0.229 NA
ATOM      9  C   UNL     1      -2.282  -6.957  -1.566  0.00  0.00    +0.057 A 
ATOM     10  C   UNL     1      -2.859  -6.113  -0.677  0.00  0.00    -0.003 A 
ATOM     11  S   UNL     1      -1.997  -4.595  -1.050  0.00  0.00    -0.059 S 
ENDROOT
BRANCH   9  12
ATOM     12  C   UNL     1      -2.679  -8.408  -1.645  0.00  0.00    +0.005 C 
ATOM     13  C   UNL     1      -1.756  -9.136  -2.625  0.00  0.00    +0.017 C 
ATOM     14  C   UNL     1      -2.557  -9.047  -0.260  0.00  0.00    +0.017 C 
ATOM     15  C   UNL     1      -4.126  -8.515  -2.131  0.00  0.00    +0.017 C 
ENDBRANCH   9  12
BRANCH   1  16
ATOM     16  O   UNL     1       1.953  -1.462  -2.454  0.00  0.00    -0.375 OA
BRANCH  16  18
ATOM     17  C   UNL     1       2.185   0.545  -1.129  0.00  0.00    +0.034 C 
ATOM     18  C   UNL     1       1.870  -0.952  -1.122  0.00  0.00    +0.157 C 
ENDBRANCH  16  18
ENDBRANCH   1  16
BRANCH  10  19
ATOM     19  C   UNL     1      -3.930  -6.383   0.348  0.00  0.00    -0.041 C 
BRANCH  19  20
ATOM     20  N   UNL     1      -3.306  -6.626   1.656  0.00  0.00    +0.381 N 
ATOM     21  H   UNL     1      -4.005  -6.950   2.307  0.00  0.00    -0.090 HD
ATOM     22  H   UNL     1      -2.586  -7.325   1.560  0.00  0.00    -0.090 HD
ATOM     23  H   UNL     1      -2.899  -5.768   1.998  0.00  0.00    -0.090 HD
ENDBRANCH  19  20
ENDBRANCH  10  19
TORSDOF 5
