REMARK  Name = ZINC22066504
REMARK  14 active torsions:
REMARK  status: ('A' for Active; 'I' for Inactive)
REMARK    1  A    between atoms: C_1  and  C_2
REMARK    2  A    between atoms: C_4  and  O_39
REMARK    3  A    between atoms: C_6  and  O_35
REMARK    4  A    between atoms: C_8  and  O_34
REMARK    5  A    between atoms: C_10  and  O_13
REMARK    6  A    between atoms: O_13  and  C_14
REMARK    7  A    between atoms: C_18  and  O_33
REMARK    8  A    between atoms: C_20  and  O_32
REMARK    9  A    between atoms: C_24  and  C_25
REMARK   10  A    between atoms: C_28  and  O_31
REMARK   11  A    between atoms: O_35  and  C_36
REMARK   12  A    between atoms: C_36  and  C_38
REMARK   13  A    between atoms: O_39  and  C_40
REMARK   14  A    between atoms: C_40  and  C_42
REMARK                            x       y       z     vdW  Elec       q    Type
REMARK                         _______ _______ _______ _____ _____    ______ ____
ROOT
ATOM      1  C   UNL     1      -0.052  -4.900  -1.213  0.00  0.00    +0.214 A 
ATOM      2  C   UNL     1      -0.010  -6.319  -1.240  0.00  0.00    +0.238 A 
ATOM      3  O   UNL     1      -0.086  -6.936  -2.290  0.00  0.00    -0.283 OA
ATOM      4  C   UNL     1       0.124  -7.016   0.049  0.00  0.00    +0.109 A 
ATOM      5  C   UNL     1       0.167  -8.415   0.117  0.00  0.00    +0.135 A 
ATOM      6  C   UNL     1       0.293  -9.034   1.346  0.00  0.00    +0.091 A 
ATOM      7  C   UNL     1       0.376  -8.271   2.507  0.00  0.00    +0.124 A 
ATOM      8  C   UNL     1       0.334  -6.888   2.447  0.00  0.00    +0.092 A 
ATOM      9  C   UNL     1       0.208  -6.248   1.223  0.00  0.00    +0.147 A 
ATOM     10  O   UNL     1       0.165  -4.902   1.149  0.00  0.00    -0.451 OA
ATOM     11  C   UNL     1       0.043  -4.250  -0.020  0.00  0.00    +0.181 A 
ENDROOT
BRANCH  11  12
ATOM     12  C   UNL     1       0.003  -2.776  -0.010  0.00  0.00    +0.021 A 
ATOM     13  C   UNL     1      -0.990  -2.096  -0.721  0.00  0.00    +0.015 A 
ATOM     14  C   UNL     1      -1.023  -0.719  -0.708  0.00  0.00    +0.046 A 
ATOM     15  C   UNL     1      -0.071  -0.006   0.010  0.00  0.00    +0.117 A 
ATOM     16  C   UNL     1       0.921  -0.677   0.714  0.00  0.00    +0.046 A 
ATOM     17  C   UNL     1       0.959  -2.054   0.711  0.00  0.00    +0.015 A 
BRANCH  15  18
ATOM     18  O   UNL     1      -0.107   1.352   0.019  0.00  0.00    -0.507 OA
ATOM     19  H   UNL     1       0.645   1.918   0.587  0.00  0.00    +0.292 HD
ENDBRANCH  15  18
ENDBRANCH  11  12
BRANCH   7  20
ATOM     20  O   UNL     1       0.499  -8.889   3.709  0.00  0.00    -0.507 OA
ATOM     21  H   UNL     1       0.565  -8.292   4.630  0.00  0.00    +0.292 HD
ENDBRANCH   7  20
BRANCH   5  22
ATOM     22  O   UNL     1       0.087  -9.158  -1.017  0.00  0.00    -0.506 OA
ATOM     23  H   UNL     1       0.121 -10.255  -0.959  0.00  0.00    +0.292 HD
ENDBRANCH   5  22
BRANCH   1  24
ATOM     24  O   UNL     1      -0.180  -4.196  -2.370  0.00  0.00    -0.453 OA
BRANCH  24  30
ATOM     25  C   UNL     1       3.871  -4.081  -3.267  0.00  0.00    +0.042 C 
ATOM     26  C   UNL     1       3.115  -2.783  -2.982  0.00  0.00    +0.164 C 
ATOM     27  C   UNL     1       2.845  -2.049  -4.298  0.00  0.00    +0.248 C 
ATOM     28  C   UNL     1       1.953  -2.921  -5.186  0.00  0.00    +0.254 C 
ATOM     29  C   UNL     1       0.662  -3.249  -4.429  0.00  0.00    +0.227 C 
ATOM     30  C   UNL     1       1.016  -3.937  -3.108  0.00  0.00    +0.341 C 
ATOM     31  O   UNL     1       1.872  -3.085  -2.344  0.00  0.00    -0.333 OA
BRANCH  29  32
ATOM     32  O   UNL     1      -0.146  -4.122  -5.220  0.00  0.00    -0.382 OA
ATOM     33  H   UNL     1      -1.118  -4.468  -4.838  0.00  0.00    +0.210 HD
ENDBRANCH  29  32
BRANCH  28  34
ATOM     34  O   UNL     1       1.631  -2.201  -6.406  0.00  0.00    -0.455 OA
BRANCH  34  35
ATOM     35  C   UNL     1       1.413  -2.937  -7.508  0.00  0.00    +0.304 C 
ATOM     36  O   UNL     1       1.490  -4.141  -7.455  0.00  0.00    -0.251 OA
ATOM     37  C   UNL     1       1.074  -2.260  -8.810  0.00  0.00    +0.136 C 
ENDBRANCH  34  35
ENDBRANCH  28  34
BRANCH  27  38
ATOM     38  O   UNL     1       2.175  -0.790  -4.023  0.00  0.00    -0.455 OA
BRANCH  38  39
ATOM     39  C   UNL     1       2.954   0.285  -3.827  0.00  0.00    +0.304 C 
ATOM     40  O   UNL     1       4.156   0.178  -3.883  0.00  0.00    -0.251 OA
ATOM     41  C   UNL     1       2.329   1.625  -3.537  0.00  0.00    +0.136 C 
ENDBRANCH  38  39
ENDBRANCH  27  38
ENDBRANCH  24  30
ENDBRANCH   1  24
TORSDOF 11
