REMARK  Name = ZINC05681304
REMARK  5 active torsions:
REMARK  status: ('A' for Active; 'I' for Inactive)
REMARK    1  A    between atoms: C_4  and  C_7
REMARK    2  A    between atoms: N_9  and  C_10
REMARK    3  A    between atoms: C_10  and  N_12
REMARK    4  A    between atoms: N_12  and  N_13
REMARK    5  A    between atoms: C_14  and  C_16
REMARK                            x       y       z     vdW  Elec       q    Type
REMARK                         _______ _______ _______ _____ _____    ______ ____
ROOT
ATOM      1  N   UNL     1      -2.295  -2.731   0.009  0.00  0.00    -0.245 N 
ATOM      2  H   UNL     1      -2.282  -3.701   0.004  0.00  0.00    +0.172 HD
ENDROOT
BRANCH   1   3
ATOM      3  N   UNL     1      -3.518  -2.047   0.025  0.00  0.00    -0.231 N 
ATOM      4  C   UNL     1      -4.676  -2.737   0.032  0.00  0.00    +0.260 C 
ATOM      5  O   UNL     1      -4.660  -3.952   0.025  0.00  0.00    -0.269 OA
ATOM      6  H   UNL     1      -3.531  -1.077   0.030  0.00  0.00    +0.173 HD
BRANCH   4   7
ATOM      7  C   UNL     1      -5.966  -2.015   0.048  0.00  0.00    +0.038 A 
ATOM      8  C   UNL     1      -5.988  -0.620   0.062  0.00  0.00    +0.014 A 
ATOM      9  C   UNL     1      -7.194   0.048   0.072  0.00  0.00    +0.021 A 
ATOM     10  C   UNL     1      -8.383  -0.663   0.080  0.00  0.00    +0.041 A 
ATOM     11  C   UNL     1      -8.367  -2.049   0.071  0.00  0.00    +0.021 A 
ATOM     12  C   UNL     1      -7.167  -2.727   0.056  0.00  0.00    +0.014 A 
ATOM     13 CL   UNL     1      -9.898   0.184   0.099  0.00  0.00    -0.084 Cl
ENDBRANCH   4   7
ENDBRANCH   1   3
BRANCH   1  14
ATOM     14  C   UNL     1      -1.137  -2.041   0.002  0.00  0.00    +0.153 C 
ATOM     15  S   UNL     1       0.356  -2.877  -0.017  0.00  0.00    -0.017 S 
BRANCH  14  18
ATOM     16  C   UNL     1       0.002  -0.004   0.002  0.00  0.00    +0.250 C 
ATOM     17  O   UNL     1       1.063  -0.597  -0.011  0.00  0.00    -0.270 OA
ATOM     18  N   UNL     1      -1.156  -0.694   0.009  0.00  0.00    -0.263 N 
ATOM     19  H   UNL     1      -2.002  -0.220   0.020  0.00  0.00    +0.157 HD
BRANCH  16  23
ATOM     20  C   UNL     1      -0.056   4.242   0.025  0.00  0.00    +0.000 A 
ATOM     21  C   UNL     1       1.154   3.570   0.010  0.00  0.00    +0.001 A 
ATOM     22  C   UNL     1       1.180   2.191   0.003  0.00  0.00    +0.013 A 
ATOM     23  C   UNL     1      -0.018   1.474   0.010  0.00  0.00    +0.037 A 
ATOM     24  C   UNL     1      -1.235   2.158   0.020  0.00  0.00    +0.013 A 
ATOM     25  C   UNL     1      -1.246   3.538   0.033  0.00  0.00    +0.001 A 
ENDBRANCH  16  23
ENDBRANCH  14  18
ENDBRANCH   1  14
TORSDOF 5
