REMARK  Name = ZINC67190172
REMARK  6 active torsions:
REMARK  status: ('A' for Active; 'I' for Inactive)
REMARK    1  A    between atoms: C_1  and  C_2
REMARK    2  A    between atoms: C_6  and  N_9
REMARK    3  A    between atoms: C_7  and  C_8
REMARK    4  A    between atoms: C_10  and  C_12
REMARK    5  A    between atoms: C_18  and  O_23
REMARK    6  A    between atoms: O_23  and  C_24
REMARK                            x       y       z     vdW  Elec       q    Type
REMARK                         _______ _______ _______ _____ _____    ______ ____
ROOT
ATOM      1  C   UNL     1      -0.187  -4.855   3.637  0.00  0.00    +0.097 A 
ATOM      2  C   UNL     1      -0.156  -6.242   3.644  0.00  0.00    +0.030 A 
ATOM      3  C   UNL     1      -0.190  -6.910   4.948  0.00  0.00    +0.022 A 
ATOM      4  C   UNL     1       0.103  -8.275   5.061  0.00  0.00    +0.012 A 
ATOM      5  C   UNL     1       0.072  -8.878   6.287  0.00  0.00    +0.004 A 
ATOM      6  C   UNL     1      -0.248  -8.150   7.423  0.00  0.00    +0.049 A 
ATOM      7  C   UNL     1      -0.543  -6.800   7.336  0.00  0.00    +0.163 A 
ATOM      8  C   UNL     1      -0.518  -6.168   6.096  0.00  0.00    +0.179 A 
ATOM      9  O   UNL     1      -0.811  -4.849   5.988  0.00  0.00    -0.435 OA
ATOM     10  C   UNL     1      -0.245  -4.176   4.950  0.00  0.00    +0.205 A 
ATOM     11  N   UNL     1       0.229  -2.969   5.106  0.00  0.00    -0.369 N 
ATOM     12  H   UNL     1       0.729  -2.548   4.388  0.00  0.00    +0.159 HD
ATOM     13  H   UNL     1       0.082  -2.493   5.938  0.00  0.00    +0.159 HD
ENDROOT
BRANCH   1  15
ATOM     14  N   UNL     1      -0.293  -2.753   2.399  0.00  0.00    -0.281 N 
ATOM     15  C   UNL     1      -0.156  -4.093   2.378  0.00  0.00    +0.253 C 
ATOM     16  O   UNL     1      -0.007  -4.673   1.319  0.00  0.00    -0.270 OA
ATOM     17  H   UNL     1      -0.364  -2.285   3.246  0.00  0.00    +0.155 HD
BRANCH  14  23
ATOM     18  C   UNL     1      -1.529   1.324  -0.055  0.00  0.00    +0.044 C 
ATOM     19  C   UNL     1      -0.927  -0.057  -0.019  0.00  0.00    -0.046 A 
ATOM     20  C   UNL     1      -0.413  -0.617  -1.175  0.00  0.00    +0.004 A 
ATOM     21  C   UNL     1       0.141  -1.883  -1.147  0.00  0.00    +0.002 A 
ATOM     22  C   UNL     1       0.182  -2.594   0.037  0.00  0.00    +0.023 A 
ATOM     23  C   UNL     1      -0.333  -2.035   1.199  0.00  0.00    +0.037 A 
ATOM     24  C   UNL     1      -0.883  -0.760   1.168  0.00  0.00    -0.026 A 
ATOM     25  C   UNL     1      -1.438  -0.148   2.429  0.00  0.00    +0.046 C 
ENDBRANCH  14  23
ENDBRANCH   1  15
BRANCH   7  26
ATOM     26  O   UNL     1      -0.855  -6.096   8.456  0.00  0.00    -0.491 OA
ATOM     27  C   UNL     1      -0.859  -6.811   9.693  0.00  0.00    +0.277 C 
ENDBRANCH   7  26
TORSDOF 3
