REMARK  Name = ZINC63611407
REMARK  3 active torsions:
REMARK  status: ('A' for Active; 'I' for Inactive)
REMARK    1  A    between atoms: C_6  and  C_11
REMARK    2  A    between atoms: N_13  and  N_14
REMARK    3  A    between atoms: C_15  and  C_17
REMARK                            x       y       z     vdW  Elec       q    Type
REMARK                         _______ _______ _______ _____ _____    ______ ____
ROOT
ATOM      1  C   UNL     1       3.656  -2.764   1.185  0.00  0.00    +0.255 C 
ATOM      2  O   UNL     1       4.332  -2.165   1.995  0.00  0.00    -0.272 OA
ATOM      3  N   UNL     1       3.363  -4.065   1.381  0.00  0.00    -0.232 N 
ATOM      4  H   UNL     1       2.823  -4.543   0.734  0.00  0.00    +0.173 HD
ENDROOT
BRANCH   1  10
ATOM      5  C   UNL     1      -0.016   1.348   0.009  0.00  0.00    +0.001 A 
ATOM      6  C   UNL     1       1.166   2.101   0.002  0.00  0.00    +0.002 A 
ATOM      7  C   UNL     1       2.391   1.535  -0.013  0.00  0.00    +0.026 A 
ATOM      8  C   UNL     1       2.529   0.120  -0.022  0.00  0.00    +0.043 A 
ATOM      9  N   UNL     1       3.587  -0.654  -0.037  0.00  0.00    -0.370 N 
ATOM     10  C   UNL     1       3.143  -2.053  -0.041  0.00  0.00    +0.191 C 
ATOM     11  C   UNL     1       1.631  -2.008  -0.025  0.00  0.00    +0.016 C 
ATOM     12  C   UNL     1       1.295  -0.698  -0.014  0.00  0.00    -0.004 A 
ATOM     13  C   UNL     1       0.002  -0.004   0.002  0.00  0.00    +0.010 A 
ATOM     14  H   UNL     1       4.509  -0.353  -0.045  0.00  0.00    +0.161 HD
ENDBRANCH   1  10
BRANCH   3  15
ATOM     15  N   UNL     1       3.840  -4.726   2.521  0.00  0.00    -0.234 N 
ATOM     16  C   UNL     1       3.548  -6.027   2.717  0.00  0.00    +0.235 C 
ATOM     17  O   UNL     1       2.872  -6.625   1.907  0.00  0.00    -0.274 OA
ATOM     18  H   UNL     1       4.381  -4.247   3.169  0.00  0.00    +0.173 HD
BRANCH  16  19
ATOM     19  C   UNL     1       4.060  -6.738   3.943  0.00  0.00    +0.049 C 
ATOM     20  C   UNL     1       3.523  -6.045   5.197  0.00  0.00    +0.019 C 
ATOM     21  C   UNL     1       4.043  -6.766   6.441  0.00  0.00    -0.009 C 
ATOM     22  C   UNL     1       3.572  -8.222   6.421  0.00  0.00    +0.007 C 
ATOM     23  C   UNL     1       4.110  -8.915   5.167  0.00  0.00    -0.009 C 
ATOM     24  C   UNL     1       3.589  -8.193   3.923  0.00  0.00    +0.019 C 
ATOM     25  C   UNL     1       5.639  -8.874   5.178  0.00  0.00    +0.007 C 
ATOM     26  C   UNL     1       6.110  -7.419   5.198  0.00  0.00    -0.009 C 
ATOM     27  C   UNL     1       5.573  -6.726   6.452  0.00  0.00    +0.007 C 
ATOM     28  C   UNL     1       5.590  -6.697   3.954  0.00  0.00    +0.019 C 
ENDBRANCH  16  19
ENDBRANCH   3  15
TORSDOF 3
