REMARK  Name = ZINC60456512
REMARK  10 active torsions:
REMARK  status: ('A' for Active; 'I' for Inactive)
REMARK    1  A    between atoms: C_1  and  C_2
REMARK    2  A    between atoms: C_2  and  C_3
REMARK    3  A    between atoms: C_2  and  C_4
REMARK    4  A    between atoms: C_4  and  C_5
REMARK    5  A    between atoms: C_5  and  C_6
REMARK    6  A    between atoms: C_5  and  N_25
REMARK    7  A    between atoms: N_8  and  C_9
REMARK    8  A    between atoms: C_9  and  C_10
REMARK    9  A    between atoms: C_13  and  C_16
REMARK   10  A    between atoms: N_21  and  C_24
REMARK                            x       y       z     vdW  Elec       q    Type
REMARK                         _______ _______ _______ _____ _____    ______ ____
ROOT
ATOM      1  C   UNL     1      -5.742  -0.405  -0.198  0.00  0.00    +0.139 C 
ENDROOT
BRANCH   1   2
ATOM      2  C   UNL     1      -6.423   0.265   0.968  0.00  0.00    -0.030 A 
ATOM      3  C   UNL     1      -6.679  -0.455   2.122  0.00  0.00    +0.006 A 
ATOM      4  C   UNL     1      -7.302   0.152   3.192  0.00  0.00    +0.013 A 
ATOM      5  C   UNL     1      -7.674   1.495   3.110  0.00  0.00    +0.037 A 
ATOM      6  C   UNL     1      -7.413   2.215   1.943  0.00  0.00    +0.013 A 
ATOM      7  C   UNL     1      -6.784   1.598   0.882  0.00  0.00    +0.006 A 
BRANCH   5   8
ATOM      8  C   UNL     1      -8.343   2.152   4.253  0.00  0.00    +0.246 C 
ATOM      9  O   UNL     1      -8.002   1.888   5.390  0.00  0.00    -0.270 OA
ATOM     10  N   UNL     1      -9.330   3.043   4.036  0.00  0.00    -0.301 N 
ATOM     11  C   UNL     1      -9.850   3.280   2.680  0.00  0.00    +0.089 C 
ATOM     12  C   UNL     1     -11.378   3.175   2.721  0.00  0.00    -0.060 C 
ATOM     13  N   UNL     1     -11.903   4.092   3.740  0.00  0.00    +0.380 N 
ATOM     14  C   UNL     1     -11.443   3.677   5.071  0.00  0.00    -0.060 C 
ATOM     15  C   UNL     1      -9.922   3.803   5.148  0.00  0.00    +0.089 C 
ATOM     16  C   UNL     1     -13.372   4.073   3.703  0.00  0.00    -0.096 C 
ATOM     17  H   UNL     1     -11.577   5.028   3.549  0.00  0.00    -0.082 HD
ENDBRANCH   5   8
ENDBRANCH   1   2
BRANCH   1  20
ATOM     18  C   UNL     1      -3.472  -0.779  -1.001  0.00  0.00    +0.234 C 
ATOM     19  O   UNL     1      -3.937  -1.373  -1.950  0.00  0.00    -0.274 OA
ATOM     20  N   UNL     1      -4.290  -0.255  -0.067  0.00  0.00    -0.310 N 
ATOM     21  H   UNL     1      -3.918   0.221   0.692  0.00  0.00    +0.149 HD
BRANCH  18  22
ATOM     22  C   UNL     1      -1.979  -0.625  -0.867  0.00  0.00    +0.161 C 
BRANCH  22  23
ATOM     23  N   UNL     1      -1.317  -1.276  -2.000  0.00  0.00    -0.288 N 
ATOM     24  C   UNL     1      -0.090  -0.872  -2.386  0.00  0.00    +0.298 C 
ATOM     25  O   UNL     1       0.467   0.032  -1.794  0.00  0.00    -0.253 OA
ATOM     26  N   UNL     1       0.519  -1.471  -3.429  0.00  0.00    -0.313 N 
ATOM     27  H   UNL     1      -1.761  -1.997  -2.473  0.00  0.00    +0.151 HD
ATOM     28  H   UNL     1       0.075  -2.192  -3.901  0.00  0.00    +0.146 HD
ATOM     29  H   UNL     1       1.402  -1.181  -3.707  0.00  0.00    +0.146 HD
ENDBRANCH  22  23
BRANCH  22  30
ATOM     30  C   UNL     1      -1.514  -1.276   0.438  0.00  0.00    +0.034 C 
BRANCH  30  32
ATOM     31  C   UNL     1       0.212   0.488   0.827  0.00  0.00    +0.007 C 
ATOM     32  C   UNL     1      -0.021  -1.012   0.636  0.00  0.00    -0.015 C 
ATOM     33  C   UNL     1       0.471  -1.766   1.873  0.00  0.00    +0.007 C 
ENDBRANCH  30  32
ENDBRANCH  22  30
ENDBRANCH  18  22
ENDBRANCH   1  20
TORSDOF 7
