REMARK  Name = ZINC36324461
REMARK  6 active torsions:
REMARK  status: ('A' for Active; 'I' for Inactive)
REMARK    1  A    between atoms: C_6  and  O_7
REMARK    2  A    between atoms: O_7  and  C_8
REMARK    3  A    between atoms: C_8  and  C_9
REMARK    4  A    between atoms: N_17  and  C_18
REMARK    5  A    between atoms: C_18  and  C_19
REMARK    6  A    between atoms: C_19  and  N_20
REMARK                            x       y       z     vdW  Elec       q    Type
REMARK                         _______ _______ _______ _____ _____    ______ ____
ROOT
ATOM      1  C   UNL     1      -2.454  -2.722   0.012  0.00  0.00    +0.150 A 
ATOM      2  N   UNL     1      -3.130  -3.018   1.083  0.00  0.00    -0.227 NA
ATOM      3  C   UNL     1      -4.335  -3.534   0.731  0.00  0.00    +0.110 A 
ATOM      4  C   UNL     1      -5.434  -4.010   1.453  0.00  0.00    +0.053 A 
ATOM      5  C   UNL     1      -6.526  -4.477   0.746  0.00  0.00    +0.061 A 
ATOM      6  C   UNL     1      -6.501  -4.460  -0.641  0.00  0.00    +0.133 A 
ATOM      7  N   UNL     1      -5.455  -4.008  -1.302  0.00  0.00    -0.234 NA
ATOM      8  C   UNL     1      -4.384  -3.549  -0.674  0.00  0.00    +0.161 A 
ATOM      9  N   UNL     1      -3.181  -3.025  -1.098  0.00  0.00    -0.312 N 
ATOM     10 CL   UNL     1      -7.919  -5.080   1.587  0.00  0.00    -0.082 Cl
ENDROOT
BRANCH   1  11
ATOM     11  C   UNL     1      -1.070  -2.126   0.001  0.00  0.00    +0.303 C 
BRANCH  11  12
ATOM     12  O   UNL     1      -1.165  -0.701   0.010  0.00  0.00    -0.484 OA
BRANCH  12  18
ATOM     13  C   UNL     1      -0.017   1.383   0.010  0.00  0.00    +0.047 A 
ATOM     14  C   UNL     1       1.171   2.089   0.002  0.00  0.00    +0.023 A 
ATOM     15  C   UNL     1       2.378   1.414  -0.013  0.00  0.00    +0.041 A 
ATOM     16  C   UNL     1       2.399   0.030  -0.021  0.00  0.00    +0.023 A 
ATOM     17  C   UNL     1       1.214  -0.679  -0.014  0.00  0.00    +0.047 A 
ATOM     18  C   UNL     1       0.002  -0.004   0.002  0.00  0.00    +0.121 A 
ATOM     19 CL   UNL     1       3.869   2.303  -0.024  0.00  0.00    -0.084 Cl
ENDBRANCH  12  18
ENDBRANCH  11  12
ENDBRANCH   1  11
BRANCH   9  20
ATOM     20  C   UNL     1      -2.762  -2.831  -2.489  0.00  0.00    +0.105 C 
BRANCH  20  21
ATOM     21  C   UNL     1      -2.046  -4.088  -2.985  0.00  0.00    -0.064 C 
BRANCH  21  22
ATOM     22  N   UNL     1      -1.626  -3.894  -4.379  0.00  0.00    +0.379 N 
ATOM     23  H   UNL     1      -2.437  -3.720  -4.954  0.00  0.00    -0.090 HD
ATOM     24  H   UNL     1      -0.999  -3.106  -4.435  0.00  0.00    -0.090 HD
ATOM     25  H   UNL     1      -1.153  -4.723  -4.707  0.00  0.00    -0.090 HD
ENDBRANCH  21  22
ENDBRANCH  20  21
ENDBRANCH   9  20
TORSDOF 6
