REMARK  Name = ZINC63529843
REMARK  10 active torsions:
REMARK  status: ('A' for Active; 'I' for Inactive)
REMARK    1  A    between atoms: C_1  and  C_2
REMARK    2  A    between atoms: C_2  and  O_3
REMARK    3  A    between atoms: O_3  and  C_4
REMARK    4  A    between atoms: C_7  and  C_10
REMARK    5  A    between atoms: N_12  and  C_13
REMARK    6  A    between atoms: C_13  and  C_14
REMARK    7  A    between atoms: N_16  and  C_17
REMARK    8  A    between atoms: C_17  and  C_18
REMARK    9  A    between atoms: C_17  and  C_19
REMARK   10  A    between atoms: C_23  and  C_25
REMARK                            x       y       z     vdW  Elec       q    Type
REMARK                         _______ _______ _______ _____ _____    ______ ____
ROOT
ATOM      1  C   UNL     1       2.642  -8.304   4.263  0.00  0.00    +0.231 C 
ATOM      2  O   UNL     1       3.039  -7.400   4.968  0.00  0.00    -0.274 OA
ATOM      3  N   UNL     1       2.870  -9.584   4.616  0.00  0.00    -0.305 N 
ATOM      4  H   UNL     1       2.553 -10.307   4.052  0.00  0.00    +0.149 HD
ENDROOT
BRANCH   3   5
ATOM      5  C   UNL     1       3.598  -9.884   5.852  0.00  0.00    +0.134 C 
ATOM      6  C   UNL     1       2.622  -9.887   7.030  0.00  0.00    +0.036 C 
BRANCH   5   7
ATOM      7  C   UNL     1       4.248 -11.239   5.736  0.00  0.00    +0.105 A 
ATOM      8  N   UNL     1       3.783 -12.272   5.001  0.00  0.00    -0.348 N 
ATOM      9  H   UNL     1       2.978 -12.275   4.459  0.00  0.00    +0.167 HD
ATOM     10  C   UNL     1       4.654 -13.313   5.160  0.00  0.00    +0.110 A 
ATOM     11  C   UNL     1       5.633 -12.878   5.995  0.00  0.00    +0.064 A 
ATOM     12  N   UNL     1       5.354 -11.600   6.323  0.00  0.00    -0.342 N 
ATOM     13  H   UNL     1       5.891 -11.040   6.906  0.00  0.00    +0.167 HD
BRANCH  11  14
ATOM     14  C   UNL     1       6.802 -13.665   6.459  0.00  0.00    -0.000 A 
ATOM     15  C   UNL     1       7.732 -13.093   7.325  0.00  0.00    +0.010 A 
ATOM     16  C   UNL     1       8.818 -13.830   7.752  0.00  0.00    +0.001 A 
ATOM     17  C   UNL     1       8.984 -15.134   7.323  0.00  0.00    +0.000 A 
ATOM     18  C   UNL     1       8.065 -15.707   6.463  0.00  0.00    +0.001 A 
ATOM     19  C   UNL     1       6.971 -14.982   6.034  0.00  0.00    +0.010 A 
ENDBRANCH  11  14
ENDBRANCH   5   7
ENDBRANCH   3   5
BRANCH   1  20
ATOM     20  C   UNL     1       1.894  -7.995   2.991  0.00  0.00    +0.200 C 
BRANCH  20  23
ATOM     21  C   UNL     1       1.142  -6.031   1.762  0.00  0.00    +0.244 C 
ATOM     22  O   UNL     1       0.665  -6.773   0.925  0.00  0.00    -0.270 OA
ATOM     23  N   UNL     1       1.777  -6.543   2.834  0.00  0.00    -0.303 N 
ATOM     24  H   UNL     1       2.157  -5.951   3.501  0.00  0.00    +0.150 HD
BRANCH  21  28
ATOM     25  C   UNL     1       0.802  -1.822   1.306  0.00  0.00    +0.121 A 
ATOM     26  C   UNL     1       0.257  -2.670   0.347  0.00  0.00    +0.046 A 
ATOM     27  C   UNL     1       0.365  -4.035   0.492  0.00  0.00    +0.016 A 
ATOM     28  C   UNL     1       1.024  -4.568   1.603  0.00  0.00    +0.037 A 
ATOM     29  C   UNL     1       1.570  -3.713   2.563  0.00  0.00    +0.016 A 
ATOM     30  C   UNL     1       1.462  -2.349   2.409  0.00  0.00    +0.046 A 
BRANCH  25  31
ATOM     31  O   UNL     1       0.693  -0.477   1.160  0.00  0.00    -0.492 OA
BRANCH  31  33
ATOM     32  C   UNL     1      -0.019   1.526   0.010  0.00  0.00    +0.048 C 
ATOM     33  C   UNL     1       0.002  -0.004   0.002  0.00  0.00    +0.225 C 
ENDBRANCH  31  33
ENDBRANCH  25  31
ENDBRANCH  21  28
ENDBRANCH  20  23
ENDBRANCH   1  20
TORSDOF 8
