REMARK  Name = ZINC21015002
REMARK  7 active torsions:
REMARK  status: ('A' for Active; 'I' for Inactive)
REMARK    1  A    between atoms: C_1  and  C_2
REMARK    2  A    between atoms: C_8  and  N_10
REMARK    3  A    between atoms: N_10  and  C_11
REMARK    4  A    between atoms: C_11  and  C_12
REMARK    5  A    between atoms: C_12  and  N_18
REMARK    6  A    between atoms: N_18  and  C_19
REMARK    7  A    between atoms: N_18  and  C_20
REMARK                            x       y       z     vdW  Elec       q    Type
REMARK                         _______ _______ _______ _____ _____    ______ ____
ROOT
ATOM      1  C   UNL     1      -0.507   1.977   1.367  0.00  0.00    -0.095 C 
ENDROOT
BRANCH   1   2
ATOM      2  C   UNL     1       0.200   1.469   0.109  0.00  0.00    -0.082 C 
ATOM      3  C   UNL     1      -0.464   2.076  -1.129  0.00  0.00    -0.014 C 
ATOM      4  C   UNL     1      -0.361   3.601  -1.067  0.00  0.00    -0.001 C 
ATOM      5  C   UNL     1       1.113   4.011  -1.025  0.00  0.00    -0.000 C 
ATOM      6  C   UNL     1       1.776   3.405   0.213  0.00  0.00    -0.001 C 
ATOM      7  C   UNL     1       1.673   1.879   0.151  0.00  0.00    -0.014 C 
BRANCH   2   8
ATOM      8  N   UNL     1       0.101   0.004   0.049  0.00  0.00    +0.379 N 
ATOM      9  C   UNL     1       0.677  -0.511  -1.200  0.00  0.00    -0.096 C 
ATOM     10  C   UNL     1       0.739  -0.615   1.218  0.00  0.00    -0.096 C 
ATOM     11  H   UNL     1      -0.966  -0.263   0.065  0.00  0.00    -0.082 HD
ENDBRANCH   2   8
ENDBRANCH   1   2
BRANCH   1  12
ATOM     12  N   UNL     1      -1.887   1.474   1.390  0.00  0.00    +0.380 N 
ATOM     13  H   UNL     1      -1.862   0.374   1.386  0.00  0.00    -0.086 HD
ATOM     14  H   UNL     1      -2.409   1.832   0.490  0.00  0.00    -0.086 HD
BRANCH  12  21
ATOM     15  C   UNL     1      -4.397   2.902   1.142  0.00  0.00    +0.006 C 
ATOM     16  C   UNL     1      -4.104   1.960   2.312  0.00  0.00    -0.028 C 
ATOM     17  C   UNL     1      -4.844   2.448   3.558  0.00  0.00    +0.002 C 
ATOM     18  C   UNL     1      -4.551   1.506   4.727  0.00  0.00    +0.000 C 
ATOM     19  C   UNL     1      -3.046   1.488   5.003  0.00  0.00    -0.002 C 
ATOM     20  C   UNL     1      -2.305   1.000   3.756  0.00  0.00    -0.016 C 
ATOM     21  C   UNL     1      -2.599   1.942   2.587  0.00  0.00    -0.069 C 
ENDBRANCH  12  21
ENDBRANCH   1  12
TORSDOF 4
