REMARK  Name = ZINC49978625
REMARK  7 active torsions:
REMARK  status: ('A' for Active; 'I' for Inactive)
REMARK    1  A    between atoms: C_1  and  C_2
REMARK    2  A    between atoms: C_5  and  N_9
REMARK    3  A    between atoms: C_6  and  C_8
REMARK    4  A    between atoms: N_9  and  C_10
REMARK    5  A    between atoms: N_9  and  S_11
REMARK    6  A    between atoms: S_11  and  C_14
REMARK    7  A    between atoms: C_19  and  N_20
REMARK                            x       y       z     vdW  Elec       q    Type
REMARK                         _______ _______ _______ _____ _____    ______ ____
ROOT
ATOM      1  S   UNL     1      -1.359  -5.015   0.106  0.00  0.00    +0.076 S 
ATOM      2  O   UNL     1      -1.021  -6.295   0.623  0.00  0.00    -0.150 OA
ATOM      3  O   UNL     1      -2.290  -4.155   0.750  0.00  0.00    -0.150 OA
ENDROOT
BRANCH   1   4
ATOM      4  C   UNL     1      -1.960  -5.274  -1.529  0.00  0.00    +0.131 A 
ATOM      5  C   UNL     1      -2.048  -6.556  -2.038  0.00  0.00    +0.050 A 
ATOM      6  C   UNL     1      -2.520  -6.760  -3.323  0.00  0.00    +0.043 A 
ATOM      7  C   UNL     1      -2.905  -5.682  -4.101  0.00  0.00    +0.022 A 
ATOM      8  C   UNL     1      -2.818  -4.399  -3.598  0.00  0.00    +0.026 A 
ATOM      9  C   UNL     1      -2.350  -4.191  -2.306  0.00  0.00    +0.052 A 
ATOM     10 CL   UNL     1      -2.630  -8.371  -3.959  0.00  0.00    -0.083 Cl
BRANCH   9  11
ATOM     11  N   UNL     1      -2.267  -2.895  -1.792  0.00  0.00    -0.356 N 
ATOM     12  H   UNL     1      -1.937  -2.750  -0.892  0.00  0.00    +0.142 HD
ATOM     13  H   UNL     1      -2.540  -2.139  -2.336  0.00  0.00    +0.142 HD
ENDBRANCH   9  11
ENDBRANCH   1   4
BRANCH   1  14
ATOM     14  N   UNL     1       0.058  -4.167  -0.021  0.00  0.00    -0.206 N 
ATOM     15  C   UNL     1       1.331  -4.882  -0.142  0.00  0.00    +0.157 C 
BRANCH  14  20
ATOM     16  C   UNL     1      -0.018   1.503   0.010  0.00  0.00    +0.044 C 
ATOM     17  C   UNL     1       0.002  -0.004   0.002  0.00  0.00    -0.050 A 
ATOM     18  C   UNL     1       0.006  -0.687  -1.200  0.00  0.00    +0.005 A 
ATOM     19  C   UNL     1       0.024  -2.068  -1.212  0.00  0.00    +0.025 A 
ATOM     20  C   UNL     1       0.040  -2.771  -0.013  0.00  0.00    +0.054 A 
ATOM     21  C   UNL     1       0.036  -2.081   1.192  0.00  0.00    -0.028 A 
ATOM     22  C   UNL     1       0.023  -0.700   1.196  0.00  0.00    +0.008 A 
ATOM     23  C   UNL     1       0.052  -2.839   2.495  0.00  0.00    +0.046 C 
ENDBRANCH  14  20
ENDBRANCH   1  14
TORSDOF 4
