REMARK  Name = ZINC42339619
REMARK  4 active torsions:
REMARK  status: ('A' for Active; 'I' for Inactive)
REMARK    1  A    between atoms: C_3  and  C_4
REMARK    2  A    between atoms: C_4  and  N_5
REMARK    3  A    between atoms: N_8  and  C_11
REMARK    4  A    between atoms: C_18  and  O_20
REMARK                            x       y       z     vdW  Elec       q    Type
REMARK                         _______ _______ _______ _____ _____    ______ ____
ROOT
ATOM      1  N   UNL     1      -0.441  -2.161  -1.070  0.00  0.00    +0.382 N 
ATOM      2  C   UNL     1      -1.494  -2.484  -0.099  0.00  0.00    -0.063 C 
ATOM      3  C   UNL     1      -1.516  -3.994   0.147  0.00  0.00    +0.066 C 
ATOM      4  N   UNL     1      -1.766  -4.691  -1.123  0.00  0.00    -0.299 NA
ATOM      5  C   UNL     1      -0.733  -4.357  -2.113  0.00  0.00    +0.066 C 
ATOM      6  C   UNL     1      -0.718  -2.844  -2.341  0.00  0.00    -0.063 C 
ATOM      7  H   UNL     1       0.452  -2.466  -0.712  0.00  0.00    -0.082 HD
ENDROOT
BRANCH   4   8
ATOM      8  C   UNL     1      -1.851  -6.143  -0.918  0.00  0.00    +0.107 C 
ATOM      9  C   UNL     1      -3.020  -6.458   0.056  0.00  0.00    +0.187 C 
ATOM     10  S   UNL     1      -3.300  -8.235  -0.364  0.00  0.00    -0.027 S 
ATOM     11  O   UNL     1      -2.342  -9.033   0.317  0.00  0.00    -0.174 OA
ATOM     12  O   UNL     1      -4.683  -8.533  -0.234  0.00  0.00    -0.174 OA
ATOM     13  C   UNL     1      -2.862  -8.155  -2.151  0.00  0.00    +0.198 C 
ATOM     14  C   UNL     1      -2.084  -6.830  -2.263  0.00  0.00    +0.154 C 
BRANCH  14  15
ATOM     15  O   UNL     1      -2.814  -5.941  -3.111  0.00  0.00    -0.389 OA
ATOM     16  H   UNL     1      -3.005  -6.301  -3.988  0.00  0.00    +0.210 HD
ENDBRANCH  14  15
ENDBRANCH   4   8
BRANCH   1  17
ATOM     17  C   UNL     1      -0.408  -0.709  -1.292  0.00  0.00    -0.075 C 
BRANCH  17  20
ATOM     18  C   UNL     1      -0.019   1.526   0.010  0.00  0.00    +0.002 C 
ATOM     19  C   UNL     1       1.317   0.779  -0.006  0.00  0.00    +0.002 C 
ATOM     20  C   UNL     1       0.002  -0.004   0.002  0.00  0.00    -0.028 C 
ENDBRANCH  17  20
ENDBRANCH   1  17
TORSDOF 4
