REMARK  Name = ZINC49493943
REMARK  5 active torsions:
REMARK  status: ('A' for Active; 'I' for Inactive)
REMARK    1  A    between atoms: C_3  and  S_8
REMARK    2  A    between atoms: C_6  and  O_7
REMARK    3  A    between atoms: S_8  and  C_9
REMARK    4  A    between atoms: C_9  and  C_10
REMARK    5  A    between atoms: C_13  and  C_15
REMARK                            x       y       z     vdW  Elec       q    Type
REMARK                         _______ _______ _______ _____ _____    ______ ____
ROOT
ATOM      1  C   UNL     1       5.173   1.025  -0.042  0.00  0.00    +0.172 C 
ENDROOT
BRANCH   1   2
ATOM      2  C   UNL     1       6.535   1.669  -0.052  0.00  0.00    +0.227 A 
ATOM      3  N   UNL     1       7.245   1.987   0.993  0.00  0.00    -0.111 NA
ATOM      4  N   UNL     1       8.354   2.516   0.610  0.00  0.00    -0.110 NA
ATOM      5  C   UNL     1       8.390   2.553  -0.691  0.00  0.00    +0.246 A 
ATOM      6  O   UNL     1       7.244   2.014  -1.141  0.00  0.00    -0.421 OA
BRANCH   5   7
ATOM      7  C   UNL     1       9.512   3.095  -1.538  0.00  0.00    +0.205 C 
ATOM      8  C   UNL     1       9.529   4.643  -1.481  0.00  0.00    +0.043 C 
ATOM      9  C   UNL     1      11.017   4.935  -1.817  0.00  0.00    +0.031 C 
ATOM     10  C   UNL     1      11.741   3.738  -1.164  0.00  0.00    +0.161 C 
ATOM     11  O   UNL     1      10.781   2.684  -1.006  0.00  0.00    -0.367 OA
ENDBRANCH   5   7
ENDBRANCH   1   2
BRANCH   1  12
ATOM     12  S   UNL     1       3.896   2.313  -0.023  0.00  0.00    -0.116 S 
BRANCH  12  15
ATOM     13  C   UNL     1      -0.017   1.383   0.010  0.00  0.00    +0.046 A 
ATOM     14  C   UNL     1       1.169   2.090   0.002  0.00  0.00    +0.018 A 
ATOM     15  C   UNL     1       2.382   1.412  -0.013  0.00  0.00    +0.009 A 
ATOM     16  C   UNL     1       2.399   0.023  -0.021  0.00  0.00    +0.018 A 
ATOM     17  C   UNL     1       1.212  -0.682  -0.013  0.00  0.00    +0.046 A 
ATOM     18  C   UNL     1       0.002  -0.004   0.002  0.00  0.00    +0.117 A 
BRANCH  18  19
ATOM     19  O   UNL     1      -1.167  -0.700   0.010  0.00  0.00    -0.507 OA
ATOM     20  H   UNL     1      -1.513  -0.896  -0.871  0.00  0.00    +0.292 HD
ENDBRANCH  18  19
ENDBRANCH  12  15
ENDBRANCH   1  12
TORSDOF 5
