REMARK  Name = ZINC12340506
REMARK  5 active torsions:
REMARK  status: ('A' for Active; 'I' for Inactive)
REMARK    1  A    between atoms: C_1  and  C_2
REMARK    2  A    between atoms: C_2  and  N_4
REMARK    3  A    between atoms: N_6  and  N_7
REMARK    4  A    between atoms: C_19  and  O_20
REMARK    5  A    between atoms: C_19  and  C_21
REMARK                            x       y       z     vdW  Elec       q    Type
REMARK                         _______ _______ _______ _____ _____    ______ ____
ROOT
ATOM      1  N   UNL     1      -2.258  -2.659  -0.202  0.00  0.00    -0.146 NA
ATOM      2  C   UNL     1      -1.133  -2.024   0.109  0.00  0.00    +0.216 C 
ATOM      3  N   UNL     1       0.062  -2.701   0.101  0.00  0.00    -0.247 N 
ATOM      4  N   UNL     1      -1.165  -0.719   0.432  0.00  0.00    -0.302 N 
ATOM      5  C   UNL     1      -2.289  -0.053   0.355  0.00  0.00    +0.164 C 
ATOM      6  C   UNL     1      -2.305   1.431   0.620  0.00  0.00    +0.107 C 
ATOM      7  H   UNL     1       0.076  -3.660  -0.044  0.00  0.00    +0.192 HD
ATOM      8  H   UNL     1      -0.355  -0.271   0.723  0.00  0.00    +0.171 HD
ENDROOT
BRANCH   3   9
ATOM      9  N   UNL     1       1.262  -2.006   0.302  0.00  0.00    -0.166 NA
ATOM     10  C   UNL     1       2.404  -2.652   0.294  0.00  0.00    +0.155 C 
ATOM     11  C   UNL     1       3.760  -2.090   0.493  0.00  0.00    +0.028 A 
ATOM     12  C   UNL     1       4.232  -0.804   0.733  0.00  0.00    +0.012 A 
ATOM     13  C   UNL     1       5.588  -0.588   0.877  0.00  0.00    +0.001 A 
ATOM     14  C   UNL     1       6.473  -1.649   0.783  0.00  0.00    +0.002 A 
ATOM     15  C   UNL     1       6.014  -2.929   0.545  0.00  0.00    +0.024 A 
ATOM     16  C   UNL     1       4.652  -3.166   0.397  0.00  0.00    +0.043 A 
ATOM     17  N   UNL     1       3.938  -4.334   0.155  0.00  0.00    -0.280 N 
ATOM     18  C   UNL     1       2.616  -4.099   0.091  0.00  0.00    +0.269 C 
ATOM     19  O   UNL     1       1.749  -4.930  -0.104  0.00  0.00    -0.268 OA
ATOM     20  H   UNL     1       4.343  -5.210   0.051  0.00  0.00    +0.155 HD
ENDBRANCH   3   9
BRANCH   1  22
ATOM     21  C   UNL     1      -3.482  -4.655  -0.959  0.00  0.00    +0.111 C 
ATOM     22  C   UNL     1      -2.209  -3.880  -0.731  0.00  0.00    +0.236 C 
ATOM     23  O   UNL     1      -1.138  -4.370  -1.031  0.00  0.00    -0.274 OA
ENDBRANCH   1  22
BRANCH   5  24
ATOM     24  O   UNL     1      -3.427  -0.691   0.041  0.00  0.00    -0.497 OA
ATOM     25  H   UNL     1      -4.205  -0.117   0.009  0.00  0.00    +0.293 HD
ENDBRANCH   5  24
TORSDOF 3
