REMARK  Name = ZINC07030823
REMARK  4 active torsions:
REMARK  status: ('A' for Active; 'I' for Inactive)
REMARK    1  A    between atoms: C_1  and  C_2
REMARK    2  A    between atoms: C_2  and  C_14
REMARK    3  A    between atoms: N_3  and  N_4
REMARK    4  A    between atoms: N_4  and  C_5
REMARK                            x       y       z     vdW  Elec       q    Type
REMARK                         _______ _______ _______ _____ _____    ______ ____
ROOT
ATOM      1  N   UNL     1       1.188   2.011   0.002  0.00  0.00    -0.234 N 
ATOM      2  H   UNL     1       2.035   1.537  -0.009  0.00  0.00    +0.174 HD
ENDROOT
BRANCH   1   3
ATOM      3  C   UNL     1       1.169   3.395   0.009  0.00  0.00    +0.092 A 
ATOM      4  C   UNL     1       2.378   4.124   0.002  0.00  0.00    +0.159 A 
ATOM      5  N   UNL     1       2.363   5.427   0.009  0.00  0.00    -0.177 NA
ATOM      6  N   UNL     1       1.156   6.134   0.024  0.00  0.00    -0.242 N 
ATOM      7  H   UNL     1       1.168   7.134   0.029  0.00  0.00    +0.192 HD
ATOM      8  C   UNL     1      -0.022   5.480   0.032  0.00  0.00    +0.285 A 
ATOM      9  O   UNL     1      -1.072   6.104   0.045  0.00  0.00    -0.265 OA
ATOM     10  C   UNL     1      -0.035   4.077   0.019  0.00  0.00    +0.130 A 
ATOM     11 CL   UNL     1      -1.539   3.210   0.020  0.00  0.00    -0.076 Cl
ENDBRANCH   1   3
BRANCH   1  14
ATOM     12  C   UNL     1       1.317  -0.740  -0.015  0.00  0.00    +0.068 C 
ATOM     13  C   UNL     1       0.002  -0.004   0.002  0.00  0.00    +0.065 C 
ATOM     14  N   UNL     1      -0.015   1.294   0.009  0.00  0.00    -0.187 NA
BRANCH  13  15
ATOM     15  C   UNL     1      -1.265  -0.759   0.010  0.00  0.00    +0.016 A 
ATOM     16  C   UNL     1      -2.494  -0.087   0.025  0.00  0.00    +0.013 A 
ATOM     17  C   UNL     1      -3.654  -0.842   0.033  0.00  0.00    +0.020 A 
ATOM     18  C   UNL     1      -3.563  -2.222   0.024  0.00  0.00    +0.111 A 
ATOM     19  N   UNL     1      -2.392  -2.829   0.010  0.00  0.00    -0.263 NA
ATOM     20  C   UNL     1      -1.260  -2.155  -0.003  0.00  0.00    +0.120 A 
ENDBRANCH  13  15
ENDBRANCH   1  14
TORSDOF 3
