REMARK  Name = ZINC24508276
REMARK  7 active torsions:
REMARK  status: ('A' for Active; 'I' for Inactive)
REMARK    1  A    between atoms: C_1  and  C_2
REMARK    2  A    between atoms: C_2  and  N_3
REMARK    3  A    between atoms: C_7  and  C_9
REMARK    4  A    between atoms: C_9  and  C_11
REMARK    5  A    between atoms: C_9  and  N_12
REMARK    6  A    between atoms: N_15  and  S_18
REMARK    7  A    between atoms: S_18  and  C_21
REMARK                            x       y       z     vdW  Elec       q    Type
REMARK                         _______ _______ _______ _____ _____    ______ ____
ROOT
ATOM      1  C   UNL     1      -2.482   0.853   0.018  0.00  0.00    +0.017 C 
ATOM      2  C   UNL     1      -2.765  -0.138   1.150  0.00  0.00    -0.004 C 
ENDROOT
BRANCH   1   7
ATOM      3  N   UNL     1      -0.329  -2.090  -3.115  0.00  0.00    -0.299 N 
ATOM      4  C   UNL     1      -1.383  -1.313  -2.795  0.00  0.00    +0.306 C 
ATOM      5  O   UNL     1      -2.317  -1.209  -3.565  0.00  0.00    -0.252 OA
ATOM      6  N   UNL     1      -1.402  -0.653  -1.620  0.00  0.00    -0.242 N 
ATOM      7  C   UNL     1      -2.458   0.119  -1.298  0.00  0.00    +0.207 C 
ATOM      8  O   UNL     1      -3.390   0.223  -2.066  0.00  0.00    -0.277 OA
ATOM      9  H   UNL     1       0.517  -2.184  -2.417  0.00  0.00    +0.150 HD
ATOM     10  H   UNL     1      -0.554  -0.744  -0.924  0.00  0.00    +0.159 HD
BRANCH   3  12
ATOM     11  C   UNL     1       0.990  -3.608  -4.506  0.00  0.00    +0.024 C 
ATOM     12  C   UNL     1      -0.308  -2.808  -4.392  0.00  0.00    +0.102 C 
ENDBRANCH   3  12
ENDBRANCH   1   7
BRANCH   1  13
ATOM     13  N   UNL     1      -3.535   1.877  -0.011  0.00  0.00    +0.389 N 
ATOM     14  C   UNL     1      -3.345   2.858   1.066  0.00  0.00    -0.060 C 
ATOM     15  C   UNL     1      -4.349   4.002   0.893  0.00  0.00    +0.090 C 
ATOM     16  N   UNL     1      -5.701   3.429   0.805  0.00  0.00    -0.185 NA
ATOM     17  C   UNL     1      -5.935   2.342  -0.158  0.00  0.00    +0.090 C 
ATOM     18  C   UNL     1      -4.868   1.263   0.056  0.00  0.00    -0.060 C 
ATOM     19  H   UNL     1      -3.461   2.413  -0.968  0.00  0.00    -0.081 HD
BRANCH  16  20
ATOM     20  S   UNL     1      -6.926   3.990   1.767  0.00  0.00    +0.029 S 
ATOM     21  O   UNL     1      -6.564   5.331   2.069  0.00  0.00    -0.158 OA
ATOM     22  O   UNL     1      -8.115   3.707   1.041  0.00  0.00    -0.158 OA
ATOM     23  C   UNL     1      -6.850   2.970   3.264  0.00  0.00    +0.215 C 
ENDBRANCH  16  20
ENDBRANCH   1  13
TORSDOF 4
