REMARK  Name = ZINC62710080
REMARK  7 active torsions:
REMARK  status: ('A' for Active; 'I' for Inactive)
REMARK    1  A    between atoms: C_1  and  C_2
REMARK    2  A    between atoms: C_2  and  C_3
REMARK    3  A    between atoms: C_2  and  N_4
REMARK    4  A    between atoms: N_7  and  C_10
REMARK    5  A    between atoms: C_10  and  C_12
REMARK    6  A    between atoms: C_10  and  C_14
REMARK    7  A    between atoms: C_12  and  N_13
REMARK                            x       y       z     vdW  Elec       q    Type
REMARK                         _______ _______ _______ _____ _____    ______ ____
ROOT
ATOM      1  C   UNL     1      -4.889  -2.543  -1.154  0.00  0.00    +0.069 C 
ENDROOT
BRANCH   1   2
ATOM      2  C   UNL     1      -5.541  -1.959  -2.381  0.00  0.00    -0.027 A 
ATOM      3  C   UNL     1      -4.812  -1.810  -3.546  0.00  0.00    +0.046 A 
ATOM      4  C   UNL     1      -5.409  -1.273  -4.673  0.00  0.00    +0.162 A 
ATOM      5  C   UNL     1      -6.739  -0.885  -4.634  0.00  0.00    +0.193 A 
ATOM      6  C   UNL     1      -7.469  -1.036  -3.465  0.00  0.00    +0.162 A 
ATOM      7  C   UNL     1      -6.869  -1.578  -2.341  0.00  0.00    +0.046 A 
ATOM      8  F   UNL     1      -8.765  -0.659  -3.424  0.00  0.00    -0.202 F 
ATOM      9  F   UNL     1      -7.324  -0.360  -5.733  0.00  0.00    -0.199 F 
ATOM     10  F   UNL     1      -4.696  -1.126  -5.811  0.00  0.00    -0.202 F 
ENDBRANCH   1   2
BRANCH   1  14
ATOM     11  N   UNL     1      -1.418  -0.626   0.311  0.00  0.00    +0.383 N 
ATOM     12  C   UNL     1      -2.091  -0.040  -0.856  0.00  0.00    -0.063 C 
ATOM     13  C   UNL     1      -3.531  -0.551  -0.925  0.00  0.00    +0.066 C 
ATOM     14  N   UNL     1      -3.523  -2.017  -1.028  0.00  0.00    -0.301 NA
ATOM     15  C   UNL     1      -2.831  -2.618   0.121  0.00  0.00    +0.066 C 
ATOM     16  C   UNL     1      -1.396  -2.089   0.182  0.00  0.00    -0.063 C 
ATOM     17  H   UNL     1      -1.917  -0.370   1.150  0.00  0.00    -0.081 HD
BRANCH  11  19
ATOM     18  C   UNL     1      -0.063   1.403   0.523  0.00  0.00    -0.014 C 
ATOM     19  C   UNL     1      -0.041  -0.121   0.388  0.00  0.00    -0.075 C 
ATOM     20  C   UNL     1       0.659  -0.731   1.604  0.00  0.00    -0.014 C 
ENDBRANCH  11  19
ENDBRANCH   1  14
BRANCH   1  21
ATOM     21  C   UNL     1      -4.838  -4.067  -1.281  0.00  0.00    -0.063 C 
BRANCH  21  22
ATOM     22  N   UNL     1      -6.207  -4.601  -1.318  0.00  0.00    +0.379 N 
ATOM     23  H   UNL     1      -6.666  -4.290  -2.161  0.00  0.00    -0.090 HD
ATOM     24  H   UNL     1      -6.175  -5.609  -1.304  0.00  0.00    -0.090 HD
ATOM     25  H   UNL     1      -6.719  -4.270  -0.515  0.00  0.00    -0.090 HD
ENDBRANCH  21  22
ENDBRANCH   1  21
TORSDOF 5
