REMARK  Name = ZINC43258482
REMARK  5 active torsions:
REMARK  status: ('A' for Active; 'I' for Inactive)
REMARK    1  A    between atoms: C_6  and  C_7
REMARK    2  A    between atoms: C_7  and  N_8
REMARK    3  A    between atoms: N_8  and  C_9
REMARK    4  A    between atoms: C_9  and  C_10
REMARK    5  A    between atoms: C_14  and  C_19
REMARK                            x       y       z     vdW  Elec       q    Type
REMARK                         _______ _______ _______ _____ _____    ______ ____
ROOT
ATOM      1  C   UNL     1      -2.991  -1.766  -1.364  0.00  0.00    -0.007 C 
ENDROOT
BRANCH   1   2
ATOM      2  C   UNL     1      -3.436  -2.015  -2.782  0.00  0.00    +0.091 A 
ATOM      3  N   UNL     1      -4.119  -1.178  -3.507  0.00  0.00    -0.234 NA
ATOM      4  C   UNL     1      -4.351  -1.717  -4.731  0.00  0.00    +0.090 A 
ATOM      5  C   UNL     1      -5.018  -1.265  -5.873  0.00  0.00    +0.042 A 
ATOM      6  C   UNL     1      -5.084  -2.059  -6.982  0.00  0.00    +0.057 A 
ATOM      7  C   UNL     1      -4.494  -3.315  -6.989  0.00  0.00    +0.014 A 
ATOM      8  C   UNL     1      -3.831  -3.782  -5.874  0.00  0.00    +0.028 A 
ATOM      9  C   UNL     1      -3.753  -2.989  -4.738  0.00  0.00    +0.066 A 
ATOM     10  N   UNL     1      -3.178  -3.146  -3.493  0.00  0.00    -0.343 N 
ATOM     11  H   UNL     1      -2.683  -3.920  -3.182  0.00  0.00    +0.167 HD
BRANCH   6  12
ATOM     12  C   UNL     1      -5.804  -1.567  -8.210  0.00  0.00    +0.417 C 
ATOM     13  F   UNL     1      -4.905  -0.884  -9.037  0.00  0.00    -0.166 F 
ATOM     14  F   UNL     1      -6.341  -2.656  -8.905  0.00  0.00    -0.166 F 
ATOM     15  F   UNL     1      -6.837  -0.702  -7.830  0.00  0.00    -0.166 F 
ENDBRANCH   6  12
ENDBRANCH   1   2
BRANCH   1  16
ATOM     16  N   UNL     1      -1.728  -1.016  -1.372  0.00  0.00    +0.386 N 
ATOM     17  H   UNL     1      -1.864  -0.134  -1.842  0.00  0.00    -0.085 HD
ATOM     18  H   UNL     1      -1.022  -1.550  -1.857  0.00  0.00    -0.085 HD
BRANCH  16  19
ATOM     19  C   UNL     1      -1.294  -0.774   0.010  0.00  0.00    -0.046 C 
BRANCH  19  25
ATOM     20  C   UNL     1      -0.017   1.378   0.010  0.00  0.00    +0.005 A 
ATOM     21  C   UNL     1       1.170   2.088   0.002  0.00  0.00    +0.050 A 
ATOM     22  C   UNL     1       2.380   1.416  -0.013  0.00  0.00    +0.166 A 
ATOM     23  C   UNL     1       2.399   0.023  -0.021  0.00  0.00    +0.166 A 
ATOM     24  C   UNL     1       1.207  -0.682  -0.014  0.00  0.00    +0.051 A 
ATOM     25  C   UNL     1       0.002  -0.004   0.002  0.00  0.00    -0.061 A 
ATOM     26  O   UNL     1       3.698  -0.395  -0.036  0.00  0.00    -0.453 OA
ATOM     27  C   UNL     1       4.466   0.750  -0.450  0.00  0.00    +0.466 C 
ATOM     28  O   UNL     1       3.668   1.870  -0.024  0.00  0.00    -0.453 OA
ENDBRANCH  19  25
ENDBRANCH  16  19
ENDBRANCH   1  16
TORSDOF 5
