REMARK  Name = ZINC01188423
REMARK  7 active torsions:
REMARK  status: ('A' for Active; 'I' for Inactive)
REMARK    1  A    between atoms: C_4  and  O_24
REMARK    2  A    between atoms: C_5  and  C_7
REMARK    3  A    between atoms: N_8  and  N_9
REMARK    4  A    between atoms: C_10  and  C_12
REMARK    5  A    between atoms: C_12  and  C_13
REMARK    6  A    between atoms: O_24  and  C_25
REMARK    7  A    between atoms: C_25  and  C_26
REMARK                            x       y       z     vdW  Elec       q    Type
REMARK                         _______ _______ _______ _____ _____    ______ ____
ROOT
ATOM      1  N   UNL     1      -4.837   0.936   0.030  0.00  0.00    -0.207 N 
ATOM      2  C   UNL     1      -6.011   1.599   0.039  0.00  0.00    +0.237 C 
ATOM      3  O   UNL     1      -6.022   2.812   0.046  0.00  0.00    -0.274 OA
ATOM      4  H   UNL     1      -4.828  -0.034   0.025  0.00  0.00    +0.177 HD
ENDROOT
BRANCH   1   6
ATOM      5  C   UNL     1      -2.500   1.010   0.019  0.00  0.00    +0.142 C 
ATOM      6  N   UNL     1      -3.630   1.648   0.028  0.00  0.00    -0.188 NA
BRANCH   5  11
ATOM      7  C   UNL     1       1.171   1.783   0.000  0.00  0.00    +0.001 A 
ATOM      8  C   UNL     1       1.158   3.167   0.007  0.00  0.00    +0.004 A 
ATOM      9  C   UNL     1      -0.041   3.854   0.023  0.00  0.00    +0.046 A 
ATOM     10  C   UNL     1      -1.240   3.160   0.030  0.00  0.00    +0.130 A 
ATOM     11  C   UNL     1      -1.231   1.759   0.017  0.00  0.00    +0.036 A 
ATOM     12  C   UNL     1      -0.013   1.076   0.008  0.00  0.00    +0.013 A 
BRANCH  10  13
ATOM     13  O   UNL     1      -2.418   3.835   0.045  0.00  0.00    -0.480 OA
BRANCH  13  14
ATOM     14  C   UNL     1      -2.349   5.262   0.052  0.00  0.00    +0.353 C 
BRANCH  14  15
ATOM     15  C   UNL     1      -3.743   5.833   0.069  0.00  0.00    +0.393 C 
ATOM     16  O   UNL     1      -4.699   5.093   0.074  0.00  0.00    -0.243 OA
ATOM     17  O   UNL     1      -3.924   7.163   0.077  0.00  0.00    -0.243 OA
ENDBRANCH  14  15
ENDBRANCH  13  14
ENDBRANCH  10  13
ENDBRANCH   5  11
ENDBRANCH   1   6
BRANCH   2  18
ATOM     18  C   UNL     1      -7.308   0.834   0.041  0.00  0.00    +0.133 C 
BRANCH  18  19
ATOM     19  C   UNL     1      -8.463   1.802   0.052  0.00  0.00    -0.031 A 
ATOM     20  C   UNL     1      -9.051   2.152   1.229  0.00  0.00    +0.006 A 
ATOM     21  C   UNL     1     -10.115   3.051   1.260  0.00  0.00    +0.016 A 
ATOM     22  C   UNL     1     -10.606   3.596   0.112  0.00  0.00    +0.026 A 
ATOM     23  C   UNL     1     -10.028   3.253  -1.123  0.00  0.00    -0.004 A 
ATOM     24  C   UNL     1      -8.942   2.343  -1.153  0.00  0.00    -0.013 A 
ATOM     25  C   UNL     1      -8.364   2.000  -2.388  0.00  0.00    +0.009 A 
ATOM     26  C   UNL     1      -8.854   2.544  -3.535  0.00  0.00    +0.001 A 
ATOM     27  C   UNL     1      -9.923   3.438  -3.505  0.00  0.00    +0.001 A 
ATOM     28  C   UNL     1     -10.508   3.794  -2.329  0.00  0.00    +0.009 A 
ATOM     29 BR   UNL     1     -12.057   4.806   0.179  0.00  0.00    -0.050 Br
ENDBRANCH  18  19
ENDBRANCH   2  18
TORSDOF 7
