REMARK  Name = ZINC65530121
REMARK  5 active torsions:
REMARK  status: ('A' for Active; 'I' for Inactive)
REMARK    1  A    between atoms: C_1  and  C_2
REMARK    2  A    between atoms: C_5  and  C_7
REMARK    3  A    between atoms: N_9  and  C_10
REMARK    4  A    between atoms: C_10  and  C_11
REMARK    5  A    between atoms: C_16  and  N_19
REMARK                            x       y       z     vdW  Elec       q    Type
REMARK                         _______ _______ _______ _____ _____    ______ ____
ROOT
ATOM      1  C   UNL     1       4.488  -5.366  -0.049  0.00  0.00    +0.233 C 
ATOM      2  O   UNL     1       5.030  -4.281  -0.046  0.00  0.00    -0.274 OA
ATOM      3  N   UNL     1       5.231  -6.491  -0.059  0.00  0.00    -0.300 N 
ATOM      4  C   UNL     1       4.589  -7.812  -0.070  0.00  0.00    +0.106 C 
ATOM      5  C   UNL     1       5.149  -8.642   1.090  0.00  0.00    +0.004 C 
ATOM      6  C   UNL     1       6.675  -8.684   0.992  0.00  0.00    -0.066 C 
ATOM      7  C   UNL     1       7.235  -7.263   1.100  0.00  0.00    +0.004 C 
ATOM      8  C   UNL     1       6.699  -6.418  -0.066  0.00  0.00    +0.106 C 
ENDROOT
BRANCH   6   9
ATOM      9  N   UNL     1       7.213  -9.506   2.084  0.00  0.00    +0.382 N 
ATOM     10  C   UNL     1       6.751 -10.911   1.943  0.00  0.00    -0.079 C 
ATOM     11  C   UNL     1       7.797 -11.712   2.758  0.00  0.00    -0.020 C 
ATOM     12  C   UNL     1       9.117 -10.967   2.453  0.00  0.00    -0.020 C 
ATOM     13  C   UNL     1       8.689  -9.557   2.004  0.00  0.00    -0.079 C 
ATOM     14  H   UNL     1       6.926  -9.132   2.976  0.00  0.00    -0.081 HD
ENDBRANCH   6   9
BRANCH   1  15
ATOM     15  C   UNL     1       2.984  -5.457  -0.043  0.00  0.00    +0.200 C 
BRANCH  15  18
ATOM     16  C   UNL     1       1.076  -3.942  -0.025  0.00  0.00    +0.251 C 
ATOM     17  O   UNL     1       0.342  -4.913  -0.028  0.00  0.00    -0.270 OA
ATOM     18  N   UNL     1       2.413  -4.108  -0.033  0.00  0.00    -0.302 N 
ATOM     19  H   UNL     1       2.998  -3.334  -0.031  0.00  0.00    +0.150 HD
BRANCH  16  24
ATOM     20  C   UNL     1      -0.018   1.503   0.010  0.00  0.00    +0.051 C 
ATOM     21  C   UNL     1       0.002  -0.004   0.002  0.00  0.00    -0.013 A 
ATOM     22  C   UNL     1      -1.056  -0.852   0.002  0.00  0.00    +0.011 A 
ATOM     23  C   UNL     1      -0.827  -2.207  -0.007  0.00  0.00    +0.021 A 
ATOM     24  C   UNL     1       0.505  -2.592  -0.015  0.00  0.00    +0.074 A 
ATOM     25  S   UNL     1       1.341  -1.018  -0.017  0.00  0.00    -0.089 S 
ENDBRANCH  16  24
ENDBRANCH  15  18
ENDBRANCH   1  15
TORSDOF 4
