REMARK  Name = ZINC40749904
REMARK  4 active torsions:
REMARK  status: ('A' for Active; 'I' for Inactive)
REMARK    1  A    between atoms: C_3  and  C_21
REMARK    2  A    between atoms: C_5  and  S_7
REMARK    3  A    between atoms: S_7  and  N_10
REMARK    4  A    between atoms: C_18  and  N_20
REMARK                            x       y       z     vdW  Elec       q    Type
REMARK                         _______ _______ _______ _____ _____    ______ ____
ROOT
ATOM      1  N   UNL     1       1.237  -2.946   1.557  0.00  0.00    -0.171 NA
ATOM      2  C   UNL     1       2.412  -3.208   2.422  0.00  0.00    +0.079 C 
ATOM      3  C   UNL     1       2.040  -4.497   3.190  0.00  0.00    +0.022 C 
ATOM      4  C   UNL     1       0.497  -4.516   3.202  0.00  0.00    +0.022 C 
ATOM      5  C   UNL     1       0.082  -3.230   2.442  0.00  0.00    +0.079 C 
ATOM      6  C   UNL     1      -0.003  -2.084   3.463  0.00  0.00    +0.004 C 
ATOM      7  C   UNL     1       1.257  -2.100   4.332  0.00  0.00    -0.072 C 
ATOM      8  C   UNL     1       2.502  -2.052   3.432  0.00  0.00    +0.004 C 
ENDROOT
BRANCH   7   9
ATOM      9  N   UNL     1       1.258  -0.925   5.215  0.00  0.00    +0.380 N 
ATOM     10  H   UNL     1       0.440  -0.949   5.806  0.00  0.00    -0.090 HD
ATOM     11  H   UNL     1       2.088  -0.935   5.788  0.00  0.00    -0.090 HD
ATOM     12  H   UNL     1       1.244  -0.085   4.656  0.00  0.00    -0.090 HD
ENDBRANCH   7   9
BRANCH   1  13
ATOM     13  S   UNL     1       1.218  -2.448  -0.023  0.00  0.00    +0.061 S 
ATOM     14  O   UNL     1      -0.029  -2.860  -0.564  0.00  0.00    -0.153 OA
ATOM     15  O   UNL     1       2.461  -2.842  -0.587  0.00  0.00    -0.153 OA
BRANCH  13  20
ATOM     16  C   UNL     1      -0.017   1.379   0.010  0.00  0.00    +0.003 A 
ATOM     17  C   UNL     1       1.167   2.088   0.002  0.00  0.00    +0.019 A 
ATOM     18  C   UNL     1       2.385   1.407  -0.013  0.00  0.00    +0.054 A 
ATOM     19  C   UNL     1       2.397   0.010  -0.021  0.00  0.00    +0.047 A 
ATOM     20  C   UNL     1       1.206  -0.686  -0.013  0.00  0.00    +0.107 A 
ATOM     21  C   UNL     1       0.002  -0.004   0.002  0.00  0.00    +0.028 A 
BRANCH  18  22
ATOM     22  C   UNL     1       3.617   2.136  -0.021  0.00  0.00    +0.099 C 
ATOM     23  N   UNL     1       4.595   2.715  -0.028  0.00  0.00    -0.191 NA
ENDBRANCH  18  22
ENDBRANCH  13  20
ENDBRANCH   1  13
TORSDOF 4
