REMARK  Name = ZINC27498068
REMARK  12 active torsions:
REMARK  status: ('A' for Active; 'I' for Inactive)
REMARK    1  A    between atoms: C_1  and  C_2
REMARK    2  A    between atoms: C_5  and  S_8
REMARK    3  A    between atoms: S_8  and  N_11
REMARK    4  A    between atoms: N_11  and  C_12
REMARK    5  A    between atoms: C_12  and  C_14
REMARK    6  A    between atoms: C_12  and  C_17
REMARK    7  A    between atoms: C_14  and  C_15
REMARK    8  A    between atoms: C_14  and  C_16
REMARK    9  A    between atoms: N_19  and  C_20
REMARK   10  A    between atoms: C_20  and  C_21
REMARK   11  A    between atoms: C_21  and  C_23
REMARK   12  A    between atoms: C_21  and  N_28
REMARK                            x       y       z     vdW  Elec       q    Type
REMARK                         _______ _______ _______ _____ _____    ______ ____
ROOT
ATOM      1  C   UNL     1       0.980   3.708   0.504  0.00  0.00    +0.232 C 
ATOM      2  O   UNL     1      -0.048   3.686   1.147  0.00  0.00    -0.274 OA
ATOM      3  N   UNL     1       1.956   4.582   0.823  0.00  0.00    -0.315 N 
ATOM      4  H   UNL     1       2.852   4.661   0.190  0.00  0.00    +0.149 HD
ENDROOT
BRANCH   1   5
ATOM      5  C   UNL     1       1.167   2.760  -0.652  0.00  0.00    +0.165 C 
BRANCH   5   6
ATOM      6  C   UNL     1       1.001   3.521  -1.968  0.00  0.00    +0.010 C 
ATOM      7  C   UNL     1       1.270   2.576  -3.141  0.00  0.00    +0.009 C 
ATOM      8  C   UNL     1      -0.427   4.063  -2.067  0.00  0.00    +0.009 C 
ENDBRANCH   5   6
BRANCH   5   9
ATOM      9  N   UNL     1       0.165   1.693  -0.575  0.00  0.00    -0.178 NA
ATOM     10  H   UNL     1      -0.897   1.945  -0.439  0.00  0.00    +0.149 HD
BRANCH   9  11
ATOM     11  S   UNL     1       0.646   0.114  -0.441  0.00  0.00    +0.059 S 
ATOM     12  O   UNL     1      -0.536  -0.658  -0.276  0.00  0.00    -0.153 OA
ATOM     13  O   UNL     1       1.568  -0.120  -1.497  0.00  0.00    -0.153 OA
BRANCH  11  18
ATOM     14  C   UNL     1       3.758  -0.377   4.704  0.00  0.00    +0.044 C 
ATOM     15  C   UNL     1       2.981  -0.254   3.419  0.00  0.00    -0.050 A 
ATOM     16  C   UNL     1       1.613  -0.456   3.417  0.00  0.00    +0.005 A 
ATOM     17  C   UNL     1       0.900  -0.344   2.238  0.00  0.00    +0.029 A 
ATOM     18  C   UNL     1       1.555  -0.029   1.061  0.00  0.00    +0.105 A 
ATOM     19  C   UNL     1       2.923   0.167   1.063  0.00  0.00    +0.029 A 
ATOM     20  C   UNL     1       3.635   0.059   2.243  0.00  0.00    +0.005 A 
ENDBRANCH  11  18
ENDBRANCH   9  11
ENDBRANCH   5   9
ENDBRANCH   1   5
BRANCH   3  21
ATOM     21  C   UNL     1       1.824   5.425   2.014  0.00  0.00    +0.096 C 
BRANCH  21  22
ATOM     22  C   UNL     1       2.996   6.406   2.077  0.00  0.00    +0.016 C 
BRANCH  22  23
ATOM     23  N   UNL     1       4.261   5.665   1.982  0.00  0.00    +0.387 N 
ATOM     24  C   UNL     1       4.359   4.654   3.043  0.00  0.00    -0.078 C 
ATOM     25  C   UNL     1       5.615   3.808   2.828  0.00  0.00    -0.019 C 
ATOM     26  C   UNL     1       6.847   4.717   2.848  0.00  0.00    -0.004 C 
ATOM     27  C   UNL     1       6.697   5.790   1.766  0.00  0.00    -0.019 C 
ATOM     28  C   UNL     1       5.410   6.579   2.012  0.00  0.00    -0.078 C 
ATOM     29  H   UNL     1       4.275   5.139   1.016  0.00  0.00    -0.081 HD
ENDBRANCH  22  23
BRANCH  22  30
ATOM     30  C   UNL     1       2.898   7.380   0.931  0.00  0.00    +0.093 A 
ATOM     31  C   UNL     1       2.418   8.635   1.004  0.00  0.00    +0.043 A 
ATOM     32  C   UNL     1       2.511   9.185  -0.296  0.00  0.00    +0.041 A 
ATOM     33  C   UNL     1       3.042   8.233  -1.085  0.00  0.00    +0.195 A 
ATOM     34  O   UNL     1       3.279   7.144  -0.335  0.00  0.00    -0.469 OA
ENDBRANCH  22  30
ENDBRANCH  21  22
ENDBRANCH   3  21
TORSDOF 9
