REMARK  Name = ZINC47509584
REMARK  2 active torsions:
REMARK  status: ('A' for Active; 'I' for Inactive)
REMARK    1  A    between atoms: C_7  and  N_12
REMARK    2  A    between atoms: N_12  and  C_13
REMARK                            x       y       z     vdW  Elec       q    Type
REMARK                         _______ _______ _______ _____ _____    ______ ____
ROOT
ATOM      1  N   UNL     1       0.148  -2.670  -0.926  0.00  0.00    -0.320 N 
ATOM      2  H   UNL     1       0.377  -2.905  -1.839  0.00  0.00    +0.148 HD
ENDROOT
BRANCH   1   9
ATOM      3  C   UNL     1      -0.017   1.377   0.010  0.00  0.00    +0.001 A 
ATOM      4  C   UNL     1       1.172   2.084   0.002  0.00  0.00    +0.004 A 
ATOM      5  C   UNL     1       2.375   1.409  -0.015  0.00  0.00    +0.046 A 
ATOM      6  C   UNL     1       2.398   0.018  -0.024  0.00  0.00    +0.125 A 
ATOM      7  C   UNL     1       1.207  -0.687  -0.012  0.00  0.00    +0.014 A 
ATOM      8  C   UNL     1       0.002  -0.004   0.002  0.00  0.00    +0.009 A 
ATOM      9  C   UNL     1       1.187  -2.194  -0.010  0.00  0.00    +0.109 C 
ATOM     10  C   UNL     1       2.548  -2.729  -0.463  0.00  0.00    +0.068 C 
ATOM     11  C   UNL     1       3.641  -1.990   0.320  0.00  0.00    +0.231 C 
ATOM     12  O   UNL     1       3.602  -0.610  -0.046  0.00  0.00    -0.492 OA
ENDBRANCH   1   9
BRANCH   1  13
ATOM     13  C   UNL     1      -1.161  -2.783  -0.490  0.00  0.00    +0.150 A 
ATOM     14  C   UNL     1      -2.170  -3.237  -1.355  0.00  0.00    +0.147 A 
ATOM     15  C   UNL     1      -3.480  -3.332  -0.855  0.00  0.00    +0.163 A 
ATOM     16  N   UNL     1      -4.249  -3.793  -1.893  0.00  0.00    -0.329 N 
ATOM     17  C   UNL     1      -3.426  -3.965  -2.966  0.00  0.00    +0.198 A 
ATOM     18  N   UNL     1      -2.207  -3.638  -2.649  0.00  0.00    -0.231 NA
ATOM     19  H   UNL     1      -5.203  -3.966  -1.868  0.00  0.00    +0.168 HD
ATOM     20  N   UNL     1      -3.715  -2.991   0.408  0.00  0.00    -0.216 NA
ATOM     21  C   UNL     1      -2.737  -2.571   1.183  0.00  0.00    +0.225 A 
ATOM     22  N   UNL     1      -1.491  -2.470   0.759  0.00  0.00    -0.219 NA
ENDBRANCH   1  13
TORSDOF 2
