REMARK  Name = ZINC61850065
REMARK  8 active torsions:
REMARK  status: ('A' for Active; 'I' for Inactive)
REMARK    1  A    between atoms: C_3  and  C_18
REMARK    2  A    between atoms: C_6  and  N_7
REMARK    3  A    between atoms: N_7  and  C_8
REMARK    4  A    between atoms: C_8  and  C_9
REMARK    5  A    between atoms: C_9  and  C_10
REMARK    6  A    between atoms: C_10  and  C_11
REMARK    7  A    between atoms: C_11  and  N_12
REMARK    8  A    between atoms: C_18  and  N_20
REMARK                            x       y       z     vdW  Elec       q    Type
REMARK                         _______ _______ _______ _____ _____    ______ ____
ROOT
ATOM      1  C   UNL     1      -0.016   1.387   0.043  0.00  0.00    +0.023 A 
ATOM      2  C   UNL     1       1.165   2.094   0.036  0.00  0.00    +0.013 A 
ATOM      3  C   UNL     1       2.385   1.413  -0.013  0.00  0.00    +0.021 A 
ATOM      4  C   UNL     1       2.400   0.013  -0.054  0.00  0.00    +0.052 A 
ATOM      5  C   UNL     1       1.214  -0.686  -0.047  0.00  0.00    +0.043 A 
ATOM      6  C   UNL     1       0.002  -0.004   0.002  0.00  0.00    +0.029 A 
ATOM      7 CL   UNL     1       3.912  -0.838  -0.116  0.00  0.00    -0.083 Cl
ENDROOT
BRANCH   6   8
ATOM      8  N   UNL     1      -1.194  -0.714   0.010  0.00  0.00    -0.344 N 
ATOM      9  H   UNL     1      -2.040  -0.240   0.044  0.00  0.00    +0.146 HD
BRANCH   8  10
ATOM     10  C   UNL     1      -1.177  -2.179  -0.033  0.00  0.00    +0.101 C 
BRANCH  10  11
ATOM     11  C   UNL     1      -2.613  -2.706  -0.014  0.00  0.00    +0.020 C 
BRANCH  11  12
ATOM     12  C   UNL     1      -2.595  -4.235  -0.059  0.00  0.00    +0.023 C 
BRANCH  12  13
ATOM     13  C   UNL     1      -4.032  -4.763  -0.040  0.00  0.00    +0.123 C 
BRANCH  13  14
ATOM     14  N   UNL     1      -4.014  -6.227  -0.083  0.00  0.00    -0.338 N 
ATOM     15  C   UNL     1      -4.026  -7.007  -1.208  0.00  0.00    +0.104 A 
ATOM     16  C   UNL     1      -4.002  -8.288  -0.795  0.00  0.00    +0.101 A 
ATOM     17  N   UNL     1      -3.977  -8.291   0.546  0.00  0.00    -0.352 N 
ATOM     18  C   UNL     1      -3.979  -7.060   0.979  0.00  0.00    +0.173 A 
ATOM     19  H   UNL     1      -3.956  -9.083   1.106  0.00  0.00    +0.166 HD
ENDBRANCH  13  14
ENDBRANCH  12  13
ENDBRANCH  11  12
ENDBRANCH  10  11
ENDBRANCH   8  10
ENDBRANCH   6   8
BRANCH   3  20
ATOM     20  C   UNL     1       3.651   2.166  -0.022  0.00  0.00    +0.078 C 
ATOM     21  S   UNL     1       5.143   1.333   0.089  0.00  0.00    -0.035 S 
BRANCH  20  22
ATOM     22  N   UNL     1       3.635   3.510  -0.117  0.00  0.00    -0.352 N 
ATOM     23  H   UNL     1       2.790   3.987  -0.106  0.00  0.00    +0.143 HD
ATOM     24  H   UNL     1       4.468   4.001  -0.195  0.00  0.00    +0.143 HD
ENDBRANCH  20  22
ENDBRANCH   3  20
TORSDOF 8
