REMARK  Name = ZINC11163809
REMARK  16 active torsions:
REMARK  status: ('A' for Active; 'I' for Inactive)
REMARK    1  A    between atoms: C_1  and  C_2
REMARK    2  A    between atoms: C_5  and  N_9
REMARK    3  A    between atoms: C_6  and  C_8
REMARK    4  A    between atoms: C_13  and  C_15
REMARK    5  A    between atoms: C_15  and  O_16
REMARK    6  A    between atoms: O_16  and  C_17
REMARK    7  A    between atoms: C_17  and  C_19
REMARK    8  A    between atoms: C_21  and  O_34
REMARK    9  A    between atoms: C_22  and  O_32
REMARK   10  A    between atoms: C_24  and  N_25
REMARK   11  A    between atoms: C_26  and  C_28
REMARK   12  A    between atoms: C_28  and  C_29
REMARK   13  A    between atoms: C_28  and  C_30
REMARK   14  A    between atoms: C_28  and  C_31
REMARK   15  A    between atoms: O_32  and  C_33
REMARK   16  A    between atoms: O_34  and  C_35
REMARK                            x       y       z     vdW  Elec       q    Type
REMARK                         _______ _______ _______ _____ _____    ______ ____
ROOT
ATOM      1  C   UNL     1       6.315   1.489   0.083  0.00  0.00    +0.342 C 
ATOM      2  O   UNL     1       6.698   2.643   0.111  0.00  0.00    -0.245 OA
ENDROOT
BRANCH   1   3
ATOM      3  C   UNL     1       7.284   0.397  -0.101  0.00  0.00    +0.084 A 
ATOM      4  C   UNL     1       6.838  -0.922  -0.238  0.00  0.00    +0.066 A 
ATOM      5  C   UNL     1       7.749  -1.942  -0.409  0.00  0.00    +0.162 A 
ATOM      6  C   UNL     1       9.117  -1.663  -0.447  0.00  0.00    +0.163 A 
ATOM      7  C   UNL     1       9.567  -0.360  -0.311  0.00  0.00    +0.073 A 
ATOM      8  C   UNL     1       8.659   0.675  -0.145  0.00  0.00    +0.051 A 
BRANCH   8   9
ATOM      9  N   UNL     1       9.112   1.988  -0.015  0.00  0.00    -0.284 N 
ATOM     10  C   UNL     1      10.353   2.230   0.452  0.00  0.00    +0.223 C 
ATOM     11  O   UNL     1      11.038   1.314   0.855  0.00  0.00    -0.275 OA
ATOM     12  H   UNL     1       8.534   2.727  -0.262  0.00  0.00    +0.155 HD
BRANCH  10  13
ATOM     13  C   UNL     1      10.888   3.638   0.474  0.00  0.00    +0.039 C 
ATOM     14  C   UNL     1      12.307   3.635   1.047  0.00  0.00    +0.020 C 
ATOM     15  C   UNL     1      10.914   4.196  -0.951  0.00  0.00    +0.020 C 
ATOM     16  C   UNL     1       9.987   4.513   1.348  0.00  0.00    +0.020 C 
ENDBRANCH  10  13
ENDBRANCH   8   9
BRANCH   6  17
ATOM     17  O   UNL     1      10.009  -2.672  -0.616  0.00  0.00    -0.491 OA
ATOM     18  C   UNL     1      11.393  -2.317  -0.644  0.00  0.00    +0.277 C 
ENDBRANCH   6  17
BRANCH   5  19
ATOM     19  O   UNL     1       7.315  -3.225  -0.542  0.00  0.00    -0.491 OA
ATOM     20  C   UNL     1       5.904  -3.440  -0.495  0.00  0.00    +0.277 C 
ENDBRANCH   5  19
ENDBRANCH   1   3
BRANCH   1  21
ATOM     21  O   UNL     1       5.004   1.211   0.219  0.00  0.00    -0.452 OA
BRANCH  21  22
ATOM     22  C   UNL     1       4.105   2.338   0.397  0.00  0.00    +0.328 C 
BRANCH  22  27
ATOM     23  N   UNL     1      -0.597   3.136   0.995  0.00  0.00    -0.269 N 
ATOM     24  C   UNL     1       0.414   2.262   0.826  0.00  0.00    +0.310 C 
ATOM     25  O   UNL     1       0.185   1.069   0.777  0.00  0.00    -0.252 OA
ATOM     26  N   UNL     1       1.680   2.710   0.706  0.00  0.00    -0.237 N 
ATOM     27  C   UNL     1       2.691   1.836   0.531  0.00  0.00    +0.258 C 
ATOM     28  O   UNL     1       2.462   0.647   0.482  0.00  0.00    -0.272 OA
ATOM     29  H   UNL     1      -0.408   4.080   1.115  0.00  0.00    +0.156 HD
ATOM     30  H   UNL     1       1.863   3.662   0.745  0.00  0.00    +0.159 HD
BRANCH  23  35
ATOM     31  C   UNL     1      -5.964   1.296   1.006  0.00  0.00    +0.044 C 
ATOM     32  C   UNL     1      -4.538   1.785   1.003  0.00  0.00    -0.050 A 
ATOM     33  C   UNL     1      -3.561   1.059   0.346  0.00  0.00    +0.005 A 
ATOM     34  C   UNL     1      -2.254   1.504   0.342  0.00  0.00    +0.024 A 
ATOM     35  C   UNL     1      -1.921   2.683   0.997  0.00  0.00    +0.038 A 
ATOM     36  C   UNL     1      -2.904   3.407   1.659  0.00  0.00    -0.029 A 
ATOM     37  C   UNL     1      -4.210   2.958   1.657  0.00  0.00    +0.008 A 
ATOM     38  C   UNL     1      -2.546   4.683   2.377  0.00  0.00    +0.045 C 
ENDBRANCH  23  35
ENDBRANCH  22  27
ENDBRANCH  21  22
ENDBRANCH   1  21
TORSDOF 9
