REMARK  Name = ZINC45105975
REMARK  8 active torsions:
REMARK  status: ('A' for Active; 'I' for Inactive)
REMARK    1  A    between atoms: C_1  and  C_2
REMARK    2  A    between atoms: C_2  and  C_4
REMARK    3  A    between atoms: C_2  and  N_17
REMARK    4  A    between atoms: C_4  and  N_5
REMARK    5  A    between atoms: N_5  and  C_6
REMARK    6  A    between atoms: C_11  and  N_12
REMARK    7  A    between atoms: N_17  and  C_18
REMARK    8  A    between atoms: N_17  and  C_19
REMARK                            x       y       z     vdW  Elec       q    Type
REMARK                         _______ _______ _______ _____ _____    ______ ____
ROOT
ATOM      1  C   UNL     1       0.807  -2.597   2.773  0.00  0.00    +0.050 A 
ATOM      2  C   UNL     1       1.443  -1.821   3.727  0.00  0.00    +0.048 A 
ATOM      3  C   UNL     1       1.907  -2.402   4.905  0.00  0.00    +0.039 A 
ATOM      4  C   UNL     1       1.721  -3.764   5.107  0.00  0.00    -0.016 A 
ATOM      5  C   UNL     1       1.087  -4.540   4.161  0.00  0.00    +0.030 A 
ATOM      6  C   UNL     1       0.621  -3.962   2.989  0.00  0.00    +0.046 A 
ATOM      7  C   UNL     1       2.324  -4.081   6.456  0.00  0.00    +0.133 C 
ATOM      8  C   UNL     1       2.849  -2.749   6.948  0.00  0.00    +0.222 C 
ATOM      9  O   UNL     1       3.416  -2.542   8.000  0.00  0.00    -0.275 OA
ATOM     10  N   UNL     1       2.569  -1.839   6.000  0.00  0.00    -0.285 N 
ATOM     11  H   UNL     1       2.800  -0.899   6.067  0.00  0.00    +0.155 HD
ENDROOT
BRANCH   6  12
ATOM     12  N   UNL     1      -0.029  -4.746   2.026  0.00  0.00    -0.357 N 
ATOM     13  H   UNL     1      -0.351  -4.340   1.206  0.00  0.00    +0.142 HD
ATOM     14  H   UNL     1      -0.157  -5.695   2.179  0.00  0.00    +0.142 HD
ENDBRANCH   6  12
BRANCH   1  15
ATOM     15  N   UNL     1       0.343  -2.008   1.590  0.00  0.00    -0.344 N 
ATOM     16  H   UNL     1      -0.106  -2.549   0.922  0.00  0.00    +0.146 HD
BRANCH  15  17
ATOM     17  C   UNL     1       0.537  -0.574   1.361  0.00  0.00    +0.086 C 
BRANCH  17  19
ATOM     18  C   UNL     1      -0.047   1.350  -0.123  0.00  0.00    -0.012 C 
ATOM     19  C   UNL     1      -0.171  -0.163   0.068  0.00  0.00    -0.055 C 
BRANCH  19  20
ATOM     20  N   UNL     1      -1.590  -0.532   0.149  0.00  0.00    +0.379 N 
ATOM     21  C   UNL     1      -2.242   0.256   1.204  0.00  0.00    -0.096 C 
ATOM     22  C   UNL     1      -2.241  -0.259  -1.139  0.00  0.00    -0.096 C 
ATOM     23  H   UNL     1      -1.671  -1.515   0.365  0.00  0.00    -0.082 HD
ENDBRANCH  19  20
ENDBRANCH  17  19
ENDBRANCH  15  17
ENDBRANCH   1  15
TORSDOF 5
