REMARK  Name = ZINC42630447
REMARK  3 active torsions:
REMARK  status: ('A' for Active; 'I' for Inactive)
REMARK    1  A    between atoms: C_3  and  O_21
REMARK    2  A    between atoms: C_6  and  N_7
REMARK    3  A    between atoms: C_13  and  C_15
REMARK                            x       y       z     vdW  Elec       q    Type
REMARK                         _______ _______ _______ _____ _____    ______ ____
ROOT
ATOM      1  N   UNL     1      -1.196  -0.724   0.004  0.00  0.00    -0.327 N 
ATOM      2  C   UNL     1      -2.482  -0.025   0.131  0.00  0.00    +0.124 C 
ATOM      3  C   UNL     1      -3.375  -0.423  -1.051  0.00  0.00    +0.126 C 
ATOM      4  N   UNL     1      -3.374  -1.888  -1.167  0.00  0.00    -0.296 N 
ATOM      5  C   UNL     1      -2.087  -2.587  -1.294  0.00  0.00    +0.126 C 
ATOM      6  C   UNL     1      -1.195  -2.188  -0.119  0.00  0.00    +0.124 C 
ATOM      7  C   UNL     1      -4.532  -2.578  -1.157  0.00  0.00    +0.245 C 
ATOM      8  O   UNL     1      -4.515  -3.791  -1.157  0.00  0.00    -0.273 OA
ENDROOT
BRANCH   1  14
ATOM      9  C   UNL     1       1.218  -0.684  -0.013  0.00  0.00    +0.027 A 
ATOM     10  C   UNL     1       2.404   0.024  -0.024  0.00  0.00    +0.047 A 
ATOM     11  C   UNL     1       2.385   1.410  -0.028  0.00  0.00    +0.117 A 
ATOM     12  C   UNL     1       1.174   2.087  -0.021  0.00  0.00    +0.047 A 
ATOM     13  C   UNL     1      -0.013   1.381  -0.011  0.00  0.00    +0.027 A 
ATOM     14  C   UNL     1       0.006  -0.007  -0.007  0.00  0.00    +0.030 A 
BRANCH  11  15
ATOM     15  O   UNL     1       3.553   2.107  -0.038  0.00  0.00    -0.507 OA
ATOM     16  H   UNL     1       3.885   2.305  -0.924  0.00  0.00    +0.292 HD
ENDBRANCH  11  15
ENDBRANCH   1  14
BRANCH   7  17
ATOM     17  C   UNL     1      -5.847  -1.843  -1.146  0.00  0.00    +0.204 C 
ATOM     18  C   UNL     1      -6.101  -1.174  -2.521  0.00  0.00    +0.043 C 
ATOM     19  C   UNL     1      -7.650  -1.073  -2.518  0.00  0.00    +0.031 C 
ATOM     20  C   UNL     1      -8.061  -2.348  -1.751  0.00  0.00    +0.161 C 
ATOM     21  O   UNL     1      -6.933  -2.767  -0.970  0.00  0.00    -0.367 OA
ENDBRANCH   7  17
TORSDOF 3
