REMARK  Name = ZINC65384147
REMARK  6 active torsions:
REMARK  status: ('A' for Active; 'I' for Inactive)
REMARK    1  A    between atoms: N_5  and  C_8
REMARK    2  A    between atoms: C_8  and  C_9
REMARK    3  A    between atoms: C_9  and  C_10
REMARK    4  A    between atoms: C_10  and  C_11
REMARK    5  A    between atoms: C_11  and  N_12
REMARK    6  A    between atoms: C_19  and  O_26
REMARK                            x       y       z     vdW  Elec       q    Type
REMARK                         _______ _______ _______ _____ _____    ______ ____
ROOT
ATOM      1  N   UNL     1       3.680  -5.769  -3.369  0.00  0.00    -0.291 N 
ATOM      2  C   UNL     1       2.761  -6.620  -4.145  0.00  0.00    +0.203 C 
ATOM      3  C   UNL     1       3.208  -6.613  -5.592  0.00  0.00    +0.234 C 
ATOM      4  O   UNL     1       2.412  -6.509  -6.501  0.00  0.00    -0.274 OA
ATOM      5  N   UNL     1       4.551  -6.729  -5.826  0.00  0.00    -0.288 N 
ATOM      6  C   UNL     1       5.024  -6.586  -7.196  0.00  0.00    +0.111 C 
ATOM      7  C   UNL     1       6.472  -7.054  -7.330  0.00  0.00    +0.050 C 
ATOM      8  C   UNL     1       7.286  -6.370  -6.221  0.00  0.00    +0.118 C 
ATOM      9  C   UNL     1       6.877  -7.000  -4.891  0.00  0.00    +0.063 C 
ATOM     10  C   UNL     1       5.392  -6.932  -4.661  0.00  0.00    +0.164 C 
ATOM     11  C   UNL     1       5.015  -5.923  -3.603  0.00  0.00    +0.237 C 
ATOM     12  O   UNL     1       5.851  -5.289  -2.995  0.00  0.00    -0.274 OA
ENDROOT
BRANCH   8  13
ATOM     13  O   UNL     1       7.001  -4.970  -6.204  0.00  0.00    -0.392 OA
ATOM     14  H   UNL     1       7.213  -4.515  -7.030  0.00  0.00    +0.210 HD
ENDBRANCH   8  13
BRANCH   1  15
ATOM     15  C   UNL     1       3.183  -4.796  -2.393  0.00  0.00    +0.108 C 
BRANCH  15  16
ATOM     16  C   UNL     1       2.944  -3.454  -3.087  0.00  0.00    +0.017 C 
BRANCH  16  17
ATOM     17  C   UNL     1       2.424  -2.438  -2.067  0.00  0.00    -0.017 C 
BRANCH  17  18
ATOM     18  C   UNL     1       2.185  -1.096  -2.761  0.00  0.00    -0.079 C 
BRANCH  18  23
ATOM     19  C   UNL     1      -0.019   1.544   0.011  0.00  0.00    -0.002 C 
ATOM     20  C   UNL     1       1.397   2.058  -0.000  0.00  0.00    -0.002 C 
ATOM     21  C   UNL     1       1.946   2.302  -1.420  0.00  0.00    -0.019 C 
ATOM     22  C   UNL     1       1.569   1.179  -2.402  0.00  0.00    -0.079 C 
ATOM     23  N   UNL     1       1.686  -0.121  -1.782  0.00  0.00    +0.380 N 
ATOM     24  C   UNL     1       0.344  -0.518  -1.321  0.00  0.00    -0.079 C 
ATOM     25  C   UNL     1       0.002  -0.004   0.002  0.00  0.00    -0.019 C 
ATOM     26  H   UNL     1       2.317  -0.070  -0.997  0.00  0.00    -0.082 HD
ENDBRANCH  18  23
ENDBRANCH  17  18
ENDBRANCH  16  17
ENDBRANCH  15  16
ENDBRANCH   1  15
TORSDOF 6
