REMARK  Name = ZINC14981080
REMARK  12 active torsions:
REMARK  status: ('A' for Active; 'I' for Inactive)
REMARK    1  A    between atoms: C_1  and  C_2
REMARK    2  A    between atoms: C_2  and  C_3
REMARK    3  A    between atoms: C_2  and  C_4
REMARK    4  A    between atoms: C_2  and  C_26
REMARK    5  A    between atoms: C_4  and  N_5
REMARK    6  A    between atoms: C_6  and  C_8
REMARK    7  A    between atoms: C_8  and  C_9
REMARK    8  A    between atoms: C_16  and  C_17
REMARK    9  A    between atoms: C_16  and  N_55
REMARK   10  A    between atoms: C_20  and  O_24
REMARK   11  A    between atoms: O_24  and  C_25
REMARK   12  A    between atoms: C_26  and  O_27
REMARK                            x       y       z     vdW  Elec       q    Type
REMARK                         _______ _______ _______ _____ _____    ______ ____
ROOT
ATOM      1  C   UNL     1      -0.595   1.550   1.188  0.00  0.00    +0.028 C 
ATOM      2  C   UNL     1       0.241   1.046   2.330  0.00  0.00    +0.200 C 
ATOM      3  O   UNL     1       0.655  -0.094   2.288  0.00  0.00    -0.278 OA
ATOM      4  N   UNL     1       0.547   1.800   3.391  0.00  0.00    -0.318 N 
ATOM      5  C   UNL     1       0.129   3.192   3.522  0.00  0.00    +0.085 C 
ATOM      6  C   UNL     1      -1.024   3.486   2.560  0.00  0.00    -0.058 C 
ATOM      7  H   UNL     1       1.070   1.404   4.105  0.00  0.00    +0.149 HD
ATOM      8  N   UNL     1      -0.626   3.025   1.215  0.00  0.00    +0.391 N 
ATOM      9  H   UNL     1       0.311   3.385   1.000  0.00  0.00    -0.080 HD
ENDROOT
BRANCH   1  10
ATOM     10  C   UNL     1       0.022   1.090  -0.135  0.00  0.00    +0.089 C 
BRANCH  10  12
ATOM     11  N   UNL     1       2.179   1.332  -1.321  0.00  0.00    -0.315 N 
ATOM     12  C   UNL     1       1.397   1.689  -0.283  0.00  0.00    +0.212 C 
ATOM     13  O   UNL     1       1.800   2.491   0.532  0.00  0.00    -0.276 OA
ATOM     14  H   UNL     1       1.856   0.690  -1.974  0.00  0.00    +0.149 HD
BRANCH  11  15
ATOM     15  C   UNL     1       3.515   1.914  -1.466  0.00  0.00    +0.112 C 
BRANCH  15  17
ATOM     16  C   UNL     1       4.303  -0.175  -2.587  0.00  0.00    +0.015 C 
ATOM     17  C   UNL     1       4.187   1.345  -2.717  0.00  0.00    +0.004 C 
ATOM     18  C   UNL     1       3.346   1.689  -3.948  0.00  0.00    +0.015 C 
BRANCH  17  19
ATOM     19  C   UNL     1       5.583   1.952  -2.868  0.00  0.00    +0.163 C 
BRANCH  19  20
ATOM     20  O   UNL     1       6.210   1.421  -4.037  0.00  0.00    -0.394 OA
ATOM     21  H   UNL     1       7.101   1.763  -4.195  0.00  0.00    +0.209 HD
ENDBRANCH  19  20
ENDBRANCH  17  19
ENDBRANCH  15  17
ENDBRANCH  11  15
ENDBRANCH  10  12
ENDBRANCH   1  10
BRANCH   8  22
ATOM     22  C   UNL     1      -1.580   3.530   0.202  0.00  0.00    -0.039 C 
BRANCH  22  23
ATOM     23  C   UNL     1      -1.685   5.028   0.326  0.00  0.00    -0.028 A 
ATOM     24  C   UNL     1      -0.899   5.844  -0.467  0.00  0.00    +0.008 A 
ATOM     25  C   UNL     1      -0.993   7.217  -0.354  0.00  0.00    +0.046 A 
ATOM     26  C   UNL     1      -1.877   7.780   0.556  0.00  0.00    +0.123 A 
ATOM     27  C   UNL     1      -2.665   6.962   1.351  0.00  0.00    +0.084 A 
ATOM     28  C   UNL     1      -2.572   5.586   1.231  0.00  0.00    +0.128 A 
ATOM     29  F   UNL     1      -3.343   4.788   2.002  0.00  0.00    -0.205 F 
BRANCH  26  30
ATOM     30  O   UNL     1      -1.970   9.131   0.667  0.00  0.00    -0.495 OA
ATOM     31  C   UNL     1      -2.900   9.641   1.624  0.00  0.00    +0.277 C 
ENDBRANCH  26  30
ENDBRANCH  22  23
ENDBRANCH   8  22
TORSDOF 9
