REMARK  Name = ZINC40760878
REMARK  12 active torsions:
REMARK  status: ('A' for Active; 'I' for Inactive)
REMARK    1  A    between atoms: C_1  and  C_2
REMARK    2  A    between atoms: C_2  and  C_30
REMARK    3  A    between atoms: C_4  and  N_10
REMARK    4  A    between atoms: C_6  and  C_8
REMARK    5  A    between atoms: C_6  and  C_9
REMARK    6  A    between atoms: C_12  and  N_29
REMARK    7  A    between atoms: C_13  and  N_17
REMARK    8  A    between atoms: N_17  and  C_18
REMARK    9  A    between atoms: C_21  and  O_26
REMARK   10  A    between atoms: C_23  and  O_24
REMARK   11  A    between atoms: O_24  and  C_25
REMARK   12  A    between atoms: O_26  and  C_27
REMARK                            x       y       z     vdW  Elec       q    Type
REMARK                         _______ _______ _______ _____ _____    ______ ____
ROOT
ATOM      1  N   UNL     1       3.277  -1.664  -2.180  0.00  0.00    -0.325 N 
ATOM      2  C   UNL     1       4.323  -0.980  -2.788  0.00  0.00    +0.145 A 
ATOM      3  C   UNL     1       4.644  -1.220  -4.126  0.00  0.00    +0.105 A 
ATOM      4  C   UNL     1       5.703  -0.505  -4.688  0.00  0.00    +0.149 A 
ATOM      5  N   UNL     1       6.362   0.371  -3.933  0.00  0.00    -0.219 NA
ATOM      6  C   UNL     1       6.027   0.568  -2.674  0.00  0.00    +0.225 A 
ATOM      7  N   UNL     1       5.030  -0.082  -2.107  0.00  0.00    -0.219 NA
ATOM      8  H   UNL     1       2.767  -2.317  -2.683  0.00  0.00    +0.148 HD
ENDROOT
BRANCH   1  12
ATOM      9  C   UNL     1       0.989  -0.009   1.200  0.00  0.00    -0.010 C 
ATOM     10  C   UNL     1       1.114  -1.513   0.934  0.00  0.00    -0.072 C 
ATOM     11  C   UNL     1       1.478  -1.750  -0.528  0.00  0.00    +0.009 C 
ATOM     12  C   UNL     1       2.945  -1.398  -0.774  0.00  0.00    +0.069 C 
ATOM     13  C   UNL     1       3.806  -2.287   0.123  0.00  0.00    +0.009 C 
ATOM     14  C   UNL     1       3.459  -2.055   1.590  0.00  0.00    -0.072 C 
ATOM     15  N   UNL     1       2.035  -2.140   1.865  0.00  0.00    +0.386 N 
ATOM     16  C   UNL     1       4.037  -0.714   2.054  0.00  0.00    -0.010 C 
ATOM     17  C   UNL     1       4.163  -3.161   2.412  0.00  0.00    -0.010 C 
ATOM     18  C   UNL     1      -0.284  -2.132   1.167  0.00  0.00    -0.010 C 
ATOM     19  H   UNL     1       1.865  -1.750   2.797  0.00  0.00    -0.084 HD
ATOM     20  H   UNL     1       1.783  -3.130   1.948  0.00  0.00    -0.084 HD
ENDBRANCH   1  12
BRANCH   3  21
ATOM     21  N   UNL     1       3.921  -2.155  -4.884  0.00  0.00    -0.353 N 
ATOM     22  H   UNL     1       3.188  -2.644  -4.480  0.00  0.00    +0.143 HD
ATOM     23  H   UNL     1       4.156  -2.311  -5.813  0.00  0.00    +0.143 HD
ENDBRANCH   3  21
BRANCH   4  24
ATOM     24  N   UNL     1       6.065  -0.706  -6.014  0.00  0.00    -0.295 N 
ATOM     25  H   UNL     1       5.523  -1.274  -6.584  0.00  0.00    +0.154 HD
BRANCH  24  26
ATOM     26  C   UNL     1       7.213  -0.088  -6.529  0.00  0.00    +0.076 A 
ATOM     27  C   UNL     1       8.193   0.385  -5.668  0.00  0.00    +0.050 A 
ATOM     28  C   UNL     1       9.325   0.994  -6.176  0.00  0.00    +0.084 A 
ATOM     29  C   UNL     1       9.484   1.134  -7.548  0.00  0.00    +0.142 A 
ATOM     30  C   UNL     1       8.507   0.663  -8.412  0.00  0.00    +0.094 A 
ATOM     31  C   UNL     1       7.375   0.046  -7.906  0.00  0.00    +0.145 A 
ATOM     32 CL   UNL     1      10.550   1.586  -5.097  0.00  0.00    -0.080 Cl
BRANCH  31  33
ATOM     33  O   UNL     1       6.418  -0.422  -8.753  0.00  0.00    -0.493 OA
ATOM     34  C   UNL     1       6.651  -0.249 -10.152  0.00  0.00    +0.277 C 
ENDBRANCH  31  33
BRANCH  29  35
ATOM     35  O   UNL     1      10.598   1.735  -8.045  0.00  0.00    -0.494 OA
ATOM     36  C   UNL     1      10.697   1.845  -9.467  0.00  0.00    +0.277 C 
ENDBRANCH  29  35
ENDBRANCH  24  26
ENDBRANCH   4  24
TORSDOF 6
