REMARK  Name = ZINC08378105
REMARK  6 active torsions:
REMARK  status: ('A' for Active; 'I' for Inactive)
REMARK    1  A    between atoms: C_1  and  O_2
REMARK    2  A    between atoms: O_2  and  C_3
REMARK    3  A    between atoms: C_3  and  C_5
REMARK    4  A    between atoms: C_6  and  C_17
REMARK    5  A    between atoms: C_7  and  C_11
REMARK    6  A    between atoms: C_9  and  N_10
REMARK                            x       y       z     vdW  Elec       q    Type
REMARK                         _______ _______ _______ _____ _____    ______ ____
ROOT
ATOM      1  C   UNL     1      -1.373   3.017  -0.068  0.00  0.00    +0.127 A 
ATOM      2  C   UNL     1      -2.823   3.246   0.093  0.00  0.00    +0.044 A 
ATOM      3  C   UNL     1      -3.390   2.004   0.151  0.00  0.00    +0.146 A 
ATOM      4  O   UNL     1      -2.424   1.071   0.036  0.00  0.00    -0.440 OA
ATOM      5  C   UNL     1      -1.218   1.636  -0.098  0.00  0.00    +0.199 A 
ENDROOT
BRANCH   3   6
ATOM      6  C   UNL     1      -4.830   1.728   0.314  0.00  0.00    +0.018 A 
ATOM      7  C   UNL     1      -5.565   2.395   1.297  0.00  0.00    +0.011 A 
ATOM      8  C   UNL     1      -6.912   2.137   1.440  0.00  0.00    +0.001 A 
ATOM      9  C   UNL     1      -7.533   1.211   0.620  0.00  0.00    +0.000 A 
ATOM     10  C   UNL     1      -6.810   0.542  -0.352  0.00  0.00    +0.001 A 
ATOM     11  C   UNL     1      -5.464   0.794  -0.510  0.00  0.00    +0.011 A 
ENDBRANCH   3   6
BRANCH   2  12
ATOM     12  C   UNL     1      -3.517   4.550   0.178  0.00  0.00    -0.013 A 
ATOM     13  C   UNL     1      -4.387   4.949  -0.837  0.00  0.00    +0.008 A 
ATOM     14  C   UNL     1      -5.035   6.164  -0.749  0.00  0.00    +0.001 A 
ATOM     15  C   UNL     1      -4.815   6.991   0.338  0.00  0.00    +0.000 A 
ATOM     16  C   UNL     1      -3.950   6.604   1.346  0.00  0.00    +0.001 A 
ATOM     17  C   UNL     1      -3.300   5.389   1.272  0.00  0.00    +0.008 A 
ENDBRANCH   2  12
BRANCH   5  18
ATOM     18  N   UNL     1      -0.027   0.964  -0.236  0.00  0.00    -0.329 N 
ATOM     19  H   UNL     1      -0.015  -0.006  -0.243  0.00  0.00    +0.145 HD
ATOM     20  H   UNL     1       0.801   1.460  -0.332  0.00  0.00    +0.145 HD
ENDBRANCH   5  18
BRANCH   1  21
ATOM     21  C   UNL     1      -0.322   4.029  -0.175  0.00  0.00    +0.345 C 
ATOM     22  O   UNL     1      -0.002   4.460  -1.267  0.00  0.00    -0.245 OA
BRANCH  21  24
ATOM     23  C   UNL     1       1.308   5.472   0.758  0.00  0.00    +0.280 C 
ATOM     24  O   UNL     1       0.292   4.484   0.937  0.00  0.00    -0.464 OA
ENDBRANCH  21  24
ENDBRANCH   1  21
TORSDOF 5
