REMARK  Name = ZINC23505207
REMARK  7 active torsions:
REMARK  status: ('A' for Active; 'I' for Inactive)
REMARK    1  A    between atoms: C_3  and  C_22
REMARK    2  A    between atoms: C_5  and  N_7
REMARK    3  A    between atoms: C_10  and  N_13
REMARK    4  A    between atoms: N_13  and  C_14
REMARK    5  A    between atoms: C_14  and  C_15
REMARK    6  A    between atoms: C_15  and  S_16
REMARK    7  A    between atoms: S_16  and  C_17
REMARK                            x       y       z     vdW  Elec       q    Type
REMARK                         _______ _______ _______ _____ _____    ______ ____
ROOT
ATOM      1  N   UNL     1      -0.723   1.572  -1.182  0.00  0.00    -0.330 N 
ATOM      2  C   UNL     1      -0.013   1.086   0.008  0.00  0.00    +0.103 C 
ATOM      3  C   UNL     1      -0.729   1.579   1.267  0.00  0.00    +0.003 C 
ATOM      4  C   UNL     1      -2.170   1.064   1.264  0.00  0.00    -0.069 C 
ATOM      5  C   UNL     1      -2.873   1.544  -0.009  0.00  0.00    +0.003 C 
ATOM      6  C   UNL     1      -2.095   1.052  -1.231  0.00  0.00    +0.103 C 
ENDROOT
BRANCH   1  11
ATOM      7  C   UNL     1       1.875   0.238  -3.420  0.00  0.00    +0.002 A 
ATOM      8  C   UNL     1       1.380   0.605  -4.655  0.00  0.00    +0.011 A 
ATOM      9  C   UNL     1       0.173   1.301  -4.745  0.00  0.00    +0.019 A 
ATOM     10  C   UNL     1      -0.529   1.623  -3.584  0.00  0.00    +0.034 A 
ATOM     11  C   UNL     1      -0.023   1.251  -2.348  0.00  0.00    +0.030 A 
ATOM     12  C   UNL     1       1.182   0.563  -2.269  0.00  0.00    +0.023 A 
BRANCH   9  13
ATOM     13  C   UNL     1      -0.359   1.694  -6.067  0.00  0.00    +0.135 A 
ATOM     14  C   UNL     1       0.227   1.446  -7.269  0.00  0.00    +0.050 A 
ATOM     15  C   UNL     1      -0.621   1.990  -8.254  0.00  0.00    +0.042 A 
ATOM     16  C   UNL     1      -1.667   2.545  -7.611  0.00  0.00    +0.196 A 
ATOM     17  O   UNL     1      -1.505   2.364  -6.290  0.00  0.00    -0.463 OA
ENDBRANCH   9  13
ENDBRANCH   1  11
BRANCH   4  18
ATOM     18  N   UNL     1      -2.880   1.581   2.442  0.00  0.00    +0.382 N 
ATOM     19  H   UNL     1      -2.521   2.595   2.671  0.00  0.00    -0.085 HD
ATOM     20  H   UNL     1      -3.960   1.613   2.234  0.00  0.00    -0.085 HD
BRANCH  18  21
ATOM     21  C   UNL     1      -2.651   0.725   3.613  0.00  0.00    -0.071 C 
BRANCH  21  22
ATOM     22  C   UNL     1      -3.405   1.294   4.816  0.00  0.00    +0.057 C 
BRANCH  22  23
ATOM     23  S   UNL     1      -3.122   0.236   6.263  0.00  0.00    -0.107 S 
BRANCH  23  24
ATOM     24  C   UNL     1      -4.043   1.015   7.547  0.00  0.00    +0.112 A 
ATOM     25  C   UNL     1      -4.156   0.596   8.835  0.00  0.00    +0.170 A 
ATOM     26  N   UNL     1      -4.941   1.445   9.498  0.00  0.00    -0.137 NA
ATOM     27  N   UNL     1      -5.333   2.387   8.713  0.00  0.00    -0.067 NA
ATOM     28  N   UNL     1      -4.783   2.156   7.443  0.00  0.00    -0.251 N 
ATOM     29  H   UNL     1      -4.843   2.686   6.481  0.00  0.00    +0.191 HD
ENDBRANCH  23  24
ENDBRANCH  22  23
ENDBRANCH  21  22
ENDBRANCH  18  21
ENDBRANCH   4  18
TORSDOF 7
