REMARK  Name = ZINC50441516
REMARK  7 active torsions:
REMARK  status: ('A' for Active; 'I' for Inactive)
REMARK    1  A    between atoms: C_1  and  N_2
REMARK    2  A    between atoms: N_2  and  C_3
REMARK    3  A    between atoms: C_3  and  C_5
REMARK    4  A    between atoms: C_3  and  C_18
REMARK    5  A    between atoms: C_5  and  O_6
REMARK    6  A    between atoms: O_6  and  C_7
REMARK    7  A    between atoms: C_10  and  N_14
REMARK                            x       y       z     vdW  Elec       q    Type
REMARK                         _______ _______ _______ _____ _____    ______ ____
ROOT
ATOM      1  O   UNL     1       1.323  -2.574  -0.185  0.00  0.00    -0.491 OA
ENDROOT
BRANCH   1   2
ATOM      2  C   UNL     1       1.345  -3.931  -0.101  0.00  0.00    +0.148 A 
ATOM      3  C   UNL     1       0.356  -4.599   0.608  0.00  0.00    +0.063 A 
ATOM      4  C   UNL     1       0.381  -5.979   0.692  0.00  0.00    +0.051 A 
ATOM      5  C   UNL     1       1.388  -6.693   0.071  0.00  0.00    +0.129 A 
ATOM      6  C   UNL     1       2.374  -6.030  -0.636  0.00  0.00    +0.051 A 
ATOM      7  C   UNL     1       2.352  -4.650  -0.728  0.00  0.00    +0.063 A 
ATOM      8 BR   UNL     1       3.696  -3.745  -1.702  0.00  0.00    -0.046 Br
ATOM      9 BR   UNL     1      -1.022  -3.623   1.460  0.00  0.00    -0.046 Br
BRANCH   5  10
ATOM     10  N   UNL     1       1.412  -8.170   0.163  0.00  0.00    +0.056 N 
ATOM     11  O   UNL     1       0.551  -8.751   0.781  0.00  0.00    -0.126 OA
ATOM     12  O   UNL     1       2.293  -8.795  -0.380  0.00  0.00    -0.126 OA
ENDBRANCH   5  10
ENDBRANCH   1   2
BRANCH   1  13
ATOM     13  C   UNL     1       0.602  -2.004  -1.278  0.00  0.00    +0.222 C 
BRANCH  13  14
ATOM     14  C   UNL     1       0.690  -0.478  -1.207  0.00  0.00    +0.053 C 
BRANCH  14  15
ATOM     15  C   UNL     1       2.137  -0.060  -1.158  0.00  0.00    +0.200 C 
ATOM     16  O   UNL     1       2.554   0.571  -0.210  0.00  0.00    -0.278 OA
ATOM     17  N   UNL     1       2.967  -0.387  -2.168  0.00  0.00    -0.331 N 
ATOM     18  H   UNL     1       2.633  -0.891  -2.926  0.00  0.00    +0.145 HD
ATOM     19  H   UNL     1       3.898  -0.117  -2.136  0.00  0.00    +0.145 HD
ENDBRANCH  14  15
BRANCH  14  21
ATOM     20  C   UNL     1      -0.018   1.465   0.010  0.00  0.00    -0.099 C 
ATOM     21  N   UNL     1       0.002  -0.004   0.002  0.00  0.00    +0.387 N 
ATOM     22  H   UNL     1       0.490  -0.338   0.820  0.00  0.00    -0.085 HD
ATOM     23  H   UNL     1      -0.945  -0.353   0.009  0.00  0.00    -0.085 HD
ENDBRANCH  14  21
ENDBRANCH  13  14
ENDBRANCH   1  13
TORSDOF 6
