REMARK  Name = ZINC66126381
REMARK  8 active torsions:
REMARK  status: ('A' for Active; 'I' for Inactive)
REMARK    1  A    between atoms: C_1  and  C_2
REMARK    2  A    between atoms: C_5  and  C_10
REMARK    3  A    between atoms: C_6  and  O_8
REMARK    4  A    between atoms: O_8  and  C_9
REMARK    5  A    between atoms: C_10  and  N_11
REMARK    6  A    between atoms: N_14  and  C_15
REMARK    7  A    between atoms: C_15  and  C_16
REMARK    8  A    between atoms: C_25  and  C_28
REMARK                            x       y       z     vdW  Elec       q    Type
REMARK                         _______ _______ _______ _____ _____    ______ ____
ROOT
ATOM      1  N   UNL     1      -1.301  -4.738   0.264  0.00  0.00    -0.295 N 
ATOM      2  C   UNL     1      -1.522  -6.062   0.381  0.00  0.00    +0.300 C 
ATOM      3  O   UNL     1      -0.599  -6.845   0.263  0.00  0.00    -0.253 OA
ATOM      4  N   UNL     1      -2.766  -6.519   0.628  0.00  0.00    -0.295 N 
ATOM      5  H   UNL     1      -2.037  -4.113   0.358  0.00  0.00    +0.151 HD
ATOM      6  H   UNL     1      -3.502  -5.894   0.722  0.00  0.00    +0.151 HD
ENDROOT
BRANCH   1   7
ATOM      7  C   UNL     1       0.051  -4.242  -0.005  0.00  0.00    +0.146 C 
BRANCH   7  12
ATOM      8  C   UNL     1      -0.044   1.492  -0.182  0.00  0.00    +0.066 C 
ATOM      9  C   UNL     1      -0.019  -0.015  -0.158  0.00  0.00    +0.042 A 
ATOM     10  C   UNL     1      -0.009  -0.716  -1.348  0.00  0.00    +0.023 A 
ATOM     11  C   UNL     1       0.014  -2.103  -1.318  0.00  0.00    +0.012 A 
ATOM     12  C   UNL     1       0.026  -2.737  -0.088  0.00  0.00    +0.031 A 
ATOM     13  C   UNL     1       0.015  -1.968   1.068  0.00  0.00    +0.219 A 
ATOM     14  N   UNL     1      -0.001  -0.647   1.000  0.00  0.00    -0.218 NA
BRANCH  13  15
ATOM     15  O   UNL     1       0.027  -2.578   2.281  0.00  0.00    -0.479 OA
ATOM     16  C   UNL     1       0.014  -1.732   3.432  0.00  0.00    +0.279 C 
ENDBRANCH  13  15
ENDBRANCH   7  12
ENDBRANCH   1   7
BRANCH   4  17
ATOM     17  C   UNL     1      -3.006  -7.959   0.754  0.00  0.00    +0.142 C 
BRANCH  17  18
ATOM     18  C   UNL     1      -4.468  -8.202   1.028  0.00  0.00    -0.014 A 
ATOM     19  C   UNL     1      -4.940  -8.241   2.333  0.00  0.00    +0.010 A 
ATOM     20  C   UNL     1      -6.288  -8.467   2.541  0.00  0.00    +0.042 A 
ATOM     21  C   UNL     1      -7.121  -8.647   1.441  0.00  0.00    +0.099 A 
ATOM     22  N   UNL     1      -6.633  -8.603   0.211  0.00  0.00    -0.349 N 
ATOM     23  C   UNL     1      -5.351  -8.383  -0.017  0.00  0.00    +0.089 A 
ATOM     24  N   UNL     1      -8.479  -8.875   1.635  0.00  0.00    -0.317 N 
ATOM     25  C   UNL     1      -9.021  -9.059   2.988  0.00  0.00    +0.107 C 
ATOM     26  C   UNL     1      -9.810 -10.371   3.029  0.00  0.00    +0.022 C 
ATOM     27  C   UNL     1     -10.869 -10.360   1.923  0.00  0.00    -0.011 C 
ATOM     28  C   UNL     1     -10.183 -10.251   0.559  0.00  0.00    +0.022 C 
ATOM     29  C   UNL     1      -9.399  -8.931   0.491  0.00  0.00    +0.107 C 
ATOM     30  C   UNL     1     -11.682 -11.655   1.983  0.00  0.00    +0.007 C 
ATOM     31  H   UNL     1      -7.232  -8.731  -0.541  0.00  0.00    +0.167 HD
ENDBRANCH  17  18
ENDBRANCH   4  17
TORSDOF 5
