REMARK  Name = ZINC58992759
REMARK  7 active torsions:
REMARK  status: ('A' for Active; 'I' for Inactive)
REMARK    1  A    between atoms: C_3  and  C_10
REMARK    2  A    between atoms: C_5  and  N_7
REMARK    3  A    between atoms: N_11  and  N_12
REMARK    4  A    between atoms: C_15  and  S_18
REMARK    5  A    between atoms: S_18  and  C_19
REMARK    6  A    between atoms: C_19  and  C_20
REMARK    7  A    between atoms: N_22  and  C_23
REMARK                            x       y       z     vdW  Elec       q    Type
REMARK                         _______ _______ _______ _____ _____    ______ ____
ROOT
ATOM      1  N   UNL     1       4.847   4.169   0.002  0.00  0.00    -0.205 N 
ATOM      2  C   UNL     1       4.832   5.552   0.006  0.00  0.00    +0.232 A 
ATOM      3  N   UNL     1       3.759   6.314   0.017  0.00  0.00    -0.186 NA
ATOM      4  C   UNL     1       4.121   7.602   0.018  0.00  0.00    +0.211 A 
ATOM      5  N   UNL     1       5.431   7.676   0.009  0.00  0.00    -0.144 NA
ATOM      6  N   UNL     1       5.916   6.358   0.006  0.00  0.00    -0.245 N 
ATOM      7  H   UNL     1       5.693   3.693  -0.001  0.00  0.00    +0.177 HD
ATOM      8  H   UNL     1       6.845   6.081   0.002  0.00  0.00    +0.192 HD
ENDROOT
BRANCH   1  10
ATOM      9  C   UNL     1       3.656   2.158  -0.001  0.00  0.00    +0.138 C 
ATOM     10  N   UNL     1       3.642   3.455   0.003  0.00  0.00    -0.188 NA
BRANCH   9  13
ATOM     11  C   UNL     1      -0.015   1.379   0.006  0.00  0.00    +0.003 A 
ATOM     12  C   UNL     1       1.168   2.088   0.005  0.00  0.00    +0.009 A 
ATOM     13  C   UNL     1       2.387   1.406   0.000  0.00  0.00    -0.003 A 
ATOM     14  C   UNL     1       2.398   0.009  -0.004  0.00  0.00    +0.042 A 
ATOM     15  C   UNL     1       1.208  -0.687  -0.004  0.00  0.00    +0.127 A 
ATOM     16  C   UNL     1       0.004  -0.004   0.001  0.00  0.00    +0.033 A 
BRANCH  15  17
ATOM     17  N   UNL     1       1.218  -2.167  -0.008  0.00  0.00    +0.056 N 
ATOM     18  O   UNL     1       2.269  -2.764  -0.013  0.00  0.00    -0.126 OA
ATOM     19  O   UNL     1       0.175  -2.778  -0.008  0.00  0.00    -0.126 OA
ENDBRANCH  15  17
ENDBRANCH   9  13
ENDBRANCH   1  10
BRANCH   4  20
ATOM     20  S   UNL     1       3.018   8.976   0.031  0.00  0.00    -0.075 S 
BRANCH  20  21
ATOM     21  C   UNL     1       4.116  10.420   0.028  0.00  0.00    +0.173 C 
BRANCH  21  22
ATOM     22  C   UNL     1       3.289  11.680   0.038  0.00  0.00    +0.227 C 
ATOM     23  O   UNL     1       2.079  11.610   0.047  0.00  0.00    -0.275 OA
ATOM     24  N   UNL     1       3.895  12.883   0.038  0.00  0.00    -0.285 N 
ATOM     25  H   UNL     1       4.862  12.940   0.098  0.00  0.00    +0.155 HD
BRANCH  24  26
ATOM     26  C   UNL     1       3.130  14.052  -0.050  0.00  0.00    +0.034 A 
ATOM     27  C   UNL     1       3.613  15.148  -0.753  0.00  0.00    +0.023 A 
ATOM     28  C   UNL     1       2.856  16.300  -0.838  0.00  0.00    +0.003 A 
ATOM     29  C   UNL     1       1.618  16.363  -0.225  0.00  0.00    +0.015 A 
ATOM     30  C   UNL     1       1.134  15.273   0.476  0.00  0.00    +0.020 A 
ATOM     31  C   UNL     1       1.885  14.115   0.560  0.00  0.00    +0.038 A 
ATOM     32 BR   UNL     1      -0.559  15.364   1.313  0.00  0.00    -0.050 Br
ENDBRANCH  24  26
ENDBRANCH  21  22
ENDBRANCH  20  21
ENDBRANCH   4  20
TORSDOF 7
