REMARK  Name = ZINC36612913
REMARK  10 active torsions:
REMARK  status: ('A' for Active; 'I' for Inactive)
REMARK    1  A    between atoms: C_1  and  C_2
REMARK    2  A    between atoms: C_2  and  C_4
REMARK    3  A    between atoms: C_2  and  N_10
REMARK    4  A    between atoms: N_10  and  C_11
REMARK    5  A    between atoms: C_11  and  C_12
REMARK    6  A    between atoms: C_14  and  O_24
REMARK    7  A    between atoms: C_15  and  O_19
REMARK    8  A    between atoms: O_19  and  C_20
REMARK    9  A    between atoms: C_20  and  C_21
REMARK   10  A    between atoms: O_24  and  C_25
REMARK                            x       y       z     vdW  Elec       q    Type
REMARK                         _______ _______ _______ _____ _____    ______ ____
ROOT
ATOM      1  C   UNL     1      -3.440  -0.661   1.287  0.00  0.00    -0.060 A 
ATOM      2  C   UNL     1      -4.467   0.119   0.789  0.00  0.00    +0.051 A 
ATOM      3  C   UNL     1      -5.767  -0.358   0.797  0.00  0.00    +0.163 A 
ATOM      4  C   UNL     1      -6.037  -1.625   1.308  0.00  0.00    +0.176 A 
ATOM      5  C   UNL     1      -5.003  -2.402   1.805  0.00  0.00    +0.059 A 
ATOM      6  C   UNL     1      -3.706  -1.921   1.789  0.00  0.00    +0.020 A 
ATOM      7  I   UNL     1      -5.403  -4.309   2.575  0.00  0.00    -0.040 I 
ENDROOT
BRANCH   3   8
ATOM      8  O   UNL     1      -6.778   0.408   0.309  0.00  0.00    -0.491 OA
ATOM      9  C   UNL     1      -6.428   1.698  -0.199  0.00  0.00    +0.277 C 
ENDBRANCH   3   8
BRANCH   1  10
ATOM     10  C   UNL     1      -2.026  -0.140   1.276  0.00  0.00    -0.046 C 
BRANCH  10  11
ATOM     11  N   UNL     1      -1.376  -0.512   0.012  0.00  0.00    +0.386 N 
ATOM     12  H   UNL     1      -1.888  -0.113  -0.760  0.00  0.00    -0.085 HD
ATOM     13  H   UNL     1      -1.364  -1.518  -0.076  0.00  0.00    -0.085 HD
BRANCH  11  15
ATOM     14  C   UNL     1      -0.019   1.526   0.010  0.00  0.00    -0.009 C 
ATOM     15  C   UNL     1       0.002  -0.004   0.002  0.00  0.00    -0.044 C 
BRANCH  15  16
ATOM     16  C   UNL     1       0.707  -0.490  -1.238  0.00  0.00    -0.062 A 
ATOM     17  C   UNL     1       0.038  -0.522  -2.447  0.00  0.00    +0.002 A 
ATOM     18  C   UNL     1       0.685  -0.967  -3.584  0.00  0.00    +0.000 A 
ATOM     19  C   UNL     1       2.002  -1.381  -3.513  0.00  0.00    +0.000 A 
ATOM     20  C   UNL     1       2.672  -1.349  -2.304  0.00  0.00    +0.000 A 
ATOM     21  C   UNL     1       2.026  -0.899  -1.167  0.00  0.00    +0.002 A 
ENDBRANCH  15  16
ENDBRANCH  11  15
ENDBRANCH  10  11
ENDBRANCH   1  10
BRANCH   4  22
ATOM     22  O   UNL     1      -7.312  -2.098   1.319  0.00  0.00    -0.478 OA
BRANCH  22  23
ATOM     23  C   UNL     1      -7.743  -2.828   0.168  0.00  0.00    +0.324 C 
BRANCH  23  24
ATOM     24  C   UNL     1      -9.171  -3.269   0.359  0.00  0.00    +0.248 C 
ATOM     25  O   UNL     1      -9.761  -2.988   1.380  0.00  0.00    -0.272 OA
ATOM     26  N   UNL     1      -9.792  -3.978  -0.605  0.00  0.00    -0.327 N 
ATOM     27  H   UNL     1      -9.320  -4.203  -1.421  0.00  0.00    +0.145 HD
ATOM     28  H   UNL     1     -10.711  -4.262  -0.481  0.00  0.00    +0.145 HD
ENDBRANCH  23  24
ENDBRANCH  22  23
ENDBRANCH   4  22
TORSDOF 8
