REMARK  Name = ZINC40997800
REMARK  7 active torsions:
REMARK  status: ('A' for Active; 'I' for Inactive)
REMARK    1  A    between atoms: C_1  and  C_2
REMARK    2  A    between atoms: C_5  and  C_7
REMARK    3  A    between atoms: C_8  and  C_13
REMARK    4  A    between atoms: C_13  and  N_14
REMARK    5  A    between atoms: N_14  and  C_15
REMARK    6  A    between atoms: C_15  and  C_16
REMARK    7  A    between atoms: C_19  and  C_21
REMARK                            x       y       z     vdW  Elec       q    Type
REMARK                         _______ _______ _______ _____ _____    ______ ____
ROOT
ATOM      1  C   UNL     1       1.667  -3.226  -0.023  0.00  0.00    +0.129 A 
ATOM      2  C   UNL     1       2.915  -3.287  -0.678  0.00  0.00    -0.016 A 
ATOM      3  C   UNL     1       3.445  -4.506  -0.446  0.00  0.00    +0.107 A 
ATOM      4  N   UNL     1       2.578  -5.199   0.324  0.00  0.00    -0.284 N 
ATOM      5  H   UNL     1       2.702  -6.107   0.644  0.00  0.00    +0.188 HD
ATOM      6  N   UNL     1       1.472  -4.380   0.583  0.00  0.00    -0.171 NA
ENDROOT
BRANCH   1  11
ATOM      7  C   UNL     1      -0.018   1.503   0.010  0.00  0.00    +0.086 C 
ATOM      8  C   UNL     1       0.002  -0.004   0.002  0.00  0.00    +0.103 A 
ATOM      9  C   UNL     1      -1.081  -0.804   0.003  0.00  0.00    +0.045 A 
ATOM     10  C   UNL     1      -0.613  -2.134  -0.007  0.00  0.00    +0.052 A 
ATOM     11  C   UNL     1       0.745  -2.070  -0.013  0.00  0.00    +0.155 A 
ATOM     12  O   UNL     1       1.104  -0.772  -0.013  0.00  0.00    -0.458 OA
ENDBRANCH   1  11
BRANCH   2  13
ATOM     13  C   UNL     1       3.543  -2.186  -1.494  0.00  0.00    -0.042 C 
BRANCH  13  14
ATOM     14  N   UNL     1       4.170  -1.207  -0.595  0.00  0.00    +0.385 N 
ATOM     15  H   UNL     1       3.469  -0.815   0.016  0.00  0.00    -0.085 HD
ATOM     16  H   UNL     1       4.880  -1.664  -0.042  0.00  0.00    -0.085 HD
BRANCH  14  17
ATOM     17  C   UNL     1       4.782  -0.135  -1.389  0.00  0.00    -0.037 C 
BRANCH  17  18
ATOM     18  C   UNL     1       5.425   0.869  -0.467  0.00  0.00    -0.007 A 
ATOM     19  C   UNL     1       6.691   0.911   0.022  0.00  0.00    +0.120 A 
ATOM     20  N   UNL     1       6.989   1.917   0.821  0.00  0.00    -0.252 NA
ATOM     21  C   UNL     1       6.103   2.832   1.126  0.00  0.00    +0.075 A 
ATOM     22  S   UNL     1       4.735   2.337   0.279  0.00  0.00    -0.079 S 
ATOM     23  C   UNL     1       6.270   4.037   2.014  0.00  0.00    +0.073 C 
ENDBRANCH  17  18
ENDBRANCH  14  17
ENDBRANCH  13  14
ENDBRANCH   2  13
TORSDOF 5
