REMARK  Name = ZINC40377267
REMARK  8 active torsions:
REMARK  status: ('A' for Active; 'I' for Inactive)
REMARK    1  A    between atoms: C_1  and  C_2
REMARK    2  A    between atoms: C_5  and  C_8
REMARK    3  A    between atoms: C_5  and  N_12
REMARK    4  A    between atoms: N_9  and  O_10
REMARK    5  A    between atoms: N_12  and  S_13
REMARK    6  A    between atoms: S_13  and  C_16
REMARK    7  A    between atoms: C_16  and  C_17
REMARK    8  A    between atoms: C_16  and  C_18
REMARK                            x       y       z     vdW  Elec       q    Type
REMARK                         _______ _______ _______ _____ _____    ______ ____
ROOT
ATOM      1  C   UNL     1       0.068   1.166   0.581  0.00  0.00    +0.007 C 
ATOM      2  C   UNL     1       0.131  -0.360   0.675  0.00  0.00    -0.014 C 
ATOM      3  C   UNL     1       0.656  -0.930  -0.644  0.00  0.00    +0.005 C 
ATOM      4  C   UNL     1       2.057  -0.378  -0.916  0.00  0.00    +0.032 C 
ATOM      5  C   UNL     1       2.995  -0.781   0.223  0.00  0.00    +0.098 C 
ATOM      6  C   UNL     1       2.469  -0.210   1.542  0.00  0.00    +0.032 C 
ATOM      7  C   UNL     1       1.069  -0.762   1.815  0.00  0.00    +0.005 C 
ENDROOT
BRANCH   5   8
ATOM      8  C   UNL     1       4.374  -0.237  -0.046  0.00  0.00    +0.153 C 
ATOM      9  N   UNL     1       4.612   0.407  -1.140  0.00  0.00    -0.075 NA
ATOM     10  N   UNL     1       5.381  -0.427   0.875  0.00  0.00    -0.342 N 
ATOM     11  H   UNL     1       5.215  -0.953   1.673  0.00  0.00    +0.144 HD
ATOM     12  H   UNL     1       6.255  -0.034   0.726  0.00  0.00    +0.144 HD
BRANCH   9  13
ATOM     13  O   UNL     1       5.909   0.918  -1.392  0.00  0.00    -0.408 OA
ATOM     14  H   UNL     1       5.990   1.385  -2.235  0.00  0.00    +0.328 HD
ENDBRANCH   9  13
ENDBRANCH   5   8
BRANCH   5  15
ATOM     15  N   UNL     1       3.055  -2.242   0.313  0.00  0.00    -0.181 NA
ATOM     16  H   UNL     1       2.792  -2.689   1.133  0.00  0.00    +0.149 HD
BRANCH  15  17
ATOM     17  S   UNL     1       3.571  -3.131  -0.985  0.00  0.00    +0.033 S 
ATOM     18  O   UNL     1       3.423  -4.485  -0.580  0.00  0.00    -0.158 OA
ATOM     19  O   UNL     1       2.837  -2.620  -2.090  0.00  0.00    -0.158 OA
BRANCH  17  20
ATOM     20  C   UNL     1       5.330  -2.721  -1.161  0.00  0.00    +0.142 C 
ATOM     21  C   UNL     1       6.084  -3.161   0.095  0.00  0.00    +0.033 C 
ATOM     22  C   UNL     1       5.903  -3.445  -2.380  0.00  0.00    +0.033 C 
ENDBRANCH  17  20
ENDBRANCH  15  17
ENDBRANCH   5  15
TORSDOF 5
