REMARK  Name = ZINC37616508
REMARK  4 active torsions:
REMARK  status: ('A' for Active; 'I' for Inactive)
REMARK    1  A    between atoms: C_4  and  N_16
REMARK    2  A    between atoms: C_5  and  N_7
REMARK    3  A    between atoms: C_8  and  C_10
REMARK    4  A    between atoms: C_10  and  N_15
REMARK                            x       y       z     vdW  Elec       q    Type
REMARK                         _______ _______ _______ _____ _____    ______ ____
ROOT
ATOM      1  N   UNL     1       1.233  -2.046  -0.019  0.00  0.00    -0.285 N 
ATOM      2  C   UNL     1       0.073  -2.727  -0.103  0.00  0.00    +0.206 C 
ATOM      3  O   UNL     1      -0.971  -2.129  -0.262  0.00  0.00    -0.277 OA
ATOM      4  H   UNL     1       2.074  -2.527   0.031  0.00  0.00    +0.155 HD
ENDROOT
BRANCH   1   9
ATOM      5  C   UNL     1       0.185   1.418   0.636  0.00  0.00    +0.002 A 
ATOM      6  C   UNL     1       1.206   2.124   0.025  0.00  0.00    +0.002 A 
ATOM      7  C   UNL     1       2.238   1.452  -0.602  0.00  0.00    +0.029 A 
ATOM      8  C   UNL     1       2.253   0.065  -0.620  0.00  0.00    +0.086 A 
ATOM      9  C   UNL     1       1.224  -0.647  -0.004  0.00  0.00    +0.059 A 
ATOM     10  C   UNL     1       0.192   0.036   0.623  0.00  0.00    +0.025 A 
BRANCH   8  11
ATOM     11  N   UNL     1       3.299  -0.619  -1.256  0.00  0.00    -0.238 N 
ATOM     12  C   UNL     1       4.304  -0.055  -1.964  0.00  0.00    +0.114 A 
ATOM     13  C   UNL     1       5.102  -1.052  -2.411  0.00  0.00    +0.041 A 
ATOM     14  C   UNL     1       4.568  -2.265  -1.963  0.00  0.00    +0.135 A 
ATOM     15  N   UNL     1       3.491  -2.006  -1.266  0.00  0.00    -0.175 NA
ENDBRANCH   8  11
ENDBRANCH   1   9
BRANCH   2  16
ATOM     16  C   UNL     1       0.071  -4.230   0.002  0.00  0.00    +0.007 C 
ATOM     17  C   UNL     1       0.228  -4.871  -1.399  0.00  0.00    -0.004 C 
ATOM     18  C   UNL     1      -1.211  -4.801  -1.970  0.00  0.00    -0.001 C 
ATOM     19  C   UNL     1      -2.114  -5.099  -0.755  0.00  0.00    -0.001 C 
ATOM     20  C   UNL     1      -1.299  -4.736   0.498  0.00  0.00    -0.004 C 
BRANCH  16  21
ATOM     21  N   UNL     1       1.142  -4.683   0.900  0.00  0.00    +0.388 N 
ATOM     22  H   UNL     1       0.993  -4.299   1.821  0.00  0.00    -0.089 HD
ATOM     23  H   UNL     1       1.135  -5.690   0.950  0.00  0.00    -0.089 HD
ATOM     24  H   UNL     1       2.033  -4.370   0.545  0.00  0.00    -0.089 HD
ENDBRANCH  16  21
ENDBRANCH   2  16
TORSDOF 4
