REMARK  Name = ZINC39448553
REMARK  9 active torsions:
REMARK  status: ('A' for Active; 'I' for Inactive)
REMARK    1  A    between atoms: C_1  and  C_2
REMARK    2  A    between atoms: C_2  and  O_3
REMARK    3  A    between atoms: O_3  and  C_4
REMARK    4  A    between atoms: C_4  and  C_6
REMARK    5  A    between atoms: C_8  and  N_16
REMARK    6  A    between atoms: C_17  and  C_20
REMARK    7  A    between atoms: N_18  and  O_19
REMARK    8  A    between atoms: C_20  and  C_23
REMARK    9  A    between atoms: N_21  and  O_22
REMARK                            x       y       z     vdW  Elec       q    Type
REMARK                         _______ _______ _______ _____ _____    ______ ____
ROOT
ATOM      1  N   UNL     1       3.707  -1.010  -1.967  0.00  0.00    -0.296 N 
ATOM      2  C   UNL     1       2.982   0.168  -1.841  0.00  0.00    +0.191 C 
ATOM      3  N   UNL     1       1.711   0.123  -1.571  0.00  0.00    -0.069 NA
ATOM      4  H   UNL     1       4.624  -0.984  -2.284  0.00  0.00    +0.154 HD
ENDROOT
BRANCH   1   6
ATOM      5  C   UNL     1       1.789  -2.409  -0.994  0.00  0.00    +0.234 C 
ATOM      6  C   UNL     1       3.136  -2.192  -1.647  0.00  0.00    +0.052 C 
ATOM      7  C   UNL     1       3.664  -3.459  -1.851  0.00  0.00    +0.018 A 
ATOM      8  C   UNL     1       4.880  -3.907  -2.416  0.00  0.00    +0.011 A 
ATOM      9  C   UNL     1       5.138  -5.237  -2.489  0.00  0.00    +0.001 A 
ATOM     10  C   UNL     1       4.229  -6.186  -2.018  0.00  0.00    +0.002 A 
ATOM     11  C   UNL     1       3.044  -5.829  -1.464  0.00  0.00    +0.026 A 
ATOM     12  C   UNL     1       2.703  -4.457  -1.352  0.00  0.00    +0.045 A 
ATOM     13  N   UNL     1       1.631  -3.861  -0.863  0.00  0.00    -0.367 N 
ATOM     14  H   UNL     1       0.862  -4.310  -0.478  0.00  0.00    +0.161 HD
BRANCH   5  15
ATOM     15  C   UNL     1       1.761  -1.759   0.365  0.00  0.00    +0.336 C 
ATOM     16  O   UNL     1       2.292  -2.301   1.306  0.00  0.00    -0.248 OA
BRANCH  15  17
ATOM     17  O   UNL     1       1.147  -0.577   0.531  0.00  0.00    -0.463 OA
BRANCH  17  19
ATOM     18  C   UNL     1       0.415   1.319   1.840  0.00  0.00    +0.048 C 
ATOM     19  C   UNL     1       1.159  -0.019   1.847  0.00  0.00    +0.229 C 
ENDBRANCH  17  19
ENDBRANCH  15  17
ENDBRANCH   5  15
ENDBRANCH   1   6
BRANCH   3  20
ATOM     20  O   UNL     1       0.995   1.321  -1.336  0.00  0.00    -0.408 OA
ATOM     21  H   UNL     1       0.079   1.184  -1.057  0.00  0.00    +0.328 HD
ENDBRANCH   3  20
BRANCH   2  22
ATOM     22  C   UNL     1       3.657   1.473  -2.014  0.00  0.00    +0.153 C 
ATOM     23  N   UNL     1       4.905   1.518  -2.383  0.00  0.00    -0.083 NA
BRANCH  22  24
ATOM     24  C   UNL     1       2.912   2.730  -1.767  0.00  0.00    +0.007 A 
ATOM     25  C   UNL     1       2.798   3.234  -0.471  0.00  0.00    +0.010 A 
ATOM     26  C   UNL     1       2.103   4.405  -0.248  0.00  0.00    +0.001 A 
ATOM     27  C   UNL     1       1.520   5.079  -1.306  0.00  0.00    +0.000 A 
ATOM     28  C   UNL     1       1.630   4.585  -2.593  0.00  0.00    +0.001 A 
ATOM     29  C   UNL     1       2.326   3.417  -2.830  0.00  0.00    +0.010 A 
ENDBRANCH  22  24
BRANCH  23  30
ATOM     30  O   UNL     1       5.583   2.760  -2.439  0.00  0.00    -0.409 OA
ATOM     31  H   UNL     1       6.504   2.692  -2.723  0.00  0.00    +0.328 HD
ENDBRANCH  23  30
ENDBRANCH   2  22
TORSDOF 8
