REMARK  Name = ZINC50944274
REMARK  6 active torsions:
REMARK  status: ('A' for Active; 'I' for Inactive)
REMARK    1  A    between atoms: C_1  and  C_2
REMARK    2  A    between atoms: C_3  and  C_20
REMARK    3  A    between atoms: C_7  and  N_8
REMARK    4  A    between atoms: C_9  and  C_11
REMARK    5  A    between atoms: C_11  and  C_12
REMARK    6  A    between atoms: C_12  and  C_13
REMARK                            x       y       z     vdW  Elec       q    Type
REMARK                         _______ _______ _______ _____ _____    ______ ____
ROOT
ATOM      1  N   UNL     1       0.201  -0.009   2.400  0.00  0.00    -0.285 N 
ATOM      2  C   UNL     1       0.433  -0.681   3.545  0.00  0.00    +0.217 C 
ATOM      3  O   UNL     1       0.471  -1.893   3.539  0.00  0.00    -0.275 OA
ATOM      4  H   UNL     1       0.102   0.956   2.415  0.00  0.00    +0.155 HD
ENDROOT
BRANCH   1  11
ATOM      5  C   UNL     1       1.124   1.277   0.038  0.00  0.00    +0.046 C 
ATOM      6  C   UNL     1       0.542  -0.112   0.014  0.00  0.00    -0.017 A 
ATOM      7  C   UNL     1       0.447  -0.810  -1.190  0.00  0.00    +0.041 A 
ATOM      8  C   UNL     1      -0.093  -2.097  -1.205  0.00  0.00    +0.013 A 
ATOM      9  C   UNL     1      -0.532  -2.675  -0.030  0.00  0.00    +0.003 A 
ATOM     10  C   UNL     1      -0.438  -1.983   1.163  0.00  0.00    +0.023 A 
ATOM     11  C   UNL     1       0.103  -0.703   1.188  0.00  0.00    +0.037 A 
BRANCH   7  12
ATOM     12  C   UNL     1       0.917  -0.189  -2.447  0.00  0.00    +0.242 C 
ATOM     13  O   UNL     1       1.493   0.881  -2.417  0.00  0.00    -0.270 OA
ATOM     14  N   UNL     1       0.708  -0.809  -3.625  0.00  0.00    -0.325 N 
ATOM     15  H   UNL     1       0.248  -1.664  -3.648  0.00  0.00    +0.145 HD
ATOM     16  H   UNL     1       1.016  -0.402  -4.449  0.00  0.00    +0.145 HD
ENDBRANCH   7  12
ENDBRANCH   1  11
BRANCH   2  17
ATOM     17  C   UNL     1       0.643   0.074   4.832  0.00  0.00    +0.094 C 
BRANCH  17  18
ATOM     18  C   UNL     1       0.884  -0.919   5.971  0.00  0.00    -0.007 C 
BRANCH  18  19
ATOM     19  C   UNL     1       1.098  -0.153   7.278  0.00  0.00    -0.071 C 
ATOM     20  C   UNL     1       1.214  -1.145   8.438  0.00  0.00    -0.016 C 
ATOM     21  C   UNL     1       1.427  -0.374   9.743  0.00  0.00    -0.003 C 
ATOM     22  C   UNL     1       2.673   0.506   9.607  0.00  0.00    -0.019 C 
ATOM     23  C   UNL     1       2.504   1.438   8.404  0.00  0.00    -0.082 C 
ATOM     24  N   UNL     1       2.330   0.640   7.184  0.00  0.00    +0.381 N 
ATOM     25  H   UNL     1       3.119   0.021   7.073  0.00  0.00    -0.086 HD
ATOM     26  H   UNL     1       2.273   1.255   6.387  0.00  0.00    -0.086 HD
ENDBRANCH  18  19
ENDBRANCH  17  18
ENDBRANCH   2  17
TORSDOF 5
