REMARK  Name = ZINC53344422
REMARK  7 active torsions:
REMARK  status: ('A' for Active; 'I' for Inactive)
REMARK    1  A    between atoms: C_1  and  C_2
REMARK    2  A    between atoms: C_8  and  N_10
REMARK    3  A    between atoms: N_10  and  C_11
REMARK    4  A    between atoms: C_11  and  C_12
REMARK    5  A    between atoms: C_12  and  N_13
REMARK    6  A    between atoms: C_15  and  C_22
REMARK    7  A    between atoms: C_18  and  C_21
REMARK                            x       y       z     vdW  Elec       q    Type
REMARK                         _______ _______ _______ _____ _____    ______ ____
ROOT
ATOM      1  C   UNL     1       2.794  -0.389   2.478  0.00  0.00    -0.101 C 
ENDROOT
BRANCH   1   2
ATOM      2  N   UNL     1       2.120  -0.002   1.231  0.00  0.00    +0.380 N 
ATOM      3  H   UNL     1       2.617  -0.394   0.445  0.00  0.00    -0.086 HD
ATOM      4  H   UNL     1       2.107   1.004   1.154  0.00  0.00    -0.086 HD
BRANCH   2  11
ATOM      5  C   UNL     1      -0.019   1.526   0.010  0.00  0.00    +0.006 C 
ATOM      6  C   UNL     1       0.002  -0.004   0.002  0.00  0.00    -0.028 C 
ATOM      7  C   UNL     1      -1.433  -0.534   0.013  0.00  0.00    +0.002 C 
ATOM      8  C   UNL     1      -1.413  -2.063   0.004  0.00  0.00    +0.000 C 
ATOM      9  C   UNL     1      -0.673  -2.570   1.244  0.00  0.00    -0.002 C 
ATOM     10  C   UNL     1       0.763  -2.041   1.233  0.00  0.00    -0.016 C 
ATOM     11  C   UNL     1       0.742  -0.511   1.242  0.00  0.00    -0.069 C 
ENDBRANCH   2  11
ENDBRANCH   1   2
BRANCH   1  12
ATOM     12  C   UNL     1       4.229   0.141   2.467  0.00  0.00    -0.098 C 
BRANCH  12  13
ATOM     13  N   UNL     1       4.904  -0.246   3.714  0.00  0.00    +0.379 N 
ATOM     14  C   UNL     1       4.246   0.414   4.848  0.00  0.00    -0.076 C 
ATOM     15  C   UNL     1       4.892  -0.048   6.156  0.00  0.00    -0.031 C 
ATOM     16  C   UNL     1       6.379   0.319   6.142  0.00  0.00    +0.003 C 
ATOM     17  C   UNL     1       7.039  -0.314   4.913  0.00  0.00    -0.031 C 
ATOM     18  C   UNL     1       6.313   0.158   3.652  0.00  0.00    -0.076 C 
ATOM     19  C   UNL     1       8.508   0.110   4.848  0.00  0.00    +0.005 C 
ATOM     20  C   UNL     1       4.206   0.642   7.337  0.00  0.00    +0.005 C 
ATOM     21  H   UNL     1       4.846  -1.246   3.830  0.00  0.00    -0.082 HD
ENDBRANCH  12  13
ENDBRANCH   1  12
TORSDOF 4
