REMARK  Name = ZINC59248540
REMARK  6 active torsions:
REMARK  status: ('A' for Active; 'I' for Inactive)
REMARK    1  A    between atoms: C_1  and  C_2
REMARK    2  A    between atoms: C_2  and  C_4
REMARK    3  A    between atoms: C_2  and  O_7
REMARK    4  A    between atoms: O_7  and  C_8
REMARK    5  A    between atoms: C_11  and  C_14
REMARK    6  A    between atoms: N_20  and  C_21
REMARK                            x       y       z     vdW  Elec       q    Type
REMARK                         _______ _______ _______ _____ _____    ______ ____
ROOT
ATOM      1  C   UNL     1       6.126  -1.523  -0.492  0.00  0.00    +0.028 C 
ATOM      2  C   UNL     1       6.894  -1.845  -1.564  0.00  0.00    +0.078 C 
ATOM      3  C   UNL     1       8.350  -2.069  -1.638  0.00  0.00    +0.256 C 
ATOM      4  O   UNL     1       9.060  -1.976  -0.654  0.00  0.00    -0.269 OA
ATOM      5  N   UNL     1       8.850  -2.376  -2.824  0.00  0.00    -0.260 N 
ATOM      6  C   UNL     1       8.030  -2.477  -3.927  0.00  0.00    +0.166 C 
ATOM      7  N   UNL     1       8.359  -2.771  -5.165  0.00  0.00    -0.226 NA
ATOM      8  S   UNL     1       6.412  -2.120  -3.262  0.00  0.00    -0.049 S 
ATOM      9  H   UNL     1       9.803  -2.531  -2.918  0.00  0.00    +0.157 HD
ENDROOT
BRANCH   7  10
ATOM     10  C   UNL     1       9.665  -3.022  -5.485  0.00  0.00    +0.067 A 
ATOM     11  C   UNL     1      10.679  -2.196  -4.995  0.00  0.00    +0.029 A 
ATOM     12  C   UNL     1      11.994  -2.455  -5.321  0.00  0.00    +0.017 A 
ATOM     13  C   UNL     1      12.310  -3.533  -6.131  0.00  0.00    +0.018 A 
ATOM     14  C   UNL     1      11.310  -4.355  -6.620  0.00  0.00    +0.017 A 
ATOM     15  C   UNL     1       9.991  -4.110  -6.298  0.00  0.00    +0.029 A 
ATOM     16 BR   UNL     1      14.115  -3.881  -6.573  0.00  0.00    -0.050 Br
ENDBRANCH   7  10
BRANCH   1  20
ATOM     17  C   UNL     1       1.899  -1.547  -0.828  0.00  0.00    +0.122 A 
ATOM     18  C   UNL     1       2.675  -2.160  -1.805  0.00  0.00    +0.046 A 
ATOM     19  C   UNL     1       4.048  -2.155  -1.701  0.00  0.00    +0.011 A 
ATOM     20  C   UNL     1       4.662  -1.531  -0.608  0.00  0.00    -0.024 A 
ATOM     21  C   UNL     1       3.876  -0.915   0.373  0.00  0.00    +0.011 A 
ATOM     22  C   UNL     1       2.504  -0.922   0.256  0.00  0.00    +0.046 A 
BRANCH  17  23
ATOM     23  O   UNL     1       0.545  -1.555  -0.935  0.00  0.00    -0.478 OA
BRANCH  23  25
ATOM     24  C   UNL     1      -0.155  -3.697  -1.809  0.00  0.00    +0.064 C 
ATOM     25  C   UNL     1      -0.010  -2.199  -2.084  0.00  0.00    +0.282 C 
BRANCH  25  26
ATOM     26  C   UNL     1      -1.365  -1.610  -2.383  0.00  0.00    +0.395 C 
ATOM     27  O   UNL     1      -1.852  -0.787  -1.627  0.00  0.00    -0.242 OA
ATOM     28  O   UNL     1      -1.973  -1.957  -3.381  0.00  0.00    -0.242 OA
ENDBRANCH  25  26
ENDBRANCH  23  25
ENDBRANCH  17  23
ENDBRANCH   1  20
TORSDOF 5
