REMARK  Name = ZINC05502555
REMARK  7 active torsions:
REMARK  status: ('A' for Active; 'I' for Inactive)
REMARK    1  A    between atoms: C_1  and  N_42
REMARK    2  A    between atoms: C_2  and  N_42
REMARK    3  A    between atoms: C_3  and  C_4
REMARK    4  A    between atoms: C_3  and  N_42
REMARK    5  A    between atoms: C_4  and  N_5
REMARK    6  A    between atoms: N_5  and  C_6
REMARK    7  A    between atoms: C_16  and  O_23
REMARK                            x       y       z     vdW  Elec       q    Type
REMARK                         _______ _______ _______ _____ _____    ______ ____
ROOT
ATOM      1  C   UNL     1      -0.208   1.223   2.467  0.00  0.00    +0.040 A 
ATOM      2  C   UNL     1       0.936   0.430   2.598  0.00  0.00    +0.026 A 
ATOM      3  C   UNL     1       1.456   0.083   3.828  0.00  0.00    +0.032 A 
ATOM      4  C   UNL     1       0.827   0.516   5.000  0.00  0.00    +0.090 A 
ATOM      5  C   UNL     1      -0.313   1.298   4.855  0.00  0.00    +0.086 A 
ATOM      6  C   UNL     1      -0.851   1.666   3.629  0.00  0.00    +0.069 A 
ATOM      7  C   UNL     1      -2.062   2.497   3.654  0.00  0.00    +0.199 A 
ATOM      8  O   UNL     1      -2.605   2.871   2.630  0.00  0.00    -0.286 OA
ATOM      9  C   UNL     1      -2.588   2.856   4.994  0.00  0.00    +0.050 A 
ATOM     10  C   UNL     1      -3.738   3.643   5.094  0.00  0.00    +0.059 A 
ATOM     11  C   UNL     1      -4.234   3.981   6.339  0.00  0.00    +0.118 A 
ATOM     12  C   UNL     1      -3.590   3.541   7.491  0.00  0.00    +0.047 A 
ATOM     13  C   UNL     1      -2.455   2.764   7.403  0.00  0.00    +0.030 A 
ATOM     14  C   UNL     1      -1.941   2.413   6.160  0.00  0.00    +0.059 A 
ATOM     15  N   UNL     1      -0.795   1.630   6.080  0.00  0.00    -0.297 N 
ATOM     16  C   UNL     1       0.057   1.047   6.974  0.00  0.00    +0.205 A 
ATOM     17  N   UNL     1       1.004   0.398   6.340  0.00  0.00    -0.235 NA
ENDROOT
BRANCH   1  18
ATOM     18  N   UNL     1      -0.698   1.558   1.213  0.00  0.00    -0.345 N 
ATOM     19  H   UNL     1      -1.495   2.106   1.135  0.00  0.00    +0.146 HD
BRANCH  18  20
ATOM     20  C   UNL     1      -0.013   1.086   0.008  0.00  0.00    +0.083 C 
BRANCH  20  21
ATOM     21  C   UNL     1      -0.753   1.593  -1.232  0.00  0.00    -0.061 C 
BRANCH  21  24
ATOM     22  C   UNL     1      -0.150  -0.343  -2.555  0.00  0.00    -0.097 C 
ATOM     23  C   UNL     1      -0.600   1.774  -3.641  0.00  0.00    -0.097 C 
ATOM     24  N   UNL     1      -0.037   1.126  -2.438  0.00  0.00    +0.377 N 
ATOM     25  H   UNL     1       0.955   1.379  -2.356  0.00  0.00    -0.083 HD
ENDBRANCH  21  24
ENDBRANCH  20  21
ENDBRANCH  18  20
ENDBRANCH   1  18
BRANCH  11  26
ATOM     26  O   UNL     1      -5.353   4.747   6.438  0.00  0.00    -0.507 OA
ATOM     27  H   UNL     1      -6.175   4.239   6.466  0.00  0.00    +0.292 HD
ENDBRANCH  11  26
TORSDOF 5
