REMARK  Name = ZINC32057120
REMARK  8 active torsions:
REMARK  status: ('A' for Active; 'I' for Inactive)
REMARK    1  A    between atoms: C_1  and  N_2
REMARK    2  A    between atoms: C_5  and  N_8
REMARK    3  A    between atoms: N_8  and  C_9
REMARK    4  A    between atoms: N_8  and  C_10
REMARK    5  A    between atoms: C_10  and  C_12
REMARK    6  A    between atoms: C_10  and  C_14
REMARK    7  A    between atoms: C_12  and  N_13
REMARK    8  A    between atoms: C_18  and  N_20
REMARK                            x       y       z     vdW  Elec       q    Type
REMARK                         _______ _______ _______ _____ _____    ______ ____
ROOT
ATOM      1  C   UNL     1       0.339   5.443   0.233  0.00  0.00    +0.069 C 
ENDROOT
BRANCH   1   2
ATOM      2  C   UNL     1       1.671   6.067  -0.095  0.00  0.00    -0.030 A 
ATOM      3  C   UNL     1       1.899   6.587  -1.356  0.00  0.00    +0.005 A 
ATOM      4  C   UNL     1       3.119   7.164  -1.655  0.00  0.00    +0.003 A 
ATOM      5  C   UNL     1       4.115   7.212  -0.698  0.00  0.00    +0.033 A 
ATOM      6  C   UNL     1       3.887   6.693   0.563  0.00  0.00    +0.127 A 
ATOM      7  C   UNL     1       2.665   6.120   0.864  0.00  0.00    +0.037 A 
BRANCH   6   8
ATOM      8  N   UNL     1       4.951   6.750   1.590  0.00  0.00    +0.056 N 
ATOM      9  O   UNL     1       6.027   7.254   1.325  0.00  0.00    -0.126 OA
ATOM     10  O   UNL     1       4.750   6.292   2.701  0.00  0.00    -0.126 OA
ENDBRANCH   6   8
ENDBRANCH   1   2
BRANCH   1  11
ATOM     11  N   UNL     1      -0.740   6.360  -0.156  0.00  0.00    -0.297 NA
ATOM     12  C   UNL     1      -1.996   6.014   0.524  0.00  0.00    +0.105 C 
BRANCH  11  17
ATOM     13  C   UNL     1      -0.800  11.727   1.634  0.00  0.00    -0.096 C 
ATOM     14  N   UNL     1      -1.008  10.316   1.279  0.00  0.00    +0.378 N 
ATOM     15  C   UNL     1      -1.048  10.141  -0.178  0.00  0.00    -0.078 C 
ATOM     16  C   UNL     1      -1.410   8.691  -0.508  0.00  0.00    +0.000 C 
ATOM     17  C   UNL     1      -0.366   7.756   0.108  0.00  0.00    +0.053 C 
ATOM     18  C   UNL     1      -0.308   7.993   1.620  0.00  0.00    +0.000 C 
ATOM     19  C   UNL     1       0.020   9.463   1.889  0.00  0.00    -0.078 C 
ATOM     20  H   UNL     1      -1.983  10.005   1.682  0.00  0.00    -0.082 HD
ENDBRANCH  11  17
ENDBRANCH   1  11
BRANCH   1  21
ATOM     21  C   UNL     1       0.191   4.127  -0.532  0.00  0.00    -0.063 C 
BRANCH  21  22
ATOM     22  N   UNL     1      -1.162   3.591  -0.327  0.00  0.00    +0.379 N 
ATOM     23  H   UNL     1      -1.269   2.645  -0.877  0.00  0.00    -0.090 HD
ATOM     24  H   UNL     1      -1.903   4.316  -0.697  0.00  0.00    -0.090 HD
ATOM     25  H   UNL     1      -1.327   3.413   0.746  0.00  0.00    -0.090 HD
ENDBRANCH  21  22
ENDBRANCH   1  21
TORSDOF 6
