REMARK  Name = ZINC34116739
REMARK  2 active torsions:
REMARK  status: ('A' for Active; 'I' for Inactive)
REMARK    1  A    between atoms: C_1  and  C_2
REMARK    2  A    between atoms: C_14  and  O_17
REMARK                            x       y       z     vdW  Elec       q    Type
REMARK                         _______ _______ _______ _____ _____    ______ ____
ROOT
ATOM      1  C   UNL     1      -0.018   1.503   0.010  0.00  0.00    +0.044 C 
ATOM      2  C   UNL     1       0.002  -0.004   0.002  0.00  0.00    -0.038 A 
ATOM      3  C   UNL     1       0.006  -0.679  -1.166  0.00  0.00    +0.052 A 
ATOM      4  C   UNL     1       0.026  -2.143  -1.162  0.00  0.00    +0.162 A 
ATOM      5  N   UNL     1       0.033  -3.012  -2.146  0.00  0.00    -0.151 NA
ATOM      6  N   UNL     1       0.053  -4.297  -1.588  0.00  0.00    -0.226 N 
ATOM      7  H   UNL     1       0.062  -5.134  -2.078  0.00  0.00    +0.194 HD
ATOM      8  C   UNL     1       0.057  -4.158  -0.247  0.00  0.00    +0.349 A 
ATOM      9  O   UNL     1       0.074  -5.064   0.568  0.00  0.00    -0.245 OA
ATOM     10  N   UNL     1       0.041  -2.838   0.032  0.00  0.00    -0.244 N 
ATOM     11  C   UNL     1       0.036  -2.155   1.245  0.00  0.00    +0.061 A 
ATOM     12  C   UNL     1       0.024  -0.752   1.265  0.00  0.00    +0.005 A 
ATOM     13  C   UNL     1       0.027  -0.074   2.488  0.00  0.00    +0.055 A 
ATOM     14  C   UNL     1       0.048  -0.791   3.669  0.00  0.00    +0.118 A 
ATOM     15  C   UNL     1       0.066  -2.182   3.643  0.00  0.00    +0.047 A 
ATOM     16  C   UNL     1       0.051  -2.860   2.442  0.00  0.00    +0.030 A 
ENDROOT
BRANCH  14  17
ATOM     17  O   UNL     1       0.050  -0.136   4.860  0.00  0.00    -0.507 OA
ATOM     18  H   UNL     1      -0.832   0.043   5.213  0.00  0.00    +0.292 HD
ENDBRANCH  14  17
TORSDOF 1
