REMARK  Name = ZINC65413985
REMARK  13 active torsions:
REMARK  status: ('A' for Active; 'I' for Inactive)
REMARK    1  A    between atoms: C_1  and  C_2
REMARK    2  A    between atoms: C_2  and  N_3
REMARK    3  A    between atoms: C_4  and  C_6
REMARK    4  A    between atoms: C_9  and  N_13
REMARK    5  A    between atoms: C_10  and  C_12
REMARK    6  A    between atoms: N_16  and  C_17
REMARK    7  A    between atoms: C_17  and  C_18
REMARK    8  A    between atoms: C_18  and  C_19
REMARK    9  A    between atoms: C_18  and  N_24
REMARK   10  A    between atoms: N_24  and  C_25
REMARK   11  A    between atoms: N_24  and  C_27
REMARK   12  A    between atoms: C_25  and  C_26
REMARK   13  A    between atoms: C_27  and  C_28
REMARK                            x       y       z     vdW  Elec       q    Type
REMARK                         _______ _______ _______ _____ _____    ______ ____
ROOT
ATOM      1  N   UNL     1       4.235  -2.979   5.536  0.00  0.00    -0.269 N 
ATOM      2  C   UNL     1       4.721  -2.290   6.587  0.00  0.00    +0.304 C 
ATOM      3  O   UNL     1       4.729  -1.075   6.566  0.00  0.00    -0.253 OA
ATOM      4  N   UNL     1       5.199  -2.949   7.662  0.00  0.00    -0.300 N 
ATOM      5  H   UNL     1       4.158  -3.945   5.582  0.00  0.00    +0.156 HD
ATOM      6  H   UNL     1       5.192  -3.919   7.678  0.00  0.00    +0.150 HD
ENDROOT
BRANCH   1  10
ATOM      7  C   UNL     1       3.060  -0.961   2.087  0.00  0.00    +0.037 A 
ATOM      8  C   UNL     1       2.882  -0.368   3.340  0.00  0.00    +0.015 A 
ATOM      9  C   UNL     1       3.272  -1.038   4.478  0.00  0.00    +0.024 A 
ATOM     10  C   UNL     1       3.842  -2.303   4.381  0.00  0.00    +0.038 A 
ATOM     11  C   UNL     1       4.021  -2.896   3.135  0.00  0.00    -0.028 A 
ATOM     12  C   UNL     1       3.628  -2.234   1.994  0.00  0.00    +0.018 A 
ATOM     13  C   UNL     1       4.639  -4.266   3.036  0.00  0.00    +0.045 C 
BRANCH   7  15
ATOM     14  N   UNL     1       2.096   0.983   0.956  0.00  0.00    -0.312 N 
ATOM     15  C   UNL     1       2.644  -0.245   0.865  0.00  0.00    +0.244 C 
ATOM     16  O   UNL     1       2.794  -0.764  -0.224  0.00  0.00    -0.270 OA
ATOM     17  H   UNL     1       1.976   1.397   1.825  0.00  0.00    +0.149 HD
BRANCH  14  19
ATOM     18  C   UNL     1       1.097   3.054   0.124  0.00  0.00    +0.024 C 
ATOM     19  C   UNL     1       1.683   1.692  -0.257  0.00  0.00    +0.101 C 
ENDBRANCH  14  19
ENDBRANCH   7  15
ENDBRANCH   1  10
BRANCH   4  20
ATOM     20  C   UNL     1       5.727  -2.200   8.805  0.00  0.00    +0.098 C 
BRANCH  20  21
ATOM     21  C   UNL     1       6.320  -3.176   9.824  0.00  0.00    +0.016 C 
BRANCH  21  22
ATOM     22  C   UNL     1       6.928  -2.402  10.965  0.00  0.00    +0.093 A 
ATOM     23  C   UNL     1       6.434  -2.322  12.213  0.00  0.00    +0.043 A 
ATOM     24  C   UNL     1       7.316  -1.500  12.951  0.00  0.00    +0.041 A 
ATOM     25  C   UNL     1       8.296  -1.126  12.110  0.00  0.00    +0.195 A 
ATOM     26  O   UNL     1       8.059  -1.680  10.909  0.00  0.00    -0.469 OA
ENDBRANCH  21  22
BRANCH  21  27
ATOM     27  N   UNL     1       7.357  -3.990   9.176  0.00  0.00    +0.387 N 
ATOM     28  H   UNL     1       6.944  -4.528   8.428  0.00  0.00    -0.081 HD
BRANCH  27  29
ATOM     29  C   UNL     1       8.399  -3.112   8.630  0.00  0.00    -0.081 C 
ATOM     30  C   UNL     1       9.400  -3.946   7.827  0.00  0.00    -0.017 C 
ENDBRANCH  27  29
BRANCH  27  31
ATOM     31  C   UNL     1       7.951  -4.901  10.164  0.00  0.00    -0.081 C 
ATOM     32  C   UNL     1       6.894  -5.901  10.636  0.00  0.00    -0.017 C 
ENDBRANCH  27  31
ENDBRANCH  21  27
ENDBRANCH  20  21
ENDBRANCH   4  20
TORSDOF 9
