REMARK  Name = ZINC19683958
REMARK  7 active torsions:
REMARK  status: ('A' for Active; 'I' for Inactive)
REMARK    1  A    between atoms: C_1  and  C_2
REMARK    2  A    between atoms: C_2  and  C_3
REMARK    3  A    between atoms: C_2  and  C_4
REMARK    4  A    between atoms: C_2  and  C_5
REMARK    5  A    between atoms: C_8  and  C_11
REMARK    6  A    between atoms: C_11  and  C_13
REMARK    7  A    between atoms: C_11  and  N_18
REMARK                            x       y       z     vdW  Elec       q    Type
REMARK                         _______ _______ _______ _____ _____    ______ ____
ROOT
ATOM      1  C   UNL     1       2.918  -0.432   2.348  0.00  0.00    +0.149 C 
ENDROOT
BRANCH   1   2
ATOM      2  C   UNL     1       2.282   0.125   3.596  0.00  0.00    +0.090 C 
ATOM      3  N   UNL     1       1.155   0.737   3.586  0.00  0.00    -0.373 N 
ATOM      4  C   UNL     1       0.797   1.162   4.946  0.00  0.00    +0.132 C 
ATOM      5  C   UNL     1       1.974   0.666   5.810  0.00  0.00    +0.123 C 
ATOM      6  N   UNL     1       2.856   0.013   4.827  0.00  0.00    -0.331 N 
ATOM      7  H   UNL     1       3.797  -0.452   5.156  0.00  0.00    +0.147 HD
ATOM      8  H   UNL     1       0.612   0.873   2.639  0.00  0.00    +0.161 HD
ENDBRANCH   1   2
BRANCH   1  12
ATOM      9  C   UNL     1       6.859   1.160   1.925  0.00  0.00    -0.042 A 
ATOM     10  C   UNL     1       6.683  -0.155   2.310  0.00  0.00    +0.004 A 
ATOM     11  C   UNL     1       5.407  -0.671   2.447  0.00  0.00    +0.006 A 
ATOM     12  C   UNL     1       4.308   0.130   2.199  0.00  0.00    -0.023 A 
ATOM     13  C   UNL     1       4.485   1.444   1.808  0.00  0.00    +0.006 A 
ATOM     14  C   UNL     1       5.760   1.961   1.676  0.00  0.00    +0.004 A 
BRANCH   9  16
ATOM     15  C   UNL     1       9.012   0.922   0.718  0.00  0.00    +0.015 C 
ATOM     16  C   UNL     1       8.250   1.722   1.776  0.00  0.00    -0.013 C 
ATOM     17  C   UNL     1       8.164   3.187   1.343  0.00  0.00    +0.015 C 
ATOM     18  C   UNL     1       8.984   1.627   3.114  0.00  0.00    +0.015 C 
ENDBRANCH   9  16
ENDBRANCH   1  12
BRANCH   1  19
ATOM     19  N   UNL     1       2.111  -0.058   1.179  0.00  0.00    -0.285 NA
ATOM     20  C   UNL     1       2.824  -0.358  -0.071  0.00  0.00    +0.113 C 
ATOM     21  C   UNL     1       1.974   0.101  -1.260  0.00  0.00    +0.175 C 
ATOM     22  O   UNL     1       0.696  -0.537  -1.200  0.00  0.00    -0.377 OA
ATOM     23  C   UNL     1      -0.027  -0.266   0.005  0.00  0.00    +0.175 C 
ATOM     24  C   UNL     1       0.802  -0.728   1.206  0.00  0.00    +0.113 C 
ENDBRANCH   1  19
TORSDOF 4
