REMARK  Name = ZINC62082147
REMARK  7 active torsions:
REMARK  status: ('A' for Active; 'I' for Inactive)
REMARK    1  A    between atoms: C_1  and  S_2
REMARK    2  A    between atoms: S_2  and  N_5
REMARK    3  A    between atoms: N_8  and  C_11
REMARK    4  A    between atoms: C_11  and  C_13
REMARK    5  A    between atoms: C_11  and  C_16
REMARK    6  A    between atoms: C_13  and  C_14
REMARK    7  A    between atoms: C_14  and  N_15
REMARK                            x       y       z     vdW  Elec       q    Type
REMARK                         _______ _______ _______ _____ _____    ______ ____
ROOT
ATOM      1  C   UNL     1       2.343  -3.219  -4.102  0.00  0.00    +0.160 C 
ENDROOT
BRANCH   1   5
ATOM      2  N   UNL     1       1.354  -0.146  -1.420  0.00  0.00    -0.179 NA
ATOM      3  C   UNL     1       0.456  -0.346  -2.568  0.00  0.00    +0.124 C 
ATOM      4  C   UNL     1       0.680  -1.757  -3.121  0.00  0.00    +0.102 C 
ATOM      5  N   UNL     1       2.108  -1.945  -3.410  0.00  0.00    -0.289 NA
ATOM      6  C   UNL     1       2.916  -1.853  -2.187  0.00  0.00    +0.102 C 
ATOM      7  C   UNL     1       2.784  -0.440  -1.597  0.00  0.00    +0.124 C 
BRANCH   2   9
ATOM      8  C   UNL     1       0.884   2.210  -0.077  0.00  0.00    +0.215 C 
ATOM      9  S   UNL     1       0.771   0.403   0.030  0.00  0.00    +0.029 S 
ATOM     10  O   UNL     1       1.688  -0.089   0.998  0.00  0.00    -0.158 OA
ATOM     11  O   UNL     1      -0.591  -0.002   0.050  0.00  0.00    -0.158 OA
ENDBRANCH   2   9
ENDBRANCH   1   5
BRANCH   1  12
ATOM     12  C   UNL     1       1.602  -4.340  -3.370  0.00  0.00    +0.405 C 
ATOM     13  F   UNL     1       0.222  -4.133  -3.474  0.00  0.00    -0.169 F 
ATOM     14  F   UNL     1       1.933  -5.572  -3.946  0.00  0.00    -0.169 F 
ATOM     15  F   UNL     1       1.973  -4.341  -2.021  0.00  0.00    -0.169 F 
ENDBRANCH   1  12
BRANCH   1  16
ATOM     16  C   UNL     1       1.829  -3.122  -5.540  0.00  0.00    +0.008 C 
BRANCH  16  17
ATOM     17  C   UNL     1       2.606  -2.037  -6.287  0.00  0.00    -0.085 C 
BRANCH  17  18
ATOM     18  N   UNL     1       2.197  -2.024  -7.697  0.00  0.00    +0.378 N 
ATOM     19  H   UNL     1       2.391  -2.923  -8.112  0.00  0.00    -0.090 HD
ATOM     20  H   UNL     1       1.208  -1.832  -7.759  0.00  0.00    -0.090 HD
ATOM     21  H   UNL     1       2.709  -1.308  -8.190  0.00  0.00    -0.090 HD
ENDBRANCH  17  18
ENDBRANCH  16  17
ENDBRANCH   1  16
TORSDOF 6
