REMARK  Name = ZINC00646897
REMARK  7 active torsions:
REMARK  status: ('A' for Active; 'I' for Inactive)
REMARK    1  A    between atoms: C_1  and  C_2
REMARK    2  A    between atoms: C_9  and  N_33
REMARK    3  A    between atoms: C_10  and  C_31
REMARK    4  A    between atoms: C_11  and  C_13
REMARK    5  A    between atoms: C_18  and  O_19
REMARK    6  A    between atoms: O_19  and  C_20
REMARK    7  A    between atoms: C_20  and  C_21
REMARK                            x       y       z     vdW  Elec       q    Type
REMARK                         _______ _______ _______ _____ _____    ______ ____
ROOT
ATOM      1  C   UNL     1      -0.057   3.844   0.022  0.00  0.00    +0.007 A 
ATOM      2  C   UNL     1      -1.242   3.132   0.030  0.00  0.00    +0.008 A 
ATOM      3  C   UNL     1      -1.220   1.750   0.017  0.00  0.00    +0.001 A 
ATOM      4  C   UNL     1      -0.013   1.076   0.008  0.00  0.00    +0.004 A 
ATOM      5  C   UNL     1       1.174   1.782   0.000  0.00  0.00    +0.046 A 
ATOM      6  C   UNL     1       1.155   3.169   0.008  0.00  0.00    +0.125 A 
ENDROOT
BRANCH   1  17
ATOM      7  C   UNL     1       0.874   5.337  -3.052  0.00  0.00    +0.068 C 
ATOM      8  C   UNL     1      -0.434   5.857  -2.512  0.00  0.00    +0.068 A 
ATOM      9  C   UNL     1      -0.824   5.853  -1.181  0.00  0.00    +0.049 A 
ATOM     10  C   UNL     1      -2.071   6.410  -1.103  0.00  0.00    +0.222 A 
ATOM     11  N   UNL     1      -2.443   6.747  -2.348  0.00  0.00    -0.246 N 
ATOM     12  H   UNL     1      -3.308   7.176  -2.609  0.00  0.00    +0.192 HD
ATOM     13  N   UNL     1      -1.401   6.392  -3.219  0.00  0.00    -0.176 NA
ATOM     14  O   UNL     1      -2.737   6.555   0.070  0.00  0.00    -0.423 OA
ATOM     15  C   UNL     1      -2.036   6.389   1.210  0.00  0.00    +0.200 C 
ATOM     16  C   UNL     1      -0.802   5.841   1.262  0.00  0.00    +0.098 C 
ATOM     17  C   UNL     1      -0.082   5.350   0.031  0.00  0.00    +0.105 C 
BRANCH  15  18
ATOM     18  N   UNL     1      -2.611   6.801   2.387  0.00  0.00    -0.328 N 
ATOM     19  H   UNL     1      -2.131   6.695   3.224  0.00  0.00    +0.145 HD
ATOM     20  H   UNL     1      -3.495   7.198   2.382  0.00  0.00    +0.145 HD
ENDBRANCH  15  18
BRANCH  16  21
ATOM     21  C   UNL     1      -0.154   5.721   2.533  0.00  0.00    +0.101 C 
ATOM     22  N   UNL     1       0.360   5.625   3.542  0.00  0.00    -0.191 NA
ENDBRANCH  16  21
ENDBRANCH   1  17
BRANCH   6  23
ATOM     23  O   UNL     1       2.321   3.867   0.001  0.00  0.00    -0.487 OA
BRANCH  23  24
ATOM     24  C   UNL     1       3.531   3.107  -0.014  0.00  0.00    +0.265 C 
BRANCH  24  25
ATOM     25  C   UNL     1       4.713   4.042  -0.020  0.00  0.00    -0.003 A 
ATOM     26  C   UNL     1       4.518   5.390  -0.011  0.00  0.00    +0.007 A 
ATOM     27  C   UNL     1       5.598   6.270  -0.016  0.00  0.00    +0.001 A 
ATOM     28  C   UNL     1       6.878   5.809  -0.029  0.00  0.00    +0.008 A 
ATOM     29  C   UNL     1       7.119   4.425  -0.039  0.00  0.00    -0.018 A 
ATOM     30  C   UNL     1       6.020   3.529  -0.028  0.00  0.00    -0.011 A 
ATOM     31  C   UNL     1       6.261   2.144  -0.032  0.00  0.00    +0.009 A 
ATOM     32  C   UNL     1       7.541   1.683  -0.039  0.00  0.00    +0.001 A 
ATOM     33  C   UNL     1       8.621   2.564  -0.045  0.00  0.00    +0.001 A 
ATOM     34  C   UNL     1       8.427   3.911  -0.052  0.00  0.00    +0.008 A 
ENDBRANCH  24  25
ENDBRANCH  23  24
ENDBRANCH   6  23
TORSDOF 6
