REMARK  Name = ZINC52860234
REMARK  4 active torsions:
REMARK  status: ('A' for Active; 'I' for Inactive)
REMARK    1  A    between atoms: C_1  and  C_2
REMARK    2  A    between atoms: C_7  and  C_8
REMARK    3  A    between atoms: N_9  and  C_12
REMARK    4  A    between atoms: C_17  and  C_18
REMARK                            x       y       z     vdW  Elec       q    Type
REMARK                         _______ _______ _______ _____ _____    ______ ____
ROOT
ATOM      1  C   UNL     1       0.036  -5.235   0.524  0.00  0.00    +0.058 A 
ATOM      2  C   UNL     1       1.092  -6.135   0.507  0.00  0.00    +0.028 A 
ATOM      3  C   UNL     1       1.153  -7.149   1.442  0.00  0.00    +0.022 A 
ATOM      4  C   UNL     1       0.162  -7.276   2.403  0.00  0.00    +0.042 A 
ATOM      5  C   UNL     1      -0.895  -6.391   2.434  0.00  0.00    +0.033 A 
ATOM      6  C   UNL     1      -0.965  -5.357   1.498  0.00  0.00    +0.037 A 
ATOM      7 CL   UNL     1       0.252  -8.556   3.572  0.00  0.00    -0.084 Cl
ENDROOT
BRANCH   1  16
ATOM      8  C   UNL     1       0.303   1.413  -0.411  0.00  0.00    +0.044 C 
ATOM      9  C   UNL     1       0.225  -0.090  -0.335  0.00  0.00    -0.045 A 
ATOM     10  C   UNL     1       0.034  -0.823  -1.484  0.00  0.00    +0.033 A 
ATOM     11  C   UNL     1      -0.038  -2.216  -1.415  0.00  0.00    +0.090 A 
ATOM     12  C   UNL     1       0.085  -2.853  -0.168  0.00  0.00    +0.074 A 
ATOM     13  C   UNL     1       0.277  -2.099   0.980  0.00  0.00    +0.032 A 
ATOM     14  C   UNL     1       0.351  -0.724   0.892  0.00  0.00    -0.045 A 
ATOM     15  C   UNL     1       0.566   0.094   2.139  0.00  0.00    +0.044 C 
ATOM     16  N   UNL     1      -0.027  -4.209  -0.420  0.00  0.00    -0.298 N 
ATOM     17  C   UNL     1      -0.208  -4.356  -1.764  0.00  0.00    +0.205 A 
ATOM     18  N   UNL     1      -0.215  -3.191  -2.344  0.00  0.00    -0.235 NA
ENDBRANCH   1  16
BRANCH   6  19
ATOM     19  C   UNL     1      -2.091  -4.402   1.529  0.00  0.00    +0.096 C 
ATOM     20  N   UNL     1      -2.850  -4.230   0.447  0.00  0.00    -0.387 N 
ATOM     21  N   UNL     1      -2.349  -3.712   2.639  0.00  0.00    -0.344 N 
ATOM     22  H   UNL     1      -2.710  -4.785  -0.337  0.00  0.00    +0.157 HD
ATOM     23  H   UNL     1      -1.797  -3.837   3.427  0.00  0.00    +0.144 HD
ATOM     24  H   UNL     1      -3.088  -3.085   2.660  0.00  0.00    +0.144 HD
ATOM     25  H   UNL     1      -3.542  -3.551   0.443  0.00  0.00    +0.157 HD
ENDBRANCH   6  19
TORSDOF 2
