REMARK  Name = ZINC55131450
REMARK  4 active torsions:
REMARK  status: ('A' for Active; 'I' for Inactive)
REMARK    1  A    between atoms: C_1  and  C_2
REMARK    2  A    between atoms: C_7  and  C_12
REMARK    3  A    between atoms: C_9  and  N_11
REMARK    4  A    between atoms: N_14  and  C_15
REMARK                            x       y       z     vdW  Elec       q    Type
REMARK                         _______ _______ _______ _____ _____    ______ ____
ROOT
ATOM      1  C   UNL     1      -0.651  -2.562   1.244  0.00  0.00    +0.215 C 
ATOM      2  O   UNL     1      -1.583  -1.787   1.257  0.00  0.00    -0.276 OA
ATOM      3  N   UNL     1      -0.879  -3.891   1.239  0.00  0.00    -0.304 N 
ATOM      4  H   UNL     1      -0.134  -4.511   1.228  0.00  0.00    +0.149 HD
ENDROOT
BRANCH   3   5
ATOM      5  C   UNL     1      -2.254  -4.398   1.249  0.00  0.00    +0.159 C 
ATOM      6  C   UNL     1      -2.273  -5.803   1.856  0.00  0.00    +0.033 C 
ATOM      7  C   UNL     1      -3.655  -6.419   1.608  0.00  0.00    +0.021 C 
ATOM      8  C   UNL     1      -3.821  -6.662   0.107  0.00  0.00    +0.104 C 
ATOM      9  N   UNL     1      -3.498  -5.454  -0.643  0.00  0.00    -0.314 N 
ATOM     10  C   UNL     1      -2.779  -4.443  -0.157  0.00  0.00    +0.233 C 
ATOM     11  O   UNL     1      -2.539  -3.507  -0.890  0.00  0.00    -0.274 OA
ATOM     12  H   UNL     1      -3.825  -5.384  -1.554  0.00  0.00    +0.149 HD
ENDBRANCH   3   5
BRANCH   1  18
ATOM     13  C   UNL     1      -0.019   1.526   0.010  0.00  0.00    +0.006 C 
ATOM     14  C   UNL     1       0.002  -0.004   0.002  0.00  0.00    -0.028 C 
ATOM     15  C   UNL     1       0.718  -0.497  -1.257  0.00  0.00    +0.002 C 
ATOM     16  C   UNL     1       0.739  -2.027  -1.265  0.00  0.00    +0.001 C 
ATOM     17  C   UNL     1       1.479  -2.534  -0.026  0.00  0.00    +0.011 C 
ATOM     18  C   UNL     1       0.763  -2.041   1.233  0.00  0.00    +0.061 C 
ATOM     19  C   UNL     1       0.742  -0.511   1.242  0.00  0.00    -0.060 C 
BRANCH  19  20
ATOM     20  N   UNL     1       0.054  -0.037   2.450  0.00  0.00    +0.381 N 
ATOM     21  H   UNL     1      -0.892  -0.386   2.457  0.00  0.00    -0.090 HD
ATOM     22  H   UNL     1       0.542  -0.371   3.268  0.00  0.00    -0.090 HD
ATOM     23  H   UNL     1       0.041   0.972   2.456  0.00  0.00    -0.090 HD
ENDBRANCH  19  20
ENDBRANCH   1  18
TORSDOF 3
