REMARK  Name = ZINC61891227
REMARK  7 active torsions:
REMARK  status: ('A' for Active; 'I' for Inactive)
REMARK    1  A    between atoms: C_1  and  C_2
REMARK    2  A    between atoms: C_2  and  C_3
REMARK    3  A    between atoms: C_11  and  C_12
REMARK    4  A    between atoms: C_12  and  C_14
REMARK    5  A    between atoms: C_12  and  N_15
REMARK    6  A    between atoms: N_15  and  C_16
REMARK    7  A    between atoms: C_21  and  C_23
REMARK                            x       y       z     vdW  Elec       q    Type
REMARK                         _______ _______ _______ _____ _____    ______ ____
ROOT
ATOM      1  C   UNL     1      -1.750  -0.628  -2.488  0.00  0.00    -0.007 C 
ATOM      2  C   UNL     1      -2.421   0.615  -3.076  0.00  0.00    -0.006 C 
ENDROOT
BRANCH   1  11
ATOM      3  C   UNL     1      -1.412  -0.526   0.013  0.00  0.00    -0.001 A 
ATOM      4  C   UNL     1      -2.230  -0.831   1.193  0.00  0.00    +0.024 A 
ATOM      5  C   UNL     1      -2.021  -0.759   2.569  0.00  0.00    +0.012 A 
ATOM      6  C   UNL     1      -3.019  -1.130   3.427  0.00  0.00    +0.001 A 
ATOM      7  C   UNL     1      -4.237  -1.578   2.935  0.00  0.00    +0.004 A 
ATOM      8  C   UNL     1      -4.462  -1.656   1.578  0.00  0.00    +0.047 A 
ATOM      9  C   UNL     1      -3.461  -1.284   0.689  0.00  0.00    +0.135 A 
ATOM     10  O   UNL     1      -3.380  -1.250  -0.656  0.00  0.00    -0.461 OA
ATOM     11  C   UNL     1      -2.177  -0.798  -1.053  0.00  0.00    +0.095 A 
BRANCH   3  13
ATOM     12  C   UNL     1      -0.019   1.526   0.010  0.00  0.00    +0.009 C 
ATOM     13  C   UNL     1       0.002  -0.004   0.002  0.00  0.00    +0.036 C 
ENDBRANCH   3  13
ENDBRANCH   1  11
BRANCH   1  14
ATOM     14  N   UNL     1      -2.148  -1.812  -3.261  0.00  0.00    +0.388 N 
ATOM     15  H   UNL     1      -1.772  -2.641  -2.825  0.00  0.00    -0.084 HD
ATOM     16  H   UNL     1      -3.155  -1.873  -3.288  0.00  0.00    -0.084 HD
BRANCH  14  17
ATOM     17  C   UNL     1      -1.628  -1.700  -4.630  0.00  0.00    -0.054 C 
ATOM     18  C   UNL     1      -0.083  -1.812  -4.634  0.00  0.00    -0.014 C 
ATOM     19  C   UNL     1       0.222  -2.281  -6.079  0.00  0.00    -0.000 C 
ATOM     20  C   UNL     1      -0.919  -3.266  -6.406  0.00  0.00    +0.016 C 
ATOM     21  C   UNL     1      -2.099  -2.894  -5.486  0.00  0.00    +0.078 C 
BRANCH  21  22
ATOM     22  C   UNL     1      -3.268  -2.507  -6.292  0.00  0.00    +0.064 C 
ATOM     23  N   UNL     1      -4.171  -2.208  -6.914  0.00  0.00    -0.196 NA
ENDBRANCH  21  22
ENDBRANCH  14  17
ENDBRANCH   1  14
TORSDOF 5
