REMARK  Name = ZINC01868874
REMARK  16 active torsions:
REMARK  status: ('A' for Active; 'I' for Inactive)
REMARK    1  A    between atoms: C_1  and  O_2
REMARK    2  A    between atoms: O_2  and  C_3
REMARK    3  A    between atoms: C_3  and  C_5
REMARK    4  A    between atoms: C_5  and  C_6
REMARK    5  A    between atoms: C_7  and  C_37
REMARK    6  A    between atoms: N_15  and  C_18
REMARK    7  A    between atoms: C_18  and  C_19
REMARK    8  A    between atoms: C_19  and  O_21
REMARK    9  A    between atoms: O_21  and  C_22
REMARK   10  A    between atoms: C_22  and  C_23
REMARK   11  A    between atoms: C_29  and  C_33
REMARK   12  A    between atoms: C_30  and  N_32
REMARK   13  A    between atoms: C_33  and  O_35
REMARK   14  A    between atoms: O_35  and  C_36
REMARK   15  A    between atoms: C_37  and  O_39
REMARK   16  A    between atoms: O_39  and  C_40
REMARK                            x       y       z     vdW  Elec       q    Type
REMARK                         _______ _______ _______ _____ _____    ______ ____
ROOT
ATOM      1  C   UNL     1       1.655  -2.343  -2.272  0.00  0.00    +0.129 C 
ATOM      2  C   UNL     1       2.947  -2.404  -2.623  0.00  0.00    +0.099 C 
ATOM      3  C   UNL     1       3.350  -2.759  -4.025  0.00  0.00    +0.145 C 
ATOM      4  C   UNL     1       3.929  -4.150  -4.073  0.00  0.00    -0.002 A 
ATOM      5  C   UNL     1       3.418  -5.393  -3.774  0.00  0.00    +0.007 A 
ATOM      6  C   UNL     1       4.208  -6.519  -3.920  0.00  0.00    +0.000 A 
ATOM      7  C   UNL     1       5.512  -6.392  -4.366  0.00  0.00    +0.002 A 
ATOM      8  C   UNL     1       6.027  -5.149  -4.665  0.00  0.00    +0.024 A 
ATOM      9  C   UNL     1       5.238  -4.010  -4.521  0.00  0.00    +0.042 A 
ATOM     10  N   UNL     1       5.526  -2.664  -4.755  0.00  0.00    -0.259 N 
ATOM     11  C   UNL     1       4.477  -1.866  -4.489  0.00  0.00    +0.240 C 
ATOM     12  O   UNL     1       4.442  -0.659  -4.601  0.00  0.00    -0.274 OA
ATOM     13  C   UNL     1       2.178  -2.645  -4.957  0.00  0.00    +0.117 C 
ATOM     14  C   UNL     1       0.911  -2.569  -4.468  0.00  0.00    +0.195 C 
ATOM     15  O   UNL     1       0.669  -2.600  -3.144  0.00  0.00    -0.445 OA
ENDROOT
BRANCH  14  16
ATOM     16  N   UNL     1      -0.139  -2.464  -5.340  0.00  0.00    -0.329 N 
ATOM     17  H   UNL     1       0.017  -2.520  -6.295  0.00  0.00    +0.145 HD
ATOM     18  H   UNL     1      -1.038  -2.333  -5.002  0.00  0.00    +0.145 HD
ENDBRANCH  14  16
BRANCH  13  19
ATOM     19  C   UNL     1       2.392  -2.616  -6.343  0.00  0.00    +0.341 C 
ATOM     20  O   UNL     1       2.630  -3.648  -6.945  0.00  0.00    -0.245 OA
BRANCH  19  21
ATOM     21  O   UNL     1       2.333  -1.444  -7.012  0.00  0.00    -0.465 OA
ATOM     22  C   UNL     1       2.450  -1.501  -8.435  0.00  0.00    +0.280 C 
ENDBRANCH  19  21
ENDBRANCH  13  19
BRANCH   2  23
ATOM     23  C   UNL     1       3.947  -2.129  -1.658  0.00  0.00    +0.340 C 
ATOM     24  O   UNL     1       4.549  -3.044  -1.128  0.00  0.00    -0.245 OA
BRANCH  23  25
ATOM     25  O   UNL     1       4.232  -0.853  -1.326  0.00  0.00    -0.465 OA
ATOM     26  C   UNL     1       5.252  -0.649  -0.346  0.00  0.00    +0.280 C 
ENDBRANCH  23  25
ENDBRANCH   2  23
BRANCH   1  27
ATOM     27  C   UNL     1       1.300  -1.980  -0.853  0.00  0.00    +0.195 C 
BRANCH  27  28
ATOM     28  C   UNL     1       1.052  -0.496  -0.760  0.00  0.00    +0.314 C 
ATOM     29  O   UNL     1       1.153   0.195  -1.746  0.00  0.00    -0.250 OA
BRANCH  28  31
ATOM     30  C   UNL     1       0.498   1.468   0.431  0.00  0.00    +0.280 C 
ATOM     31  O   UNL     1       0.718   0.056   0.416  0.00  0.00    -0.468 OA
ENDBRANCH  28  31
ENDBRANCH  27  28
ENDBRANCH   1  27
BRANCH  10  32
ATOM     32  C   UNL     1       6.822  -2.178  -5.235  0.00  0.00    +0.234 C 
BRANCH  32  33
ATOM     33  C   UNL     1       6.788  -2.056  -6.736  0.00  0.00    +0.325 C 
ATOM     34  O   UNL     1       5.821  -2.438  -7.352  0.00  0.00    -0.249 OA
BRANCH  33  35
ATOM     35  O   UNL     1       7.832  -1.522  -7.390  0.00  0.00    -0.459 OA
BRANCH  35  36
ATOM     36  C   UNL     1       7.731  -1.438  -8.813  0.00  0.00    +0.267 C 
BRANCH  36  37
ATOM     37  C   UNL     1       8.987  -0.817  -9.370  0.00  0.00    -0.010 A 
ATOM     38  C   UNL     1       9.072   0.554  -9.520  0.00  0.00    +0.007 A 
ATOM     39  C   UNL     1      10.224   1.124 -10.030  0.00  0.00    +0.000 A 
ATOM     40  C   UNL     1      11.290   0.321 -10.389  0.00  0.00    +0.000 A 
ATOM     41  C   UNL     1      11.206  -1.050 -10.238  0.00  0.00    +0.000 A 
ATOM     42  C   UNL     1      10.056  -1.619  -9.724  0.00  0.00    +0.007 A 
ENDBRANCH  36  37
ENDBRANCH  35  36
ENDBRANCH  33  35
ENDBRANCH  32  33
ENDBRANCH  10  32
TORSDOF 13
