REMARK  Name = ZINC48797637
REMARK  9 active torsions:
REMARK  status: ('A' for Active; 'I' for Inactive)
REMARK    1  A    between atoms: C_1  and  C_2
REMARK    2  A    between atoms: C_7  and  C_9
REMARK    3  A    between atoms: C_7  and  N_20
REMARK    4  A    between atoms: C_9  and  N_10
REMARK    5  A    between atoms: N_10  and  C_11
REMARK    6  A    between atoms: C_11  and  C_12
REMARK    7  A    between atoms: C_17  and  O_18
REMARK    8  A    between atoms: N_20  and  C_21
REMARK    9  A    between atoms: N_20  and  C_22
REMARK                            x       y       z     vdW  Elec       q    Type
REMARK                         _______ _______ _______ _____ _____    ______ ____
ROOT
ATOM      1  N   UNL     1       2.154  -3.843   2.256  0.00  0.00    +0.381 N 
ATOM      2  H   UNL     1       1.277  -4.326   2.381  0.00  0.00    -0.086 HD
ATOM      3  H   UNL     1       2.569  -4.120   1.379  0.00  0.00    -0.086 HD
ENDROOT
BRANCH   1   4
ATOM      4  C   UNL     1       1.919  -2.393   2.250  0.00  0.00    -0.094 C 
BRANCH   4  10
ATOM      5  C   UNL     1      -0.594   1.318   0.039  0.00  0.00    +0.007 C 
ATOM      6  C   UNL     1      -0.411  -0.200   0.107  0.00  0.00    -0.015 C 
ATOM      7  C   UNL     1      -1.733  -0.856   0.509  0.00  0.00    +0.003 C 
ATOM      8  C   UNL     1      -1.550  -2.373   0.577  0.00  0.00    -0.001 C 
ATOM      9  C   UNL     1      -0.477  -2.711   1.615  0.00  0.00    -0.014 C 
ATOM     10  C   UNL     1       0.846  -2.055   1.213  0.00  0.00    -0.082 C 
ATOM     11  C   UNL     1       0.662  -0.538   1.144  0.00  0.00    -0.011 C 
BRANCH  10  12
ATOM     12  N   UNL     1       1.262  -2.558  -0.104  0.00  0.00    +0.379 N 
ATOM     13  C   UNL     1       2.713  -2.390  -0.256  0.00  0.00    -0.096 C 
ATOM     14  C   UNL     1       0.919  -3.982  -0.214  0.00  0.00    -0.096 C 
ATOM     15  H   UNL     1       0.786  -2.040  -0.827  0.00  0.00    -0.082 HD
ENDBRANCH  10  12
ENDBRANCH   4  10
ENDBRANCH   1   4
BRANCH   1  16
ATOM     16  C   UNL     1       3.063  -4.186   3.357  0.00  0.00    -0.043 C 
BRANCH  16  17
ATOM     17  C   UNL     1       3.305  -5.674   3.364  0.00  0.00    -0.022 A 
ATOM     18  C   UNL     1       2.613  -6.483   4.245  0.00  0.00    +0.005 A 
ATOM     19  C   UNL     1       2.834  -7.848   4.252  0.00  0.00    +0.002 A 
ATOM     20  C   UNL     1       3.748  -8.407   3.377  0.00  0.00    +0.019 A 
ATOM     21  C   UNL     1       4.442  -7.603   2.494  0.00  0.00    +0.059 A 
ATOM     22  C   UNL     1       4.218  -6.232   2.482  0.00  0.00    +0.132 A 
ATOM     23 BR   UNL     1       5.692  -8.368   1.299  0.00  0.00    -0.047 Br
BRANCH  22  24
ATOM     24  O   UNL     1       4.896  -5.439   1.611  0.00  0.00    -0.505 OA
ATOM     25  H   UNL     1       5.735  -5.103   1.956  0.00  0.00    +0.292 HD
ENDBRANCH  22  24
ENDBRANCH  16  17
ENDBRANCH   1  16
TORSDOF 6
