REMARK  Name = ZINC56522923
REMARK  10 active torsions:
REMARK  status: ('A' for Active; 'I' for Inactive)
REMARK    1  A    between atoms: C_1  and  C_2
REMARK    2  A    between atoms: C_2  and  C_4
REMARK    3  A    between atoms: C_2  and  N_13
REMARK    4  A    between atoms: N_9  and  C_10
REMARK    5  A    between atoms: C_10  and  C_11
REMARK    6  A    between atoms: C_16  and  C_19
REMARK    7  A    between atoms: C_19  and  C_20
REMARK    8  A    between atoms: C_20  and  N_21
REMARK    9  A    between atoms: N_21  and  C_22
REMARK   10  A    between atoms: N_21  and  C_23
REMARK                            x       y       z     vdW  Elec       q    Type
REMARK                         _______ _______ _______ _____ _____    ______ ____
ROOT
ATOM      1  C   UNL     1      -0.555   1.415   0.136  0.00  0.00    -0.004 C 
ATOM      2  C   UNL     1       0.002  -0.004   0.002  0.00  0.00    +0.017 C 
ENDROOT
BRANCH   2   3
ATOM      3  C   UNL     1       0.674  -0.404   1.290  0.00  0.00    +0.207 C 
ATOM      4  O   UNL     1       0.042  -0.978   2.151  0.00  0.00    -0.277 OA
ATOM      5  N   UNL     1       1.978  -0.123   1.486  0.00  0.00    -0.242 N 
ATOM      6  C   UNL     1       2.579  -0.481   2.638  0.00  0.00    +0.306 C 
ATOM      7  O   UNL     1       1.945  -1.056   3.501  0.00  0.00    -0.252 OA
ATOM      8  N   UNL     1       3.882  -0.200   2.833  0.00  0.00    -0.296 N 
ATOM      9  H   UNL     1       2.483   0.336   0.797  0.00  0.00    +0.159 HD
ATOM     10  H   UNL     1       4.388   0.260   2.145  0.00  0.00    +0.151 HD
BRANCH   8  11
ATOM     11  C   UNL     1       4.535  -0.588   4.086  0.00  0.00    +0.132 C 
BRANCH  11  12
ATOM     12  C   UNL     1       5.981  -0.162   4.052  0.00  0.00    -0.016 C 
ATOM     13  C   UNL     1       6.463   0.593   5.007  0.00  0.00    +0.005 C 
ENDBRANCH  11  12
ENDBRANCH   8  11
ENDBRANCH   2   3
BRANCH   2  14
ATOM     14  N   UNL     1      -1.096  -0.936  -0.287  0.00  0.00    +0.387 N 
ATOM     15  C   UNL     1      -1.747  -0.548  -1.544  0.00  0.00    -0.078 C 
ATOM     16  C   UNL     1      -2.942  -1.466  -1.809  0.00  0.00    -0.015 C 
ATOM     17  C   UNL     1      -2.454  -2.913  -1.911  0.00  0.00    -0.016 C 
ATOM     18  C   UNL     1      -1.712  -3.284  -0.624  0.00  0.00    -0.015 C 
ATOM     19  C   UNL     1      -0.562  -2.298  -0.403  0.00  0.00    -0.078 C 
ATOM     20  H   UNL     1      -1.770  -0.903   0.463  0.00  0.00    -0.081 HD
BRANCH  17  21
ATOM     21  C   UNL     1      -3.653  -3.846  -2.096  0.00  0.00    -0.015 C 
BRANCH  21  22
ATOM     22  C   UNL     1      -3.157  -5.275  -2.323  0.00  0.00    -0.079 C 
BRANCH  22  23
ATOM     23  N   UNL     1      -4.308  -6.171  -2.501  0.00  0.00    +0.376 N 
ATOM     24  C   UNL     1      -5.025  -5.808  -3.731  0.00  0.00    -0.097 C 
ATOM     25  C   UNL     1      -3.838  -7.559  -2.599  0.00  0.00    -0.097 C 
ATOM     26  H   UNL     1      -4.929  -6.081  -1.711  0.00  0.00    -0.083 HD
ENDBRANCH  22  23
ENDBRANCH  21  22
ENDBRANCH  17  21
ENDBRANCH   2  14
TORSDOF 7
