REMARK  Name = ZINC45674293
REMARK  6 active torsions:
REMARK  status: ('A' for Active; 'I' for Inactive)
REMARK    1  A    between atoms: N_7  and  C_8
REMARK    2  A    between atoms: C_8  and  C_9
REMARK    3  A    between atoms: C_9  and  C_10
REMARK    4  A    between atoms: C_10  and  N_11
REMARK    5  A    between atoms: N_14  and  C_15
REMARK    6  A    between atoms: C_15  and  C_16
REMARK                            x       y       z     vdW  Elec       q    Type
REMARK                         _______ _______ _______ _____ _____    ______ ____
ROOT
ATOM      1  N   UNL     1      -0.678  -6.544  -0.029  0.00  0.00    -0.299 N 
ATOM      2  C   UNL     1      -1.681  -7.444  -0.025  0.00  0.00    +0.300 C 
ATOM      3  O   UNL     1      -2.837  -7.067  -0.012  0.00  0.00    -0.253 OA
ATOM      4  N   UNL     1      -1.403  -8.763  -0.035  0.00  0.00    -0.299 N 
ATOM      5  H   UNL     1       0.244  -6.845  -0.040  0.00  0.00    +0.150 HD
ATOM      6  H   UNL     1      -0.480  -9.064  -0.045  0.00  0.00    +0.150 HD
ENDROOT
BRANCH   1   7
ATOM      7  C   UNL     1      -0.980  -5.111  -0.018  0.00  0.00    +0.107 C 
BRANCH   7   8
ATOM      8  C   UNL     1       0.326  -4.314  -0.026  0.00  0.00    +0.037 C 
BRANCH   8   9
ATOM      9  C   UNL     1       0.010  -2.817  -0.015  0.00  0.00    +0.104 C 
BRANCH   9  16
ATOM     10  C   UNL     1      -0.017   1.379   0.010  0.00  0.00    +0.005 A 
ATOM     11  C   UNL     1       1.195   2.058   0.002  0.00  0.00    +0.018 A 
ATOM     12  C   UNL     1       2.373   1.339  -0.013  0.00  0.00    +0.084 A 
ATOM     13  N   UNL     1       2.361   0.020  -0.020  0.00  0.00    -0.350 N 
ATOM     14  C   UNL     1       1.227  -0.664  -0.014  0.00  0.00    +0.096 A 
ATOM     15  C   UNL     1       0.002  -0.004   0.002  0.00  0.00    +0.041 A 
ATOM     16  N   UNL     1       1.260  -2.054  -0.022  0.00  0.00    -0.330 N 
ATOM     17  H   UNL     1       2.112  -2.518  -0.033  0.00  0.00    +0.147 HD
ATOM     18  H   UNL     1       3.203  -0.461  -0.031  0.00  0.00    +0.166 HD
ENDBRANCH   9  16
ENDBRANCH   8   9
ENDBRANCH   7   8
ENDBRANCH   1   7
BRANCH   4  19
ATOM     19  C   UNL     1      -2.493  -9.742  -0.031  0.00  0.00    +0.111 C 
BRANCH  19  20
ATOM     20  C   UNL     1      -1.909 -11.156  -0.044  0.00  0.00    +0.029 C 
ATOM     21  C   UNL     1      -1.145 -11.405   1.267  0.00  0.00    +0.029 C 
ATOM     22  C   UNL     1      -0.837 -12.927   1.366  0.00  0.00    +0.166 C 
ATOM     23  S   UNL     1      -2.422 -13.633   0.748  0.00  0.00    -0.031 S 
ATOM     24  O   UNL     1      -3.280 -13.880   1.853  0.00  0.00    -0.174 OA
ATOM     25  O   UNL     1      -2.135 -14.685  -0.163  0.00  0.00    -0.174 OA
ATOM     26  C   UNL     1      -3.056 -12.184  -0.189  0.00  0.00    +0.171 C 
ENDBRANCH  19  20
ENDBRANCH   4  19
TORSDOF 6
