REMARK  Name = ZINC64136856
REMARK  4 active torsions:
REMARK  status: ('A' for Active; 'I' for Inactive)
REMARK    1  A    between atoms: C_1  and  O_2
REMARK    2  A    between atoms: O_2  and  C_3
REMARK    3  A    between atoms: C_8  and  C_13
REMARK    4  A    between atoms: N_15  and  C_16
REMARK                            x       y       z     vdW  Elec       q    Type
REMARK                         _______ _______ _______ _____ _____    ______ ____
ROOT
ATOM      1  C   UNL     1      -4.627  -4.874   1.264  0.00  0.00    +0.240 C 
ATOM      2  O   UNL     1      -3.797  -5.274   2.053  0.00  0.00    -0.273 OA
ATOM      3  N   UNL     1      -5.937  -5.095   1.493  0.00  0.00    -0.308 N 
ATOM      4  H   UNL     1      -6.600  -4.775   0.862  0.00  0.00    +0.149 HD
ENDROOT
BRANCH   1  10
ATOM      5  C   UNL     1      -1.198  -0.636   0.010  0.00  0.00    +0.122 A 
ATOM      6  C   UNL     1      -2.372   0.141   0.020  0.00  0.00    +0.046 A 
ATOM      7  C   UNL     1      -3.597  -0.428   0.028  0.00  0.00    +0.013 A 
ATOM      8  C   UNL     1      -3.704  -1.893   0.026  0.00  0.00    -0.003 A 
ATOM      9  C   UNL     1      -4.764  -2.731   0.033  0.00  0.00    +0.016 C 
ATOM     10  C   UNL     1      -4.193  -4.131   0.027  0.00  0.00    +0.190 C 
ATOM     11  N   UNL     1      -2.735  -3.972   0.016  0.00  0.00    -0.370 N 
ATOM     12  C   UNL     1      -2.455  -2.689   0.016  0.00  0.00    +0.047 A 
ATOM     13  C   UNL     1      -1.220  -1.993   0.003  0.00  0.00    +0.071 A 
ATOM     14  H   UNL     1      -2.086  -4.693   0.010  0.00  0.00    +0.161 HD
BRANCH   5  16
ATOM     15  C   UNL     1      -0.017   1.425   0.010  0.00  0.00    +0.277 C 
ATOM     16  O   UNL     1       0.002  -0.004   0.002  0.00  0.00    -0.495 OA
ENDBRANCH   5  16
ENDBRANCH   1  10
BRANCH   3  17
ATOM     17  C   UNL     1      -6.358  -5.817   2.696  0.00  0.00    +0.035 C 
ATOM     18  C   UNL     1      -5.888  -5.058   3.938  0.00  0.00    +0.029 C 
ATOM     19  C   UNL     1      -6.328  -5.812   5.194  0.00  0.00    -0.008 C 
ATOM     20  C   UNL     1      -7.854  -5.925   5.213  0.00  0.00    +0.007 C 
ATOM     21  C   UNL     1      -8.324  -6.684   3.971  0.00  0.00    -0.008 C 
ATOM     22  C   UNL     1      -7.884  -5.930   2.715  0.00  0.00    +0.029 C 
ATOM     23  C   UNL     1      -7.709  -8.085   3.966  0.00  0.00    +0.007 C 
ATOM     24  C   UNL     1      -6.183  -7.973   3.947  0.00  0.00    -0.008 C 
ATOM     25  C   UNL     1      -5.713  -7.213   5.190  0.00  0.00    +0.007 C 
ATOM     26  C   UNL     1      -5.743  -7.218   2.691  0.00  0.00    +0.029 C 
ENDBRANCH   3  17
TORSDOF 3
