REMARK  Name = ZINC39697691
REMARK  7 active torsions:
REMARK  status: ('A' for Active; 'I' for Inactive)
REMARK    1  A    between atoms: C_1  and  C_2
REMARK    2  A    between atoms: C_5  and  N_9
REMARK    3  A    between atoms: C_7  and  N_8
REMARK    4  A    between atoms: C_10  and  C_12
REMARK    5  A    between atoms: C_12  and  C_14
REMARK    6  A    between atoms: C_12  and  S_15
REMARK    7  A    between atoms: S_15  and  C_16
REMARK                            x       y       z     vdW  Elec       q    Type
REMARK                         _______ _______ _______ _____ _____    ______ ____
ROOT
ATOM      1  C   UNL     1      -0.134  -6.343  -1.202  0.00  0.00    +0.137 C 
ATOM      2  C   UNL     1      -1.592  -6.764  -1.008  0.00  0.00    +0.029 C 
ENDROOT
BRANCH   1   4
ATOM      3  N   UNL     1       0.059  -4.175  -0.027  0.00  0.00    -0.285 N 
ATOM      4  C   UNL     1      -0.040  -4.839  -1.196  0.00  0.00    +0.230 C 
ATOM      5  O   UNL     1      -0.053  -4.226  -2.243  0.00  0.00    -0.274 OA
ATOM      6  H   UNL     1       0.137  -4.666   0.805  0.00  0.00    +0.155 HD
BRANCH   3  11
ATOM      7  C   UNL     1       0.010   1.503   0.037  0.00  0.00    +0.045 C 
ATOM      8  C   UNL     1       0.024  -0.004   0.019  0.00  0.00    -0.030 A 
ATOM      9  C   UNL     1      -0.569  -0.712   1.046  0.00  0.00    +0.007 A 
ATOM     10  C   UNL     1      -0.558  -2.094   1.033  0.00  0.00    +0.024 A 
ATOM     11  C   UNL     1       0.048  -2.775  -0.015  0.00  0.00    +0.035 A 
ATOM     12  C   UNL     1       0.644  -2.067  -1.049  0.00  0.00    +0.046 A 
ATOM     13  C   UNL     1       0.627  -0.679  -1.035  0.00  0.00    +0.029 A 
BRANCH  13  14
ATOM     14  N   UNL     1       1.221   0.037  -2.076  0.00  0.00    -0.358 N 
ATOM     15  H   UNL     1       1.212   1.007  -2.064  0.00  0.00    +0.142 HD
ATOM     16  H   UNL     1       1.642  -0.435  -2.812  0.00  0.00    +0.142 HD
ENDBRANCH  13  14
ENDBRANCH   3  11
ENDBRANCH   1   4
BRANCH   1  17
ATOM     17  S   UNL     1       0.474  -6.980  -2.788  0.00  0.00    -0.072 S 
BRANCH  17  18
ATOM     18  C   UNL     1       0.441  -8.730  -2.585  0.00  0.00    +0.208 C 
ATOM     19  N   UNL     1       0.019  -9.212  -1.441  0.00  0.00    -0.227 NA
ATOM     20  C   UNL     1       0.069 -10.660  -1.252  0.00  0.00    +0.252 C 
ATOM     21  C   UNL     1      -0.069 -11.276  -2.637  0.00  0.00    +0.117 C 
ATOM     22  C   UNL     1      -1.032 -12.231  -2.518  0.00  0.00    +0.025 A 
ATOM     23  C   UNL     1      -1.523 -13.206  -3.422  0.00  0.00    +0.012 A 
ATOM     24  C   UNL     1      -2.524 -14.016  -2.985  0.00  0.00    +0.001 A 
ATOM     25  C   UNL     1      -3.093 -13.946  -1.710  0.00  0.00    +0.002 A 
ATOM     26  C   UNL     1      -2.697 -13.056  -0.760  0.00  0.00    +0.026 A 
ATOM     27  C   UNL     1      -1.610 -12.140  -1.142  0.00  0.00    +0.046 A 
ATOM     28  N   UNL     1      -1.017 -11.212  -0.455  0.00  0.00    -0.358 N 
ATOM     29  N   UNL     1       0.582 -10.770  -3.689  0.00  0.00    -0.147 NA
ATOM     30  N   UNL     1       0.847  -9.501  -3.623  0.00  0.00    -0.122 NA
ATOM     31  H   UNL     1      -1.257 -10.933   0.443  0.00  0.00    +0.162 HD
ENDBRANCH  17  18
ENDBRANCH   1  17
TORSDOF 5
