REMARK  Name = ZINC58006246
REMARK  9 active torsions:
REMARK  status: ('A' for Active; 'I' for Inactive)
REMARK    1  A    between atoms: C_1  and  C_2
REMARK    2  A    between atoms: C_2  and  C_3
REMARK    3  A    between atoms: C_3  and  C_5
REMARK    4  A    between atoms: C_3  and  N_22
REMARK    5  A    between atoms: C_5  and  N_6
REMARK    6  A    between atoms: C_14  and  C_17
REMARK    7  A    between atoms: C_14  and  C_19
REMARK    8  A    between atoms: C_17  and  C_18
REMARK    9  A    between atoms: C_19  and  C_20
REMARK                            x       y       z     vdW  Elec       q    Type
REMARK                         _______ _______ _______ _____ _____    ______ ____
ROOT
ATOM      1  N   UNL     1      -2.329  -2.177  -0.342  0.00  0.00    -0.267 N 
ATOM      2  C   UNL     1      -2.897  -2.664   0.844  0.00  0.00    +0.080 A 
ATOM      3  C   UNL     1      -2.365  -2.315   2.075  0.00  0.00    +0.047 A 
ATOM      4  C   UNL     1      -2.945  -2.793   3.236  0.00  0.00    +0.043 A 
ATOM      5  C   UNL     1      -4.055  -3.617   3.171  0.00  0.00    +0.024 A 
ATOM      6  C   UNL     1      -4.587  -3.972   1.945  0.00  0.00    +0.049 A 
ATOM      7  C   UNL     1      -4.008  -3.502   0.779  0.00  0.00    +0.143 A 
ATOM      8  O   UNL     1      -4.504  -3.870  -0.433  0.00  0.00    -0.475 OA
ATOM      9  C   UNL     1      -4.383  -2.925  -1.498  0.00  0.00    +0.186 C 
ATOM     10  C   UNL     1      -2.994  -2.339  -1.505  0.00  0.00    +0.264 C 
ATOM     11  O   UNL     1      -2.474  -2.019  -2.553  0.00  0.00    -0.271 OA
ATOM     12 CL   UNL     1      -2.279  -2.358   4.779  0.00  0.00    -0.083 Cl
ENDROOT
BRANCH   9  13
ATOM     13  C   UNL     1      -4.650  -3.624  -2.833  0.00  0.00    +0.054 C 
ATOM     14  C   UNL     1      -3.633  -4.749  -3.032  0.00  0.00    +0.008 C 
ENDBRANCH   9  13
BRANCH   9  15
ATOM     15  C   UNL     1      -5.402  -1.801  -1.300  0.00  0.00    +0.054 C 
ATOM     16  C   UNL     1      -5.069  -1.030  -0.021  0.00  0.00    +0.008 C 
ENDBRANCH   9  15
BRANCH   1  17
ATOM     17  C   UNL     1      -1.033  -1.496  -0.317  0.00  0.00    +0.098 C 
BRANCH  17  18
ATOM     18  C   UNL     1       0.090  -2.533  -0.374  0.00  0.00    -0.057 C 
BRANCH  18  19
ATOM     19  N   UNL     1      -0.050  -3.340  -1.593  0.00  0.00    +0.381 N 
ATOM     20  H   UNL     1       0.045  -2.746  -2.403  0.00  0.00    -0.090 HD
ATOM     21  H   UNL     1       0.666  -4.051  -1.611  0.00  0.00    -0.090 HD
ATOM     22  H   UNL     1      -0.959  -3.779  -1.604  0.00  0.00    -0.090 HD
ENDBRANCH  18  19
BRANCH  18  24
ATOM     23  C   UNL     1       2.567  -2.856  -0.319  0.00  0.00    +0.002 C 
ATOM     24  C   UNL     1       1.444  -1.820  -0.388  0.00  0.00    -0.018 C 
ENDBRANCH  18  24
ENDBRANCH  17  18
ENDBRANCH   1  17
TORSDOF 6
