REMARK  Name = ZINC08020841
REMARK  1 active torsions:
REMARK  status: ('A' for Active; 'I' for Inactive)
REMARK    1  A    between atoms: C_6  and  N_7
REMARK                            x       y       z     vdW  Elec       q    Type
REMARK                         _______ _______ _______ _____ _____    ______ ____
ROOT
ATOM      1  N   UNL     1      -1.200  -0.721   0.010  0.00  0.00    -0.217 N 
ATOM      2  C   UNL     1      -2.436  -0.179   0.018  0.00  0.00    +0.285 A 
ATOM      3  O   UNL     1      -2.709   1.007   0.021  0.00  0.00    -0.265 OA
ATOM      4  C   UNL     1      -3.385  -1.293   0.024  0.00  0.00    +0.130 A 
ATOM      5  C   UNL     1      -4.838  -1.396   0.035  0.00  0.00    +0.200 A 
ATOM      6  O   UNL     1      -5.537  -0.394   0.046  0.00  0.00    -0.287 OA
ATOM      7  C   UNL     1      -5.426  -2.696   0.034  0.00  0.00    +0.019 A 
ATOM      8  C   UNL     1      -4.636  -3.780   0.017  0.00  0.00    +0.024 A 
ATOM      9  N   UNL     1      -3.271  -3.663   0.018  0.00  0.00    -0.343 N 
ATOM     10  H   UNL     1      -2.738  -4.473   0.020  0.00  0.00    +0.167 HD
ATOM     11  C   UNL     1      -2.632  -2.470   0.017  0.00  0.00    +0.140 A 
ATOM     12  N   UNL     1      -1.314  -2.115   0.003  0.00  0.00    -0.274 N 
ATOM     13  H   UNL     1      -0.569  -2.736  -0.006  0.00  0.00    +0.189 HD
ATOM     14  C   UNL     1      -5.191  -5.184  -0.015  0.00  0.00    +0.053 C 
ATOM     15  C   UNL     1      -6.650  -5.202   0.431  0.00  0.00    +0.006 C 
ATOM     16  C   UNL     1      -7.414  -4.149  -0.381  0.00  0.00    +0.005 C 
ATOM     17  C   UNL     1      -6.930  -2.769   0.059  0.00  0.00    +0.041 C 
ENDROOT
BRANCH   1  23
ATOM     18  C   UNL     1      -0.017   1.384   0.010  0.00  0.00    +0.030 A 
ATOM     19  C   UNL     1       1.170   2.090   0.002  0.00  0.00    +0.040 A 
ATOM     20  C   UNL     1       2.379   1.414  -0.013  0.00  0.00    +0.124 A 
ATOM     21  C   UNL     1       2.400   0.030  -0.021  0.00  0.00    +0.040 A 
ATOM     22  C   UNL     1       1.215  -0.680  -0.013  0.00  0.00    +0.030 A 
ATOM     23  C   UNL     1       0.002  -0.004   0.002  0.00  0.00    +0.067 A 
ATOM     24  F   UNL     1       3.539   2.107  -0.022  0.00  0.00    -0.205 F 
ENDBRANCH   1  23
TORSDOF 1
