REMARK  Name = ZINC66203383
REMARK  10 active torsions:
REMARK  status: ('A' for Active; 'I' for Inactive)
REMARK    1  A    between atoms: C_1  and  C_2
REMARK    2  A    between atoms: C_2  and  C_3
REMARK    3  A    between atoms: C_3  and  C_5
REMARK    4  A    between atoms: C_3  and  N_6
REMARK    5  A    between atoms: N_6  and  C_7
REMARK    6  A    between atoms: N_6  and  C_8
REMARK    7  A    between atoms: C_8  and  C_9
REMARK    8  A    between atoms: C_9  and  N_10
REMARK    9  A    between atoms: N_13  and  N_14
REMARK   10  A    between atoms: C_15  and  C_17
REMARK                            x       y       z     vdW  Elec       q    Type
REMARK                         _______ _______ _______ _____ _____    ______ ____
ROOT
ATOM      1  N   UNL     1      -1.085   2.954  -4.259  0.00  0.00    -0.300 N 
ATOM      2  C   UNL     1      -1.798   3.446  -5.292  0.00  0.00    +0.316 C 
ATOM      3  O   UNL     1      -2.408   2.691  -6.024  0.00  0.00    -0.251 OA
ATOM      4  N   UNL     1      -1.835   4.775  -5.512  0.00  0.00    -0.218 N 
ATOM      5  H   UNL     1      -0.599   3.556  -3.675  0.00  0.00    +0.150 HD
ATOM      6  H   UNL     1      -2.349   5.129  -6.255  0.00  0.00    +0.174 HD
ENDROOT
BRANCH   4   7
ATOM      7  N   UNL     1      -1.133   5.645  -4.668  0.00  0.00    -0.229 N 
ATOM      8  C   UNL     1      -1.171   6.974  -4.888  0.00  0.00    +0.267 C 
ATOM      9  O   UNL     1      -1.814   7.418  -5.821  0.00  0.00    -0.268 OA
ATOM     10  H   UNL     1      -0.620   5.290  -3.925  0.00  0.00    +0.173 HD
BRANCH   8  11
ATOM     11  C   UNL     1      -0.436   7.884  -4.005  0.00  0.00    +0.076 A 
ATOM     12  C   UNL     1      -0.348   9.261  -4.051  0.00  0.00    +0.024 A 
ATOM     13  C   UNL     1       0.430   9.878  -3.075  0.00  0.00    -0.036 A 
ATOM     14  C   UNL     1       1.030   9.060  -2.171  0.00  0.00    -0.006 A 
ATOM     15  S   UNL     1       0.572   7.504  -2.585  0.00  0.00    -0.088 S 
ATOM     16  C   UNL     1       1.921   9.448  -1.029  0.00  0.00    +0.043 C 
ATOM     17  C   UNL     1       1.548  10.854  -0.546  0.00  0.00    +0.005 C 
ATOM     18  C   UNL     1       2.362  11.873  -1.338  0.00  0.00    +0.001 C 
ATOM     19  C   UNL     1       2.049  11.769  -2.828  0.00  0.00    +0.005 C 
ATOM     20  C   UNL     1       0.586  11.395  -3.040  0.00  0.00    +0.036 C 
ENDBRANCH   8  11
ENDBRANCH   4   7
BRANCH   1  21
ATOM     21  C   UNL     1      -1.045   1.509  -4.019  0.00  0.00    +0.087 C 
BRANCH  21  22
ATOM     22  C   UNL     1      -0.173   1.219  -2.796  0.00  0.00    -0.060 C 
BRANCH  22  23
ATOM     23  N   UNL     1      -0.132  -0.230  -2.556  0.00  0.00    +0.381 N 
ATOM     24  C   UNL     1       0.528  -0.895  -3.687  0.00  0.00    -0.096 C 
ATOM     25  H   UNL     1      -1.073  -0.582  -2.461  0.00  0.00    -0.082 HD
BRANCH  23  26
ATOM     26  C   UNL     1       0.618  -0.501  -1.323  0.00  0.00    -0.072 C 
ATOM     27  C   UNL     1       2.081  -0.095  -1.516  0.00  0.00    -0.013 C 
BRANCH  26  29
ATOM     28  C   UNL     1      -0.913  -2.382  -0.725  0.00  0.00    +0.002 C 
ATOM     29  C   UNL     1       0.541  -1.994  -0.997  0.00  0.00    -0.019 C 
ENDBRANCH  26  29
ENDBRANCH  23  26
ENDBRANCH  22  23
ENDBRANCH  21  22
ENDBRANCH   1  21
TORSDOF 7
