REMARK  Name = ZINC58281997
REMARK  11 active torsions:
REMARK  status: ('A' for Active; 'I' for Inactive)
REMARK    1  A    between atoms: C_1  and  C_2
REMARK    2  A    between atoms: C_2  and  N_3
REMARK    3  A    between atoms: C_7  and  C_9
REMARK    4  A    between atoms: C_9  and  N_10
REMARK    5  A    between atoms: C_13  and  C_16
REMARK    6  A    between atoms: C_16  and  N_17
REMARK    7  A    between atoms: C_18  and  O_20
REMARK    8  A    between atoms: O_20  and  C_21
REMARK    9  A    between atoms: C_21  and  C_22
REMARK   10  A    between atoms: C_21  and  C_23
REMARK   11  A    between atoms: C_21  and  C_24
REMARK                            x       y       z     vdW  Elec       q    Type
REMARK                         _______ _______ _______ _____ _____    ______ ____
ROOT
ATOM      1  N   UNL     1       2.322  -5.510  -4.004  0.00  0.00    +0.385 N 
ATOM      2  C   UNL     1       0.948  -6.016  -4.105  0.00  0.00    -0.078 C 
ATOM      3  C   UNL     1       0.956  -7.545  -4.032  0.00  0.00    -0.014 C 
ATOM      4  C   UNL     1       1.793  -8.101  -5.188  0.00  0.00    +0.003 C 
ATOM      5  C   UNL     1       3.204  -7.508  -5.115  0.00  0.00    -0.014 C 
ATOM      6  C   UNL     1       3.112  -5.981  -5.148  0.00  0.00    -0.078 C 
ATOM      7  H   UNL     1       2.739  -5.845  -3.148  0.00  0.00    -0.081 HD
ENDROOT
BRANCH   1   8
ATOM      8  C   UNL     1       2.302  -4.041  -3.995  0.00  0.00    +0.019 C 
BRANCH   8  13
ATOM      9  N   UNL     1       0.688  -0.476  -1.203  0.00  0.00    -0.299 N 
ATOM     10  C   UNL     1       0.827  -1.799  -1.425  0.00  0.00    +0.306 C 
ATOM     11  O   UNL     1       0.383  -2.599  -0.625  0.00  0.00    -0.252 OA
ATOM     12  N   UNL     1       1.458  -2.233  -2.534  0.00  0.00    -0.242 N 
ATOM     13  C   UNL     1       1.597  -3.555  -2.756  0.00  0.00    +0.204 C 
ATOM     14  O   UNL     1       1.154  -4.354  -1.958  0.00  0.00    -0.277 OA
ATOM     15  H   UNL     1       1.042   0.162  -1.842  0.00  0.00    +0.150 HD
ATOM     16  H   UNL     1       1.812  -1.595  -3.172  0.00  0.00    +0.159 HD
BRANCH   9  18
ATOM     17  C   UNL     1      -0.019   1.526   0.010  0.00  0.00    +0.024 C 
ATOM     18  C   UNL     1       0.002  -0.004   0.002  0.00  0.00    +0.102 C 
ENDBRANCH   9  18
ENDBRANCH   8  13
ENDBRANCH   1   8
BRANCH   4  19
ATOM     19  C   UNL     1       1.872  -9.624  -5.076  0.00  0.00    +0.111 C 
BRANCH  19  20
ATOM     20  N   UNL     1       2.570 -10.165  -6.245  0.00  0.00    -0.281 N 
ATOM     21  C   UNL     1       2.759 -11.494  -6.363  0.00  0.00    +0.401 C 
ATOM     22  O   UNL     1       2.349 -12.244  -5.499  0.00  0.00    -0.226 OA
ATOM     23  H   UNL     1       2.897  -9.566  -6.934  0.00  0.00    +0.152 HD
BRANCH  21  24
ATOM     24  O   UNL     1       3.400 -11.990  -7.437  0.00  0.00    -0.445 OA
BRANCH  24  25
ATOM     25  C   UNL     1       3.564 -13.409  -7.497  0.00  0.00    +0.107 C 
ATOM     26  C   UNL     1       2.191 -14.082  -7.491  0.00  0.00    +0.055 C 
ATOM     27  C   UNL     1       4.311 -13.782  -8.779  0.00  0.00    +0.055 C 
ATOM     28  C   UNL     1       4.368 -13.880  -6.283  0.00  0.00    +0.055 C 
ENDBRANCH  24  25
ENDBRANCH  21  24
ENDBRANCH  19  20
ENDBRANCH   4  19
TORSDOF 7
