REMARK  Name = ZINC38815411
REMARK  6 active torsions:
REMARK  status: ('A' for Active; 'I' for Inactive)
REMARK    1  A    between atoms: C_1  and  C_2
REMARK    2  A    between atoms: C_2  and  C_4
REMARK    3  A    between atoms: C_2  and  N_18
REMARK    4  A    between atoms: N_6  and  N_7
REMARK    5  A    between atoms: C_8  and  C_9
REMARK    6  A    between atoms: N_18  and  C_19
REMARK                            x       y       z     vdW  Elec       q    Type
REMARK                         _______ _______ _______ _____ _____    ______ ____
ROOT
ATOM      1  C   UNL     1       0.731  -0.503   1.223  0.00  0.00    +0.249 C 
ATOM      2  O   UNL     1       1.725  -1.186   1.099  0.00  0.00    -0.272 OA
ATOM      3  N   UNL     1       0.278  -0.191   2.453  0.00  0.00    -0.206 N 
ATOM      4  H   UNL     1      -0.517   0.356   2.553  0.00  0.00    +0.177 HD
ENDROOT
BRANCH   1   6
ATOM      5  C   UNL     1      -0.019   1.526   0.010  0.00  0.00    +0.034 C 
ATOM      6  C   UNL     1       0.002  -0.004   0.002  0.00  0.00    +0.141 C 
BRANCH   6   7
ATOM      7  N   UNL     1       0.690  -0.478  -1.207  0.00  0.00    -0.276 NA
ATOM      8  H   UNL     1       1.485   0.104  -1.422  0.00  0.00    +0.125 HD
BRANCH   7   9
ATOM      9  C   UNL     1      -0.235  -0.547  -2.346  0.00  0.00    +0.280 C 
ATOM     10  C   UNL     1       0.425   0.136  -3.529  0.00  0.00    +0.261 C 
ATOM     11  O   UNL     1       0.784   1.293  -3.480  0.00  0.00    -0.271 OA
ATOM     12  N   UNL     1       0.592  -0.616  -4.644  0.00  0.00    -0.234 N 
ATOM     13  C   UNL     1       0.180  -1.894  -4.656  0.00  0.00    +0.347 C 
ATOM     14  O   UNL     1       0.347  -2.537  -5.672  0.00  0.00    -0.249 OA
ATOM     15  N   UNL     1      -0.402  -2.502  -3.618  0.00  0.00    -0.065 NA
ATOM     16  N   UNL     1      -0.624  -1.955  -2.533  0.00  0.00    -0.165 NA
ATOM     17  H   UNL     1       1.008  -0.232  -5.431  0.00  0.00    +0.159 HD
ENDBRANCH   7   9
ENDBRANCH   6   7
ENDBRANCH   1   6
BRANCH   3  18
ATOM     18  N   UNL     1       0.955  -0.655   3.588  0.00  0.00    -0.188 NA
ATOM     19  C   UNL     1       0.515  -0.351   4.783  0.00  0.00    +0.136 C 
BRANCH  19  20
ATOM     20  C   UNL     1       1.193  -0.815   5.919  0.00  0.00    +0.000 C 
ATOM     21  C   UNL     1       0.857  -0.590   7.252  0.00  0.00    +0.004 A 
ATOM     22  C   UNL     1      -0.196   0.127   7.862  0.00  0.00    +0.010 A 
ATOM     23  C   UNL     1      -0.278   0.180   9.215  0.00  0.00    +0.001 A 
ATOM     24  C   UNL     1       0.659  -0.460  10.032  0.00  0.00    +0.002 A 
ATOM     25  C   UNL     1       1.694  -1.165   9.516  0.00  0.00    +0.026 A 
ATOM     26  C   UNL     1       1.847  -1.266   8.108  0.00  0.00    +0.043 A 
ATOM     27  N   UNL     1       2.750  -1.879   7.372  0.00  0.00    -0.380 N 
ATOM     28  C   UNL     1       2.440  -1.672   5.954  0.00  0.00    +0.150 C 
ATOM     29  H   UNL     1       3.500  -2.390   7.713  0.00  0.00    +0.160 HD
ENDBRANCH  19  20
ENDBRANCH   3  18
TORSDOF 5
