REMARK  Name = ZINC12988413
REMARK  11 active torsions:
REMARK  status: ('A' for Active; 'I' for Inactive)
REMARK    1  A    between atoms: C_1  and  C_2
REMARK    2  A    between atoms: C_4  and  C_28
REMARK    3  A    between atoms: C_5  and  N_9
REMARK    4  A    between atoms: C_6  and  C_8
REMARK    5  A    between atoms: C_10  and  C_12
REMARK    6  A    between atoms: C_12  and  N_53
REMARK    7  A    between atoms: C_13  and  N_53
REMARK    8  A    between atoms: C_14  and  C_15
REMARK    9  A    between atoms: C_14  and  N_53
REMARK   10  A    between atoms: C_23  and  O_27
REMARK   11  A    between atoms: C_24  and  O_26
REMARK                            x       y       z     vdW  Elec       q    Type
REMARK                         _______ _______ _______ _____ _____    ______ ____
ROOT
ATOM      1  C   UNL     1      -6.353   2.928  -0.047  0.00  0.00    -0.095 C 
ATOM      2  N   UNL     1      -5.838   3.749  -1.163  0.00  0.00    +0.386 N 
ATOM      3  H   UNL     1      -5.683   3.144  -1.978  0.00  0.00    -0.081 HD
ENDROOT
BRANCH   2   4
ATOM      4  C   UNL     1      -4.556   4.376  -0.779  0.00  0.00    +0.019 C 
BRANCH   4   6
ATOM      5  N   UNL     1      -2.247   3.625  -0.305  0.00  0.00    -0.287 N 
ATOM      6  C   UNL     1      -3.512   3.298  -0.635  0.00  0.00    +0.201 C 
ATOM      7  O   UNL     1      -3.811   2.137  -0.816  0.00  0.00    -0.278 OA
ATOM      8  H   UNL     1      -2.021   4.546  -0.101  0.00  0.00    +0.155 HD
BRANCH   5  13
ATOM      9  C   UNL     1       1.761  -0.386  -0.113  0.00  0.00    +0.044 C 
ATOM     10  C   UNL     1       0.697   0.680  -0.164  0.00  0.00    -0.050 A 
ATOM     11  C   UNL     1      -0.075   0.831  -1.302  0.00  0.00    +0.008 A 
ATOM     12  C   UNL     1      -1.048   1.809  -1.354  0.00  0.00    -0.029 A 
ATOM     13  C   UNL     1      -1.258   2.636  -0.258  0.00  0.00    +0.039 A 
ATOM     14  C   UNL     1      -0.482   2.482   0.883  0.00  0.00    -0.029 A 
ATOM     15  C   UNL     1       0.492   1.504   0.927  0.00  0.00    +0.008 A 
ATOM     16  C   UNL     1      -0.703   3.380   2.073  0.00  0.00    +0.045 C 
ATOM     17  C   UNL     1      -1.883   1.977  -2.597  0.00  0.00    +0.045 C 
ENDBRANCH   5  13
ENDBRANCH   4   6
ENDBRANCH   2   4
BRANCH   2  18
ATOM     18  C   UNL     1      -6.823   4.792  -1.520  0.00  0.00    -0.042 C 
BRANCH  18  19
ATOM     19  C   UNL     1      -6.508   5.300  -2.904  0.00  0.00    -0.046 A 
ATOM     20  C   UNL     1      -5.910   6.506  -3.085  0.00  0.00    +0.094 A 
ATOM     21  C   UNL     1      -5.622   6.956  -4.390  0.00  0.00    +0.337 A 
ATOM     22  O   UNL     1      -5.080   8.037  -4.538  0.00  0.00    -0.245 OA
ATOM     23  O   UNL     1      -5.932   6.226  -5.472  0.00  0.00    -0.422 OA
ATOM     24  C   UNL     1      -6.533   5.021  -5.362  0.00  0.00    +0.143 A 
ATOM     25  C   UNL     1      -6.845   4.509  -4.089  0.00  0.00    +0.023 A 
ATOM     26  C   UNL     1      -7.467   3.261  -3.969  0.00  0.00    +0.061 A 
ATOM     27  C   UNL     1      -7.773   2.539  -5.102  0.00  0.00    +0.159 A 
ATOM     28  C   UNL     1      -7.462   3.050  -6.366  0.00  0.00    +0.162 A 
ATOM     29  C   UNL     1      -6.846   4.282  -6.493  0.00  0.00    +0.096 A 
BRANCH  28  30
ATOM     30  O   UNL     1      -7.767   2.330  -7.477  0.00  0.00    -0.503 OA
ATOM     31  H   UNL     1      -8.646   2.513  -7.835  0.00  0.00    +0.292 HD
ENDBRANCH  28  30
BRANCH  27  32
ATOM     32  O   UNL     1      -8.377   1.325  -4.991  0.00  0.00    -0.503 OA
ATOM     33  H   UNL     1      -9.343   1.365  -4.995  0.00  0.00    +0.292 HD
ENDBRANCH  27  32
ENDBRANCH  18  19
ENDBRANCH   2  18
TORSDOF 7
