REMARK  Name = ZINC43095749
REMARK  7 active torsions:
REMARK  status: ('A' for Active; 'I' for Inactive)
REMARK    1  A    between atoms: C_1  and  C_2
REMARK    2  A    between atoms: C_2  and  C_3
REMARK    3  A    between atoms: C_3  and  C_5
REMARK    4  A    between atoms: C_3  and  N_21
REMARK    5  A    between atoms: C_5  and  C_7
REMARK    6  A    between atoms: C_5  and  S_14
REMARK    7  A    between atoms: S_14  and  C_15
REMARK                            x       y       z     vdW  Elec       q    Type
REMARK                         _______ _______ _______ _____ _____    ______ ____
ROOT
ATOM      1  C   UNL     1       0.957  -1.825   1.235  0.00  0.00    +0.071 C 
ENDROOT
BRANCH   1   2
ATOM      2  C   UNL     1       1.702  -2.225  -0.013  0.00  0.00    -0.022 A 
ATOM      3  C   UNL     1       3.066  -2.443   0.036  0.00  0.00    +0.006 A 
ATOM      4  C   UNL     1       3.748  -2.810  -1.108  0.00  0.00    +0.000 A 
ATOM      5  C   UNL     1       3.067  -2.959  -2.303  0.00  0.00    +0.001 A 
ATOM      6  C   UNL     1       1.704  -2.741  -2.352  0.00  0.00    +0.015 A 
ATOM      7  C   UNL     1       1.019  -2.379  -1.206  0.00  0.00    +0.022 A 
ATOM      8 BR   UNL     1      -0.848  -2.087  -1.272  0.00  0.00    -0.050 Br
ENDBRANCH   1   2
BRANCH   1   9
ATOM      9  C   UNL     1       0.824  -0.302   1.284  0.00  0.00    -0.057 C 
BRANCH   9  10
ATOM     10  N   UNL     1       0.123   0.167   0.081  0.00  0.00    +0.381 N 
ATOM     11  H   UNL     1       0.609  -0.160  -0.741  0.00  0.00    -0.090 HD
ATOM     12  H   UNL     1      -0.819  -0.192   0.079  0.00  0.00    -0.090 HD
ATOM     13  H   UNL     1       0.099   1.176   0.078  0.00  0.00    -0.090 HD
ENDBRANCH   9  10
BRANCH   9  15
ATOM     14  C   UNL     1       2.083   1.844   1.516  0.00  0.00    +0.002 C 
ATOM     15  C   UNL     1       2.216   0.330   1.342  0.00  0.00    -0.018 C 
ENDBRANCH   9  15
ENDBRANCH   1   9
BRANCH   1  16
ATOM     16  S   UNL     1       1.870  -2.400   2.694  0.00  0.00    -0.080 S 
BRANCH  16  17
ATOM     17  C   UNL     1       0.773  -2.082   4.035  0.00  0.00    +0.185 A 
ATOM     18  N   UNL     1       0.979  -2.416   5.328  0.00  0.00    -0.254 N 
ATOM     19  H   UNL     1       1.752  -2.873   5.694  0.00  0.00    +0.191 HD
ATOM     20  N   UNL     1      -0.149  -1.969   6.035  0.00  0.00    -0.160 NA
ATOM     21  C   UNL     1      -0.948  -1.410   5.167  0.00  0.00    +0.245 A 
ATOM     22  N   UNL     1      -0.391  -1.471   3.957  0.00  0.00    -0.209 NA
ENDBRANCH  16  17
ENDBRANCH   1  16
TORSDOF 6
