REMARK  Name = ZINC40586355
REMARK  6 active torsions:
REMARK  status: ('A' for Active; 'I' for Inactive)
REMARK    1  A    between atoms: C_3  and  N_25
REMARK    2  A    between atoms: C_6  and  N_7
REMARK    3  A    between atoms: N_7  and  N_8
REMARK    4  A    between atoms: C_10  and  N_22
REMARK    5  A    between atoms: C_11  and  N_15
REMARK    6  A    between atoms: N_15  and  C_16
REMARK                            x       y       z     vdW  Elec       q    Type
REMARK                         _______ _______ _______ _____ _____    ______ ____
ROOT
ATOM      1  N   UNL     1      -1.226  -2.139  -0.611  0.00  0.00    -0.249 N 
ATOM      2  C   UNL     1      -2.398  -2.844  -0.382  0.00  0.00    +0.170 A 
ATOM      3  C   UNL     1      -2.383  -4.233  -0.303  0.00  0.00    +0.207 A 
ATOM      4  C   UNL     1      -3.585  -4.893  -0.071  0.00  0.00    +0.159 A 
ATOM      5  N   UNL     1      -4.699  -4.177   0.066  0.00  0.00    -0.218 NA
ATOM      6  C   UNL     1      -4.673  -2.862  -0.015  0.00  0.00    +0.225 A 
ATOM      7  N   UNL     1      -3.554  -2.200  -0.228  0.00  0.00    -0.217 NA
ATOM      8  H   UNL     1      -0.388  -2.615  -0.723  0.00  0.00    +0.172 HD
ENDROOT
BRANCH   3   9
ATOM      9  N   UNL     1      -1.120  -4.989  -0.463  0.00  0.00    +0.063 N 
ATOM     10  O   UNL     1      -0.438  -5.238   0.504  0.00  0.00    -0.126 OA
ATOM     11  O   UNL     1      -0.770  -5.358  -1.560  0.00  0.00    -0.126 OA
ENDBRANCH   3   9
BRANCH   1  12
ATOM     12  N   UNL     1      -1.252  -0.741  -0.683  0.00  0.00    -0.265 N 
ATOM     13  H   UNL     1      -2.090  -0.265  -0.572  0.00  0.00    +0.170 HD
BRANCH  12  19
ATOM     14  C   UNL     1      -0.096   1.356  -0.985  0.00  0.00    +0.026 A 
ATOM     15  C   UNL     1       1.074   2.055  -1.214  0.00  0.00    +0.034 A 
ATOM     16  C   UNL     1       2.268   1.375  -1.371  0.00  0.00    +0.126 A 
ATOM     17  C   UNL     1       2.295  -0.006  -1.301  0.00  0.00    +0.034 A 
ATOM     18  C   UNL     1       1.129  -0.711  -1.073  0.00  0.00    +0.026 A 
ATOM     19  C   UNL     1      -0.071  -0.031  -0.914  0.00  0.00    +0.045 A 
BRANCH  16  20
ATOM     20  N   UNL     1       3.519   2.127  -1.616  0.00  0.00    +0.056 N 
ATOM     21  O   UNL     1       3.496   3.334  -1.679  0.00  0.00    -0.126 OA
ATOM     22  O   UNL     1       4.563   1.534  -1.754  0.00  0.00    -0.126 OA
ENDBRANCH  16  20
ENDBRANCH  12  19
ENDBRANCH   1  12
BRANCH   4  23
ATOM     23  N   UNL     1      -3.623  -6.278   0.015  0.00  0.00    -0.297 N 
ATOM     24  H   UNL     1      -2.798  -6.788  -0.004  0.00  0.00    +0.154 HD
BRANCH  23  25
ATOM     25  C   UNL     1      -4.846  -6.936   0.128  0.00  0.00    +0.035 A 
ATOM     26  C   UNL     1      -5.998  -6.409  -0.454  0.00  0.00    +0.041 A 
ATOM     27  C   UNL     1      -7.189  -7.091  -0.319  0.00  0.00    +0.084 A 
ATOM     28  N   UNL     1      -7.247  -8.226   0.351  0.00  0.00    -0.367 N 
ATOM     29  C   UNL     1      -6.179  -8.757   0.917  0.00  0.00    +0.084 A 
ATOM     30  C   UNL     1      -4.949  -8.141   0.823  0.00  0.00    +0.041 A 
ATOM     31  H   UNL     1      -8.098  -8.684   0.431  0.00  0.00    +0.165 HD
ENDBRANCH  23  25
ENDBRANCH   4  23
TORSDOF 6
