REMARK  Name = ZINC32428047
REMARK  6 active torsions:
REMARK  status: ('A' for Active; 'I' for Inactive)
REMARK    1  A    between atoms: C_1  and  C_2
REMARK    2  A    between atoms: C_5  and  C_8
REMARK    3  A    between atoms: N_10  and  C_11
REMARK    4  A    between atoms: C_11  and  C_12
REMARK    5  A    between atoms: C_12  and  C_14
REMARK    6  A    between atoms: C_12  and  N_15
REMARK                            x       y       z     vdW  Elec       q    Type
REMARK                         _______ _______ _______ _____ _____    ______ ____
ROOT
ATOM      1  C   UNL     1       0.189  -6.474  -1.223  0.00  0.00    +0.089 C 
ENDROOT
BRANCH   1   4
ATOM      2  C   UNL     1       0.502  -4.500   0.171  0.00  0.00    +0.264 C 
ATOM      3  O   UNL     1       0.464  -5.220   1.149  0.00  0.00    -0.268 OA
ATOM      4  N   UNL     1       0.374  -5.030  -1.062  0.00  0.00    -0.312 N 
ATOM      5  H   UNL     1       0.405  -4.455  -1.843  0.00  0.00    +0.149 HD
BRANCH   2  10
ATOM      6  C   UNL     1       1.220   1.080   0.847  0.00  0.00    +0.067 C 
ATOM      7  C   UNL     1       1.030  -0.406   0.683  0.00  0.00    +0.056 A 
ATOM      8  C   UNL     1       0.899  -0.950  -0.587  0.00  0.00    +0.134 A 
ATOM      9  N   UNL     1       0.732  -2.249  -0.736  0.00  0.00    -0.247 NA
ATOM     10  C   UNL     1       0.690  -3.039   0.334  0.00  0.00    +0.143 A 
ATOM     11  C   UNL     1       0.822  -2.490   1.608  0.00  0.00    +0.144 A 
ATOM     12  N   UNL     1       0.994  -1.187   1.748  0.00  0.00    -0.256 NA
ENDBRANCH   2  10
ENDBRANCH   1   4
BRANCH   1  13
ATOM     13  C   UNL     1      -0.046  -6.796  -2.700  0.00  0.00    -0.054 C 
ATOM     14  C   UNL     1      -0.154  -8.312  -2.881  0.00  0.00    -0.012 C 
BRANCH  13  15
ATOM     15  N   UNL     1       1.077  -6.287  -3.497  0.00  0.00    +0.385 N 
ATOM     16  C   UNL     1       0.814  -6.539  -4.920  0.00  0.00    -0.073 C 
ATOM     17  C   UNL     1       1.810  -5.723  -5.763  0.00  0.00    +0.024 C 
ATOM     18  C   UNL     1       3.170  -5.937  -5.183  0.00  0.00    -0.011 A 
ATOM     19  C   UNL     1       3.455  -6.492  -3.971  0.00  0.00    -0.054 A 
ATOM     20  C   UNL     1       4.803  -6.597  -3.637  0.00  0.00    +0.009 A 
ATOM     21  C   UNL     1       5.750  -6.155  -4.498  0.00  0.00    +0.045 A 
ATOM     22  S   UNL     1       4.760  -5.554  -5.859  0.00  0.00    -0.101 S 
ATOM     23  C   UNL     1       2.314  -6.952  -3.070  0.00  0.00    -0.042 C 
ATOM     24  H   UNL     1       1.167  -5.293  -3.348  0.00  0.00    -0.081 HD
ENDBRANCH  13  15
ENDBRANCH   1  13
TORSDOF 4
