REMARK  Name = ZINC13096986
REMARK  10 active torsions:
REMARK  status: ('A' for Active; 'I' for Inactive)
REMARK    1  A    between atoms: C_1  and  C_2
REMARK    2  A    between atoms: C_2  and  C_4
REMARK    3  A    between atoms: C_2  and  S_16
REMARK    4  A    between atoms: N_6  and  C_7
REMARK    5  A    between atoms: C_12  and  N_13
REMARK    6  A    between atoms: S_16  and  C_17
REMARK    7  A    between atoms: C_20  and  C_23
REMARK    8  A    between atoms: N_21  and  N_22
REMARK    9  A    between atoms: C_26  and  O_29
REMARK   10  A    between atoms: O_29  and  C_30
REMARK                            x       y       z     vdW  Elec       q    Type
REMARK                         _______ _______ _______ _____ _____    ______ ____
ROOT
ATOM      1  C   UNL     1      -2.437   0.833  -1.199  0.00  0.00    +0.209 A 
ATOM      2  N   UNL     1      -2.748   0.019  -0.216  0.00  0.00    -0.121 NA
ATOM      3  N   UNL     1      -3.944  -0.425  -0.373  0.00  0.00    -0.127 NA
ATOM      4  C   UNL     1      -4.470   0.079  -1.465  0.00  0.00    +0.182 A 
ATOM      5  N   UNL     1      -3.523   0.904  -2.025  0.00  0.00    -0.224 N 
ENDROOT
BRANCH   4   6
ATOM      6  C   UNL     1      -5.826  -0.186  -1.990  0.00  0.00    +0.021 A 
ATOM      7  C   UNL     1      -6.149   0.164  -3.302  0.00  0.00    +0.015 A 
ATOM      8  C   UNL     1      -7.414  -0.089  -3.790  0.00  0.00    +0.046 A 
ATOM      9  C   UNL     1      -8.369  -0.682  -2.974  0.00  0.00    +0.127 A 
ATOM     10  C   UNL     1      -8.053  -1.027  -1.667  0.00  0.00    +0.046 A 
ATOM     11  C   UNL     1      -6.789  -0.782  -1.173  0.00  0.00    +0.015 A 
BRANCH   9  12
ATOM     12  O   UNL     1      -9.615  -0.925  -3.456  0.00  0.00    -0.434 OA
BRANCH  12  13
ATOM     13  C   UNL     1      -9.873  -0.545  -4.810  0.00  0.00    +0.541 C 
ATOM     14  F   UNL     1      -9.676   0.833  -4.953  0.00  0.00    -0.166 F 
ATOM     15  F   UNL     1      -9.000  -1.232  -5.661  0.00  0.00    -0.166 F 
ENDBRANCH  12  13
ENDBRANCH   9  12
ENDBRANCH   4   6
BRANCH   5  16
ATOM     16  N   UNL     1      -3.643   1.640  -3.170  0.00  0.00    -0.295 N 
ATOM     17  H   UNL     1      -3.341   1.109  -3.974  0.00  0.00    +0.163 HD
ATOM     18  H   UNL     1      -4.588   1.972  -3.290  0.00  0.00    +0.163 HD
ENDBRANCH   5  16
BRANCH   1  19
ATOM     19  S   UNL     1      -0.907   1.682  -1.409  0.00  0.00    -0.072 S 
BRANCH  19  21
ATOM     20  C   UNL     1      -0.717   1.602   1.315  0.00  0.00    +0.029 C 
ATOM     21  C   UNL     1      -0.018   1.093   0.053  0.00  0.00    +0.137 C 
BRANCH  21  22
ATOM     22  C   UNL     1       1.398   1.607   0.021  0.00  0.00    +0.230 C 
ATOM     23  O   UNL     1       1.662   2.620  -0.592  0.00  0.00    -0.274 OA
ATOM     24  N   UNL     1       2.372   0.941   0.673  0.00  0.00    -0.283 N 
ATOM     25  H   UNL     1       2.151   0.168   1.216  0.00  0.00    +0.155 HD
BRANCH  24  26
ATOM     26  C   UNL     1       3.701   1.365   0.568  0.00  0.00    +0.064 A 
ATOM     27  C   UNL     1       3.994   2.720   0.476  0.00  0.00    +0.025 A 
ATOM     28  C   UNL     1       5.307   3.136   0.377  0.00  0.00    +0.002 A 
ATOM     29  C   UNL     1       6.329   2.204   0.358  0.00  0.00    +0.002 A 
ATOM     30  C   UNL     1       6.041   0.855   0.445  0.00  0.00    +0.034 A 
ATOM     31  C   UNL     1       4.729   0.433   0.549  0.00  0.00    +0.147 A 
BRANCH  31  32
ATOM     32  N   UNL     1       4.421  -1.012   0.641  0.00  0.00    +0.058 N 
ATOM     33  O   UNL     1       5.326  -1.823   0.725  0.00  0.00    -0.126 OA
ATOM     34  O   UNL     1       3.263  -1.389   0.632  0.00  0.00    -0.126 OA
ENDBRANCH  31  32
ENDBRANCH  24  26
ENDBRANCH  21  22
ENDBRANCH  19  21
ENDBRANCH   1  19
TORSDOF 9
