REMARK  Name = ZINC36813096
REMARK  5 active torsions:
REMARK  status: ('A' for Active; 'I' for Inactive)
REMARK    1  A    between atoms: C_1  and  C_2
REMARK    2  A    between atoms: C_2  and  N_3
REMARK    3  A    between atoms: N_3  and  C_4
REMARK    4  A    between atoms: N_3  and  C_16
REMARK    5  A    between atoms: C_13  and  N_14
REMARK                            x       y       z     vdW  Elec       q    Type
REMARK                         _______ _______ _______ _____ _____    ______ ____
ROOT
ATOM      1  C   UNL     1       2.063  -0.690  -1.183  0.00  0.00    +0.062 A 
ATOM      2  C   UNL     1       2.966   0.346  -1.512  0.00  0.00    +0.022 A 
ATOM      3  C   UNL     1       2.511   1.624  -1.869  0.00  0.00    +0.027 A 
ATOM      4  C   UNL     1       3.412   2.597  -2.180  0.00  0.00    +0.019 A 
ATOM      5  C   UNL     1       4.782   2.339  -2.147  0.00  0.00    +0.017 A 
ATOM      6  C   UNL     1       5.256   1.111  -1.804  0.00  0.00    +0.027 A 
ATOM      7  C   UNL     1       4.357   0.081  -1.477  0.00  0.00    +0.048 A 
ATOM      8  N   UNL     1       4.798  -1.135  -1.137  0.00  0.00    -0.359 N 
ATOM      9  C   UNL     1       3.973  -2.108  -0.828  0.00  0.00    +0.107 A 
ATOM     10  C   UNL     1       2.591  -1.927  -0.833  0.00  0.00    +0.063 A 
ATOM     11 BR   UNL     1       2.798   4.320  -2.662  0.00  0.00    -0.050 Br
ATOM     12  H   UNL     1       5.754  -1.302  -1.117  0.00  0.00    +0.165 HD
ENDROOT
BRANCH  10  13
ATOM     13  N   UNL     1       1.740  -2.988  -0.492  0.00  0.00    -0.355 N 
ATOM     14  H   UNL     1       0.778  -2.860  -0.499  0.00  0.00    +0.142 HD
ATOM     15  H   UNL     1       2.112  -3.850  -0.248  0.00  0.00    +0.142 HD
ENDBRANCH  10  13
BRANCH   1  16
ATOM     16  N   UNL     1       0.688  -0.476  -1.203  0.00  0.00    -0.325 N 
BRANCH  16  17
ATOM     17  C   UNL     1      -0.074  -0.724  -2.430  0.00  0.00    +0.074 C 
ATOM     18  C   UNL     1      -1.539  -0.283  -2.453  0.00  0.00    +0.024 C 
ATOM     19  C   UNL     1      -1.189  -1.770  -2.370  0.00  0.00    +0.024 C 
ENDBRANCH  16  17
BRANCH  16  21
ATOM     20  C   UNL     1      -0.019   1.526   0.010  0.00  0.00    +0.024 C 
ATOM     21  C   UNL     1       0.002  -0.004   0.002  0.00  0.00    +0.102 C 
ENDBRANCH  16  21
ENDBRANCH   1  16
TORSDOF 4
