REMARK  Name = ZINC20693087
REMARK  6 active torsions:
REMARK  status: ('A' for Active; 'I' for Inactive)
REMARK    1  A    between atoms: C_1  and  O_2
REMARK    2  A    between atoms: O_2  and  C_3
REMARK    3  A    between atoms: C_5  and  C_10
REMARK    4  A    between atoms: C_8  and  O_9
REMARK    5  A    between atoms: C_23  and  C_26
REMARK    6  A    between atoms: N_28  and  C_29
REMARK                            x       y       z     vdW  Elec       q    Type
REMARK                         _______ _______ _______ _____ _____    ______ ____
ROOT
ATOM      1  C   UNL     1       2.411   0.436  -4.290  0.00  0.00    +0.105 C 
ATOM      2  C   UNL     1       1.563   0.362  -5.547  0.00  0.00    +0.029 C 
ATOM      3  C   UNL     1       0.085   0.754  -5.421  0.00  0.00    +0.033 C 
ATOM      4  C   UNL     1      -0.554  -0.103  -6.516  0.00  0.00    -0.030 C 
ATOM      5  C   UNL     1       0.190  -1.180  -6.741  0.00  0.00    -0.023 C 
ATOM      6  C   UNL     1       1.375  -1.158  -5.831  0.00  0.00    +0.049 C 
ATOM      7  C   UNL     1       2.692  -1.714  -6.209  0.00  0.00    -0.019 A 
ATOM      8  C   UNL     1       2.831  -2.716  -7.143  0.00  0.00    +0.006 A 
ATOM      9  C   UNL     1       4.083  -3.219  -7.460  0.00  0.00    +0.001 A 
ATOM     10  C   UNL     1       5.207  -2.720  -6.839  0.00  0.00    +0.015 A 
ATOM     11  C   UNL     1       5.087  -1.702  -5.891  0.00  0.00    +0.058 A 
ATOM     12  C   UNL     1       3.822  -1.183  -5.575  0.00  0.00    +0.044 A 
ATOM     13  N   UNL     1       3.724  -0.139  -4.657  0.00  0.00    -0.336 N 
ATOM     14  H   UNL     1       4.529   0.219  -4.251  0.00  0.00    +0.147 HD
ENDROOT
BRANCH   1  17
ATOM     15  C   UNL     1       0.283  -0.523  -1.319  0.00  0.00    +0.162 A 
ATOM     16  C   UNL     1       0.866   0.220  -2.334  0.00  0.00    +0.054 A 
ATOM     17  C   UNL     1       1.778  -0.373  -3.187  0.00  0.00    -0.023 A 
ATOM     18  C   UNL     1       2.111  -1.706  -3.032  0.00  0.00    +0.009 A 
ATOM     19  C   UNL     1       1.532  -2.452  -2.022  0.00  0.00    +0.049 A 
ATOM     20  C   UNL     1       0.622  -1.863  -1.159  0.00  0.00    +0.158 A 
BRANCH  15  22
ATOM     21  C   UNL     1      -0.913   1.438  -0.703  0.00  0.00    +0.277 C 
ATOM     22  O   UNL     1      -0.614   0.059  -0.478  0.00  0.00    -0.491 OA
ENDBRANCH  15  22
BRANCH  20  23
ATOM     23  O   UNL     1       0.057  -2.594  -0.161  0.00  0.00    -0.503 OA
ATOM     24  H   UNL     1      -0.764  -3.037  -0.415  0.00  0.00    +0.292 HD
ENDBRANCH  20  23
ENDBRANCH   1  17
BRANCH  11  25
ATOM     25  C   UNL     1       6.290  -1.173  -5.222  0.00  0.00    +0.246 C 
ATOM     26  O   UNL     1       6.177  -0.369  -4.316  0.00  0.00    -0.270 OA
ATOM     27  N   UNL     1       7.513  -1.580  -5.613  0.00  0.00    -0.308 N 
ATOM     28  H   UNL     1       7.603  -2.221  -6.335  0.00  0.00    +0.149 HD
BRANCH  27  29
ATOM     29  C   UNL     1       8.708  -1.054  -4.948  0.00  0.00    +0.073 C 
ATOM     30  C   UNL     1       9.105   0.277  -5.591  0.00  0.00    +0.022 C 
ATOM     31  C   UNL     1      10.353   0.826  -4.896  0.00  0.00    +0.002 C 
ATOM     32  C   UNL     1      11.501  -0.175  -5.043  0.00  0.00    +0.000 C 
ATOM     33  C   UNL     1      11.103  -1.505  -4.400  0.00  0.00    +0.002 C 
ATOM     34  C   UNL     1       9.856  -2.054  -5.095  0.00  0.00    +0.022 C 
ENDBRANCH  27  29
ENDBRANCH  11  25
TORSDOF 5
