REMARK  Name = ZINC61090796
REMARK  7 active torsions:
REMARK  status: ('A' for Active; 'I' for Inactive)
REMARK    1  A    between atoms: C_1  and  N_2
REMARK    2  A    between atoms: N_5  and  C_8
REMARK    3  A    between atoms: C_8  and  C_9
REMARK    4  A    between atoms: C_9  and  N_10
REMARK    5  A    between atoms: C_11  and  C_13
REMARK    6  A    between atoms: C_13  and  N_14
REMARK    7  A    between atoms: C_16  and  N_21
REMARK                            x       y       z     vdW  Elec       q    Type
REMARK                         _______ _______ _______ _____ _____    ______ ____
ROOT
ATOM      1  N   UNL     1       2.456  -5.907   1.080  0.00  0.00    -0.313 N 
ATOM      2  C   UNL     1       3.220  -6.548   1.986  0.00  0.00    +0.233 C 
ATOM      3  O   UNL     1       3.845  -5.914   2.810  0.00  0.00    -0.274 OA
ATOM      4  H   UNL     1       1.956  -6.414   0.421  0.00  0.00    +0.149 HD
ENDROOT
BRANCH   1   5
ATOM      5  C   UNL     1       2.381  -4.444   1.088  0.00  0.00    +0.119 C 
BRANCH   5   6
ATOM      6  C   UNL     1       1.453  -3.974  -0.034  0.00  0.00    +0.103 C 
BRANCH   6  11
ATOM      7  C   UNL     1      -0.018   1.465   0.010  0.00  0.00    -0.096 C 
ATOM      8  N   UNL     1       0.002  -0.004   0.002  0.00  0.00    +0.379 N 
ATOM      9  C   UNL     1       0.688  -0.477  -1.207  0.00  0.00    -0.064 C 
ATOM     10  C   UNL     1       0.693  -2.008  -1.226  0.00  0.00    +0.066 C 
ATOM     11  N   UNL     1       1.378  -2.507  -0.025  0.00  0.00    -0.304 NA
ATOM     12  C   UNL     1       0.717  -2.021   1.194  0.00  0.00    +0.066 C 
ATOM     13  C   UNL     1       0.713  -0.490   1.192  0.00  0.00    -0.064 C 
ATOM     14  H   UNL     1      -0.945  -0.353   0.010  0.00  0.00    -0.082 HD
ENDBRANCH   6  11
ENDBRANCH   5   6
ENDBRANCH   1   5
BRANCH   2  15
ATOM     15  C   UNL     1       3.296  -8.053   1.978  0.00  0.00    +0.220 C 
BRANCH  15  16
ATOM     16  N   UNL     1       4.185  -8.503   3.053  0.00  0.00    -0.305 N 
ATOM     17  C   UNL     1       5.514  -8.652   2.807  0.00  0.00    +0.112 A 
ATOM     18  C   UNL     1       6.356  -9.069   3.790  0.00  0.00    +0.041 A 
ATOM     19  C   UNL     1       5.851  -9.348   5.072  0.00  0.00    +0.029 A 
ATOM     20  C   UNL     1       4.516  -9.195   5.310  0.00  0.00    +0.072 A 
ATOM     21  C   UNL     1       3.676  -8.758   4.273  0.00  0.00    +0.252 A 
ATOM     22  O   UNL     1       2.481  -8.613   4.477  0.00  0.00    -0.268 OA
BRANCH  18  23
ATOM     23  N   UNL     1       7.726  -9.220   3.525  0.00  0.00    -0.357 N 
ATOM     24  H   UNL     1       8.073  -9.027   2.640  0.00  0.00    +0.142 HD
ATOM     25  H   UNL     1       8.325  -9.517   4.228  0.00  0.00    +0.142 HD
ENDBRANCH  18  23
ENDBRANCH  15  16
ENDBRANCH   2  15
TORSDOF 6
