REMARK  Name = ZINC50194655
REMARK  3 active torsions:
REMARK  status: ('A' for Active; 'I' for Inactive)
REMARK    1  A    between atoms: C_1  and  C_2
REMARK    2  A    between atoms: C_7  and  C_11
REMARK    3  A    between atoms: C_16  and  N_17
REMARK                            x       y       z     vdW  Elec       q    Type
REMARK                         _______ _______ _______ _____ _____    ______ ____
ROOT
ATOM      1  C   UNL     1       0.859  -5.152  -0.009  0.00  0.00    +0.043 A 
ATOM      2  C   UNL     1       2.015  -5.042   0.765  0.00  0.00    +0.033 A 
ATOM      3  C   UNL     1       2.967  -6.041   0.728  0.00  0.00    +0.043 A 
ATOM      4  C   UNL     1       2.781  -7.154  -0.075  0.00  0.00    +0.042 A 
ATOM      5  C   UNL     1       1.640  -7.275  -0.848  0.00  0.00    +0.064 A 
ATOM      6  C   UNL     1       0.671  -6.282  -0.817  0.00  0.00    +0.054 A 
ATOM      7 CL   UNL     1       1.418  -8.673  -1.853  0.00  0.00    -0.082 Cl
ATOM      8 CL   UNL     1       4.404  -5.902   1.693  0.00  0.00    -0.083 Cl
ENDROOT
BRANCH   1  15
ATOM      9  C   UNL     1      -0.150   1.465  -0.320  0.00  0.00    +0.066 C 
ATOM     10  C   UNL     1      -0.102  -0.038  -0.231  0.00  0.00    +0.043 A 
ATOM     11  C   UNL     1      -1.255  -0.742  -0.073  0.00  0.00    +0.071 A 
ATOM     12  C   UNL     1      -1.178  -2.147   0.007  0.00  0.00    +0.164 A 
ATOM     13  N   UNL     1      -2.062  -3.116   0.155  0.00  0.00    -0.129 NA
ATOM     14  N   UNL     1      -1.463  -4.255   0.166  0.00  0.00    -0.128 NA
ATOM     15  C   UNL     1      -0.163  -4.087   0.026  0.00  0.00    +0.172 A 
ATOM     16  N   UNL     1       0.063  -2.742  -0.080  0.00  0.00    -0.266 N 
ATOM     17  C   UNL     1       1.168  -1.969  -0.237  0.00  0.00    +0.207 A 
ATOM     18  N   UNL     1       1.073  -0.670  -0.314  0.00  0.00    -0.242 NA
ENDBRANCH   1  15
BRANCH   6  19
ATOM     19  N   UNL     1      -0.484  -6.406  -1.592  0.00  0.00    -0.356 N 
ATOM     20  H   UNL     1      -1.113  -5.670  -1.645  0.00  0.00    +0.142 HD
ATOM     21  H   UNL     1      -0.657  -7.228  -2.077  0.00  0.00    +0.142 HD
ENDBRANCH   6  19
TORSDOF 2
