REMARK  Name = ZINC02256778
REMARK  11 active torsions:
REMARK  status: ('A' for Active; 'I' for Inactive)
REMARK    1  A    between atoms: C_1  and  C_2
REMARK    2  A    between atoms: N_8  and  C_9
REMARK    3  A    between atoms: C_9  and  C_10
REMARK    4  A    between atoms: C_10  and  N_52
REMARK    5  A    between atoms: C_11  and  N_52
REMARK    6  A    between atoms: C_12  and  N_52
REMARK    7  A    between atoms: C_13  and  C_21
REMARK    8  A    between atoms: C_15  and  C_19
REMARK    9  A    between atoms: C_16  and  N_18
REMARK   10  A    between atoms: C_26  and  O_27
REMARK   11  A    between atoms: O_27  and  C_28
REMARK                            x       y       z     vdW  Elec       q    Type
REMARK                         _______ _______ _______ _____ _____    ______ ____
ROOT
ATOM      1  C   UNL     1       3.578  -0.869  -0.171  0.00  0.00    +0.064 C 
ATOM      2  C   UNL     1       2.322  -0.042  -0.084  0.00  0.00    +0.022 A 
ATOM      3  C   UNL     1       2.415   1.294   0.094  0.00  0.00    +0.068 A 
ATOM      4  C   UNL     1       1.242   2.073   0.176  0.00  0.00    +0.141 A 
ATOM      5  C   UNL     1       0.017   1.449   0.070  0.00  0.00    +0.072 A 
ATOM      6  C   UNL     1      -0.031   0.061  -0.115  0.00  0.00    +0.259 A 
ATOM      7  O   UNL     1      -1.109  -0.505  -0.211  0.00  0.00    -0.267 OA
ATOM      8  N   UNL     1       1.111  -0.649  -0.188  0.00  0.00    -0.314 N 
ATOM      9  C   UNL     1      -1.259   2.240   0.158  0.00  0.00    +0.107 C 
ATOM     10  C   UNL     1      -0.974   3.704  -0.051  0.00  0.00    +0.098 C 
ATOM     11  C   UNL     1       0.283   4.196   0.060  0.00  0.00    +0.199 C 
ATOM     12  O   UNL     1       1.332   3.408   0.355  0.00  0.00    -0.441 OA
ENDROOT
BRANCH   9  13
ATOM     13  C   UNL     1      -1.881   2.037   1.515  0.00  0.00    +0.007 A 
ATOM     14  C   UNL     1      -1.187   2.393   2.655  0.00  0.00    +0.008 A 
ATOM     15  C   UNL     1      -1.757   2.207   3.900  0.00  0.00    +0.001 A 
ATOM     16  C   UNL     1      -3.024   1.663   4.008  0.00  0.00    +0.004 A 
ATOM     17  C   UNL     1      -3.723   1.305   2.872  0.00  0.00    +0.046 A 
ATOM     18  C   UNL     1      -3.154   1.496   1.621  0.00  0.00    +0.124 A 
BRANCH  18  19
ATOM     19  O   UNL     1      -3.842   1.149   0.501  0.00  0.00    -0.495 OA
ATOM     20  C   UNL     1      -5.147   0.598   0.685  0.00  0.00    +0.277 C 
ENDBRANCH  18  19
ENDBRANCH   9  13
BRANCH  11  21
ATOM     21  N   UNL     1       0.492   5.538  -0.134  0.00  0.00    -0.328 N 
ATOM     22  H   UNL     1       1.386   5.906  -0.057  0.00  0.00    +0.145 HD
ATOM     23  H   UNL     1      -0.255   6.120  -0.347  0.00  0.00    +0.145 HD
ENDBRANCH  11  21
BRANCH  10  24
ATOM     24  C   UNL     1      -2.051   4.592  -0.366  0.00  0.00    +0.101 C 
ATOM     25  N   UNL     1      -2.906   5.298  -0.617  0.00  0.00    -0.191 NA
ENDBRANCH  10  24
BRANCH   8  26
ATOM     26  C   UNL     1       1.046  -2.100  -0.381  0.00  0.00    +0.106 C 
BRANCH  26  27
ATOM     27  C   UNL     1       0.996  -2.413  -1.878  0.00  0.00    -0.058 C 
BRANCH  27  30
ATOM     28  C   UNL     1      -0.333  -4.411  -1.559  0.00  0.00    -0.097 C 
ATOM     29  C   UNL     1       1.121  -4.219  -3.486  0.00  0.00    -0.097 C 
ATOM     30  N   UNL     1       0.953  -3.880  -2.057  0.00  0.00    +0.377 N 
ATOM     31  H   UNL     1       1.719  -4.304  -1.521  0.00  0.00    -0.083 HD
ENDBRANCH  27  30
ENDBRANCH  26  27
ENDBRANCH   8  26
TORSDOF 7
