REMARK  Name = ZINC62985589
REMARK  4 active torsions:
REMARK  status: ('A' for Active; 'I' for Inactive)
REMARK    1  A    between atoms: C_1  and  C_2
REMARK    2  A    between atoms: C_4  and  C_12
REMARK    3  A    between atoms: C_9  and  N_11
REMARK    4  A    between atoms: C_17  and  N_20
REMARK                            x       y       z     vdW  Elec       q    Type
REMARK                         _______ _______ _______ _____ _____    ______ ____
ROOT
ATOM      1  C   UNL     1       2.134   0.031  -1.266  0.00  0.00    +0.219 C 
ATOM      2  O   UNL     1       2.501   0.807  -0.410  0.00  0.00    -0.275 OA
ATOM      3  N   UNL     1       2.988  -0.361  -2.232  0.00  0.00    -0.300 N 
ATOM      4  C   UNL     1       2.646  -1.202  -3.389  0.00  0.00    +0.109 C 
ATOM      5  C   UNL     1       3.928  -1.364  -4.232  0.00  0.00    +0.039 C 
ATOM      6  C   UNL     1       4.782  -0.142  -3.805  0.00  0.00    +0.076 C 
ATOM      7  C   UNL     1       4.419  -0.014  -2.307  0.00  0.00    +0.126 C 
ENDROOT
BRANCH   1  10
ATOM      8  C   UNL     1      -0.011   1.433  -2.662  0.00  0.00    +0.006 C 
ATOM      9  C   UNL     1      -0.259   0.676  -1.356  0.00  0.00    -0.017 C 
ATOM     10  C   UNL     1       0.721  -0.494  -1.251  0.00  0.00    +0.076 C 
ATOM     11  C   UNL     1       0.473  -1.251   0.056  0.00  0.00    +0.013 C 
ATOM     12  C   UNL     1       0.679  -0.305   1.240  0.00  0.00    -0.001 C 
ATOM     13  C   UNL     1      -0.302   0.865   1.135  0.00  0.00    -0.016 C 
ATOM     14  C   UNL     1      -0.054   1.622  -0.171  0.00  0.00    -0.072 C 
BRANCH  14  15
ATOM     15  N   UNL     1      -0.996   2.745  -0.273  0.00  0.00    +0.380 N 
ATOM     16  H   UNL     1      -1.941   2.393  -0.262  0.00  0.00    -0.090 HD
ATOM     17  H   UNL     1      -0.860   3.369   0.508  0.00  0.00    -0.090 HD
ATOM     18  H   UNL     1      -0.832   3.244  -1.134  0.00  0.00    -0.090 HD
ENDBRANCH  14  15
ENDBRANCH   1  10
BRANCH   6  19
ATOM     19  N   UNL     1       6.215  -0.413  -3.980  0.00  0.00    -0.294 NA
ATOM     20  C   UNL     1       6.533  -0.677  -5.391  0.00  0.00    +0.113 C 
ATOM     21  C   UNL     1       8.021  -1.013  -5.520  0.00  0.00    +0.175 C 
ATOM     22  O   UNL     1       8.796   0.062  -4.983  0.00  0.00    -0.377 OA
ATOM     23  C   UNL     1       8.512   0.345  -3.610  0.00  0.00    +0.175 C 
ATOM     24  C   UNL     1       7.029   0.695  -3.462  0.00  0.00    +0.113 C 
ENDBRANCH   6  19
TORSDOF 3
