REMARK  Name = ZINC41035323
REMARK  3 active torsions:
REMARK  status: ('A' for Active; 'I' for Inactive)
REMARK    1  A    between atoms: C_1  and  C_2
REMARK    2  A    between atoms: C_7  and  C_9
REMARK    3  A    between atoms: C_7  and  N_23
REMARK                            x       y       z     vdW  Elec       q    Type
REMARK                         _______ _______ _______ _____ _____    ______ ____
ROOT
ATOM      1  C   UNL     1       2.674  -1.459   2.329  0.00  0.00    +0.097 A 
ATOM      2  N   UNL     1       3.977  -1.607   2.695  0.00  0.00    -0.343 N 
ATOM      3  H   UNL     1       4.740  -1.160   2.298  0.00  0.00    +0.167 HD
ATOM      4  C   UNL     1       4.009  -2.512   3.740  0.00  0.00    +0.070 A 
ATOM      5  C   UNL     1       5.025  -3.054   4.515  0.00  0.00    +0.077 A 
ATOM      6  C   UNL     1       4.724  -3.961   5.514  0.00  0.00    +0.164 A 
ATOM      7  C   UNL     1       3.400  -4.334   5.749  0.00  0.00    +0.164 A 
ATOM      8  C   UNL     1       2.381  -3.803   4.983  0.00  0.00    +0.079 A 
ATOM      9  C   UNL     1       2.675  -2.886   3.970  0.00  0.00    +0.093 A 
ATOM     10  N   UNL     1       1.913  -2.203   3.077  0.00  0.00    -0.234 NA
ATOM     11  O   UNL     1       3.092  -5.221   6.736  0.00  0.00    -0.485 OA
ATOM     12  C   UNL     1       4.168  -6.019   7.242  0.00  0.00    +0.270 C 
ATOM     13  C   UNL     1       5.369  -5.100   7.500  0.00  0.00    +0.270 C 
ATOM     14  O   UNL     1       5.736  -4.483   6.261  0.00  0.00    -0.485 OA
ENDROOT
BRANCH   1  20
ATOM     15  C   UNL     1      -0.019   1.524   0.010  0.00  0.00    +0.007 C 
ATOM     16  C   UNL     1       0.002  -0.004   0.002  0.00  0.00    -0.015 C 
ATOM     17  C   UNL     1       0.627  -0.525  -1.285  0.00  0.00    +0.003 C 
ATOM     18  C   UNL     1       2.141  -0.325  -1.273  0.00  0.00    -0.001 C 
ATOM     19  C   UNL     1       2.734  -1.097  -0.096  0.00  0.00    -0.005 C 
ATOM     20  C   UNL     1       2.185  -0.560   1.223  0.00  0.00    -0.011 C 
ATOM     21  C   UNL     1       0.666  -0.561   1.247  0.00  0.00    -0.002 C 
BRANCH  20  22
ATOM     22  N   UNL     1       2.717   0.786   1.476  0.00  0.00    +0.387 N 
ATOM     23  H   UNL     1       2.443   1.403   0.727  0.00  0.00    -0.089 HD
ATOM     24  H   UNL     1       2.350   1.133   2.349  0.00  0.00    -0.089 HD
ATOM     25  H   UNL     1       3.724   0.745   1.528  0.00  0.00    -0.089 HD
ENDBRANCH  20  22
ENDBRANCH   1  20
TORSDOF 2
