REMARK  Name = ZINC25477608
REMARK  12 active torsions:
REMARK  status: ('A' for Active; 'I' for Inactive)
REMARK    1  A    between atoms: C_1  and  C_2
REMARK    2  A    between atoms: C_2  and  C_3
REMARK    3  A    between atoms: C_2  and  C_4
REMARK    4  A    between atoms: C_2  and  C_5
REMARK    5  A    between atoms: C_7  and  C_13
REMARK    6  A    between atoms: C_8  and  O_12
REMARK    7  A    between atoms: C_9  and  O_11
REMARK    8  A    between atoms: C_13  and  N_14
REMARK    9  A    between atoms: N_14  and  C_15
REMARK   10  A    between atoms: N_14  and  C_16
REMARK   11  A    between atoms: C_16  and  C_17
REMARK   12  A    between atoms: C_21  and  C_23
REMARK                            x       y       z     vdW  Elec       q    Type
REMARK                         _______ _______ _______ _____ _____    ______ ____
ROOT
ATOM      1  C   UNL     1      -0.422   8.806  -4.808  0.00  0.00    -0.038 A 
ATOM      2  C   UNL     1      -0.621   8.407  -3.500  0.00  0.00    +0.009 A 
ATOM      3  C   UNL     1       0.378   7.739  -2.818  0.00  0.00    -0.019 A 
ATOM      4  C   UNL     1       1.585   7.473  -3.443  0.00  0.00    +0.160 A 
ATOM      5  C   UNL     1       1.784   7.869  -4.762  0.00  0.00    +0.159 A 
ATOM      6  C   UNL     1       0.778   8.539  -5.440  0.00  0.00    +0.053 A 
ENDROOT
BRANCH   1   8
ATOM      7  C   UNL     1      -1.851  10.833  -4.811  0.00  0.00    +0.015 C 
ATOM      8  C   UNL     1      -1.515   9.535  -5.547  0.00  0.00    -0.013 C 
ATOM      9  C   UNL     1      -1.042   9.861  -6.965  0.00  0.00    +0.015 C 
ATOM     10  C   UNL     1      -2.761   8.650  -5.616  0.00  0.00    +0.015 C 
ENDBRANCH   1   8
BRANCH   5  11
ATOM     11  O   UNL     1       2.966   7.606  -5.383  0.00  0.00    -0.503 OA
ATOM     12  H   UNL     1       3.121   7.920  -6.425  0.00  0.00    +0.292 HD
ENDBRANCH   5  11
BRANCH   4  13
ATOM     13  O   UNL     1       2.572   6.820  -2.772  0.00  0.00    -0.503 OA
ATOM     14  H   UNL     1       3.530   6.610  -3.270  0.00  0.00    +0.292 HD
ENDBRANCH   4  13
BRANCH   3  15
ATOM     15  C   UNL     1       0.157   7.305  -1.392  0.00  0.00    -0.039 C 
BRANCH  15  16
ATOM     16  N   UNL     1      -0.073   5.854  -1.351  0.00  0.00    +0.383 N 
ATOM     17  C   UNL     1      -1.331   5.502  -2.023  0.00  0.00    -0.095 C 
ATOM     18  H   UNL     1       0.749   5.367  -1.895  0.00  0.00    -0.081 HD
BRANCH  16  19
ATOM     19  C   UNL     1      -0.057   5.357   0.031  0.00  0.00    -0.043 C 
BRANCH  19  20
ATOM     20  C   UNL     1      -0.048   3.850   0.023  0.00  0.00    -0.063 A 
ATOM     21  C   UNL     1       1.155   3.167   0.008  0.00  0.00    +0.002 A 
ATOM     22  C   UNL     1       1.172   1.783   0.000  0.00  0.00    +0.001 A 
ATOM     23  C   UNL     1      -0.013   1.076   0.008  0.00  0.00    +0.019 A 
ATOM     24  C   UNL     1      -1.230   1.759   0.017  0.00  0.00    +0.052 A 
ATOM     25  C   UNL     1      -1.240   3.155   0.031  0.00  0.00    +0.020 A 
BRANCH  24  26
ATOM     26  C   UNL     1      -2.463   1.031   0.019  0.00  0.00    +0.099 C 
ATOM     27  N   UNL     1      -3.442   0.454   0.021  0.00  0.00    -0.191 NA
ENDBRANCH  24  26
ENDBRANCH  19  20
ENDBRANCH  16  19
ENDBRANCH  15  16
ENDBRANCH   3  15
TORSDOF 8
