REMARK  Name = ZINC49874859
REMARK  8 active torsions:
REMARK  status: ('A' for Active; 'I' for Inactive)
REMARK    1  A    between atoms: C_1  and  C_2
REMARK    2  A    between atoms: C_2  and  C_4
REMARK    3  A    between atoms: C_2  and  N_11
REMARK    4  A    between atoms: C_12  and  C_14
REMARK    5  A    between atoms: C_14  and  N_15
REMARK    6  A    between atoms: N_24  and  C_25
REMARK    7  A    between atoms: C_25  and  C_26
REMARK    8  A    between atoms: C_26  and  O_27
REMARK                            x       y       z     vdW  Elec       q    Type
REMARK                         _______ _______ _______ _____ _____    ______ ____
ROOT
ATOM      1  N   UNL     1       4.223  -1.127   2.126  0.00  0.00    -0.305 N 
ATOM      2  C   UNL     1       4.939  -2.188   1.596  0.00  0.00    +0.068 A 
ATOM      3  C   UNL     1       4.597  -3.464   1.175  0.00  0.00    +0.028 A 
ATOM      4  C   UNL     1       5.570  -4.308   0.682  0.00  0.00    +0.002 A 
ATOM      5  C   UNL     1       6.890  -3.889   0.605  0.00  0.00    +0.002 A 
ATOM      6  C   UNL     1       7.248  -2.626   1.019  0.00  0.00    +0.028 A 
ATOM      7  C   UNL     1       6.274  -1.759   1.520  0.00  0.00    +0.065 A 
ATOM      8  N   UNL     1       6.312  -0.486   1.995  0.00  0.00    -0.327 N 
ATOM      9  C   UNL     1       5.107  -0.111   2.346  0.00  0.00    +0.175 A 
ATOM     10  N   UNL     1       4.782   1.125   2.864  0.00  0.00    -0.314 N 
ATOM     11  H   UNL     1       3.863   1.324   3.102  0.00  0.00    +0.149 HD
ATOM     12  H   UNL     1       7.110   0.063   2.060  0.00  0.00    +0.169 HD
ENDROOT
BRANCH   1  13
ATOM     13  C   UNL     1       2.783  -1.099   2.395  0.00  0.00    +0.220 C 
BRANCH  13  15
ATOM     14  N   UNL     1       0.711  -0.489   1.189  0.00  0.00    -0.307 N 
ATOM     15  C   UNL     1       2.054  -0.600   1.174  0.00  0.00    +0.233 C 
ATOM     16  O   UNL     1       2.676  -0.297   0.177  0.00  0.00    -0.274 OA
ATOM     17  H   UNL     1       0.213  -0.731   1.986  0.00  0.00    +0.149 HD
BRANCH  14  19
ATOM     18  C   UNL     1      -0.019   1.526   0.010  0.00  0.00    +0.033 C 
ATOM     19  C   UNL     1       0.002  -0.004   0.002  0.00  0.00    +0.100 C 
BRANCH  19  20
ATOM     20  C   UNL     1      -1.412  -0.526   0.013  0.00  0.00    -0.027 A 
ATOM     21  C   UNL     1      -2.122  -0.571   1.198  0.00  0.00    +0.008 A 
ATOM     22  C   UNL     1      -3.419  -1.048   1.209  0.00  0.00    +0.038 A 
ATOM     23  C   UNL     1      -4.006  -1.482   0.032  0.00  0.00    +0.123 A 
ATOM     24  C   UNL     1      -3.294  -1.437  -1.154  0.00  0.00    +0.038 A 
ATOM     25  C   UNL     1      -1.999  -0.954  -1.163  0.00  0.00    +0.008 A 
ATOM     26  F   UNL     1      -5.274  -1.950   0.042  0.00  0.00    -0.205 F 
ENDBRANCH  19  20
ENDBRANCH  14  19
ENDBRANCH  13  15
ENDBRANCH   1  13
BRANCH  10  27
ATOM     27  C   UNL     1       5.823   2.137   3.054  0.00  0.00    +0.132 C 
BRANCH  27  28
ATOM     28  C   UNL     1       5.200   3.407   3.638  0.00  0.00    +0.174 C 
BRANCH  28  29
ATOM     29  O   UNL     1       4.697   3.132   4.947  0.00  0.00    -0.393 OA
ATOM     30  H   UNL     1       4.286   3.894   5.378  0.00  0.00    +0.209 HD
ENDBRANCH  28  29
ENDBRANCH  27  28
ENDBRANCH  10  27
TORSDOF 7
