REMARK  Name = ZINC51694713
REMARK  4 active torsions:
REMARK  status: ('A' for Active; 'I' for Inactive)
REMARK    1  A    between atoms: C_9  and  S_10
REMARK    2  A    between atoms: S_10  and  N_13
REMARK    3  A    between atoms: N_13  and  C_14
REMARK    4  A    between atoms: C_17  and  N_20
REMARK                            x       y       z     vdW  Elec       q    Type
REMARK                         _______ _______ _______ _____ _____    ______ ____
ROOT
ATOM      1  S   UNL     1       5.156  -0.478  -0.053  0.00  0.00    +0.078 S 
ATOM      2  O   UNL     1       5.814  -1.604  -0.617  0.00  0.00    -0.152 OA
ATOM      3  O   UNL     1       5.279   0.829  -0.598  0.00  0.00    -0.152 OA
ENDROOT
BRANCH   1  12
ATOM      4  C   UNL     1      -0.016   1.356   0.009  0.00  0.00    +0.005 A 
ATOM      5  C   UNL     1       1.194   2.068   0.002  0.00  0.00    +0.018 A 
ATOM      6  C   UNL     1       2.372   1.409  -0.013  0.00  0.00    +0.094 A 
ATOM      7  N   UNL     1       2.405   0.045  -0.022  0.00  0.00    -0.283 N 
ATOM      8  C   UNL     1       1.240  -0.677  -0.014  0.00  0.00    +0.141 A 
ATOM      9  C   UNL     1       0.002  -0.004   0.002  0.00  0.00    +0.047 A 
ATOM     10  N   UNL     1       1.555  -1.965  -0.024  0.00  0.00    -0.214 NA
ATOM     11  C   UNL     1       2.884  -2.091  -0.039  0.00  0.00    +0.175 A 
ATOM     12  C   UNL     1       3.435  -0.856  -0.037  0.00  0.00    +0.217 A 
ATOM     13 CL   UNL     1       3.760  -3.591  -0.056  0.00  0.00    -0.058 Cl
ENDBRANCH   1  12
BRANCH   1  14
ATOM     14  N   UNL     1       5.650  -0.381   1.524  0.00  0.00    -0.185 NA
ATOM     15  H   UNL     1       5.962   0.464   1.884  0.00  0.00    +0.148 HD
BRANCH  14  16
ATOM     16  C   UNL     1       5.617  -1.573   2.377  0.00  0.00    +0.076 C 
ATOM     17  C   UNL     1       4.309  -1.596   3.170  0.00  0.00    +0.019 C 
ATOM     18  C   UNL     1       4.220  -0.342   4.043  0.00  0.00    -0.015 C 
ATOM     19  C   UNL     1       5.403  -0.309   5.011  0.00  0.00    -0.075 C 
ATOM     20  C   UNL     1       6.711  -0.286   4.218  0.00  0.00    -0.015 C 
ATOM     21  C   UNL     1       6.801  -1.539   3.346  0.00  0.00    +0.019 C 
BRANCH  19  22
ATOM     22  N   UNL     1       5.317   0.895   5.849  0.00  0.00    +0.380 N 
ATOM     23  H   UNL     1       4.455   0.879   6.372  0.00  0.00    -0.090 HD
ATOM     24  H   UNL     1       6.098   0.917   6.488  0.00  0.00    -0.090 HD
ATOM     25  H   UNL     1       5.340   1.715   5.262  0.00  0.00    -0.090 HD
ENDBRANCH  19  22
ENDBRANCH  14  16
ENDBRANCH   1  14
TORSDOF 4
