REMARK  Name = ZINC50545270
REMARK  6 active torsions:
REMARK  status: ('A' for Active; 'I' for Inactive)
REMARK    1  A    between atoms: C_1  and  C_2
REMARK    2  A    between atoms: C_4  and  C_9
REMARK    3  A    between atoms: C_9  and  N_10
REMARK    4  A    between atoms: N_10  and  C_11
REMARK    5  A    between atoms: C_11  and  C_13
REMARK    6  A    between atoms: C_11  and  C_14
REMARK                            x       y       z     vdW  Elec       q    Type
REMARK                         _______ _______ _______ _____ _____    ______ ____
ROOT
ATOM      1  N   UNL     1       1.414  -3.040  -2.949  0.00  0.00    +0.386 N 
ATOM      2  H   UNL     1       1.877  -2.151  -3.066  0.00  0.00    -0.085 HD
ATOM      3  H   UNL     1       1.901  -3.583  -2.251  0.00  0.00    -0.085 HD
ENDROOT
BRANCH   1   4
ATOM      4  C   UNL     1       1.417  -3.766  -4.226  0.00  0.00    -0.043 C 
ATOM      5  C   UNL     1       0.790  -2.891  -5.312  0.00  0.00    -0.009 C 
BRANCH   4   6
ATOM      6  C   UNL     1       2.836  -4.103  -4.608  0.00  0.00    -0.058 A 
ATOM      7  C   UNL     1       3.845  -3.183  -4.394  0.00  0.00    +0.006 A 
ATOM      8  C   UNL     1       5.147  -3.487  -4.742  0.00  0.00    +0.050 A 
ATOM      9  C   UNL     1       5.444  -4.717  -5.308  0.00  0.00    +0.166 A 
ATOM     10  C   UNL     1       4.428  -5.644  -5.524  0.00  0.00    +0.166 A 
ATOM     11  C   UNL     1       3.126  -5.334  -5.167  0.00  0.00    +0.051 A 
ATOM     12  O   UNL     1       4.970  -6.763  -6.086  0.00  0.00    -0.453 OA
ATOM     13  C   UNL     1       6.258  -6.357  -6.587  0.00  0.00    +0.466 C 
ATOM     14  O   UNL     1       6.624  -5.255  -5.735  0.00  0.00    -0.453 OA
ENDBRANCH   4   6
ENDBRANCH   1   4
BRANCH   1  15
ATOM     15  C   UNL     1       0.028  -2.816  -2.516  0.00  0.00    -0.046 C 
BRANCH  15  19
ATOM     16  C   UNL     1      -0.018   1.503   0.010  0.00  0.00    +0.047 C 
ATOM     17  C   UNL     1       0.002  -0.004   0.002  0.00  0.00    -0.015 A 
ATOM     18  C   UNL     1       0.006  -0.689  -1.199  0.00  0.00    +0.008 A 
ATOM     19  C   UNL     1       0.025  -2.071  -1.206  0.00  0.00    -0.064 A 
ATOM     20  C   UNL     1       0.040  -2.770  -0.014  0.00  0.00    +0.004 A 
ATOM     21  C   UNL     1       0.036  -2.088   1.188  0.00  0.00    +0.039 A 
ATOM     22  C   UNL     1       0.023  -0.703   1.197  0.00  0.00    +0.126 A 
ATOM     23  F   UNL     1       0.025  -0.035   2.371  0.00  0.00    -0.205 F 
ENDBRANCH  15  19
ENDBRANCH   1  15
TORSDOF 4
