REMARK  Name = ZINC37500739
REMARK  7 active torsions:
REMARK  status: ('A' for Active; 'I' for Inactive)
REMARK    1  A    between atoms: C_1  and  C_2
REMARK    2  A    between atoms: C_2  and  C_4
REMARK    3  A    between atoms: C_2  and  N_13
REMARK    4  A    between atoms: N_6  and  C_7
REMARK    5  A    between atoms: N_13  and  C_14
REMARK    6  A    between atoms: C_14  and  C_15
REMARK    7  A    between atoms: C_15  and  C_16
REMARK                            x       y       z     vdW  Elec       q    Type
REMARK                         _______ _______ _______ _____ _____    ______ ____
ROOT
ATOM      1  C   UNL     1      -0.019   1.526   0.010  0.00  0.00    -0.004 C 
ATOM      2  C   UNL     1       0.002  -0.004   0.002  0.00  0.00    +0.013 C 
ENDROOT
BRANCH   2   3
ATOM      3  C   UNL     1       0.731  -0.503   1.223  0.00  0.00    +0.199 C 
ATOM      4  O   UNL     1       0.159  -1.213   2.023  0.00  0.00    -0.278 OA
ATOM      5  N   UNL     1       2.019  -0.161   1.426  0.00  0.00    -0.314 N 
ATOM      6  H   UNL     1       2.476   0.406   0.786  0.00  0.00    +0.149 HD
BRANCH   5   7
ATOM      7  C   UNL     1       2.727  -0.647   2.613  0.00  0.00    +0.073 C 
ATOM      8  C   UNL     1       2.446   0.287   3.792  0.00  0.00    +0.022 C 
ATOM      9  C   UNL     1       3.187  -0.220   5.031  0.00  0.00    +0.002 C 
ATOM     10  C   UNL     1       4.690  -0.249   4.751  0.00  0.00    +0.000 C 
ATOM     11  C   UNL     1       4.971  -1.183   3.572  0.00  0.00    +0.002 C 
ATOM     12  C   UNL     1       4.231  -0.676   2.332  0.00  0.00    +0.022 C 
ENDBRANCH   5   7
ENDBRANCH   2   3
BRANCH   2  13
ATOM     13  N   UNL     1      -1.376  -0.512   0.012  0.00  0.00    +0.386 N 
ATOM     14  H   UNL     1      -1.363  -1.518   0.090  0.00  0.00    -0.085 HD
ATOM     15  H   UNL     1      -1.873  -0.121   0.799  0.00  0.00    -0.085 HD
BRANCH  13  16
ATOM     16  C   UNL     1      -2.050  -0.126  -1.234  0.00  0.00    -0.081 C 
BRANCH  16  17
ATOM     17  C   UNL     1      -3.485  -0.656  -1.224  0.00  0.00    -0.016 C 
BRANCH  17  18
ATOM     18  C   UNL     1      -4.187  -0.253  -2.522  0.00  0.00    -0.013 C 
ATOM     19  C   UNL     1      -3.509  -0.947  -3.705  0.00  0.00    +0.003 C 
ATOM     20  C   UNL     1      -4.211  -0.545  -5.003  0.00  0.00    +0.000 C 
ATOM     21  C   UNL     1      -5.680  -0.965  -4.940  0.00  0.00    +0.000 C 
ATOM     22  C   UNL     1      -6.359  -0.271  -3.757  0.00  0.00    +0.000 C 
ATOM     23  C   UNL     1      -5.657  -0.674  -2.459  0.00  0.00    +0.003 C 
ENDBRANCH  17  18
ENDBRANCH  16  17
ENDBRANCH  13  16
ENDBRANCH   2  13
TORSDOF 6
