REMARK  Name = ZINC19992133
REMARK  7 active torsions:
REMARK  status: ('A' for Active; 'I' for Inactive)
REMARK    1  A    between atoms: C_1  and  O_2
REMARK    2  A    between atoms: O_2  and  C_3
REMARK    3  A    between atoms: C_6  and  N_21
REMARK    4  A    between atoms: C_8  and  O_9
REMARK    5  A    between atoms: O_9  and  C_10
REMARK    6  A    between atoms: C_10  and  C_11
REMARK    7  A    between atoms: N_13  and  C_14
REMARK                            x       y       z     vdW  Elec       q    Type
REMARK                         _______ _______ _______ _____ _____    ______ ____
ROOT
ATOM      1  O   UNL     1      -4.802   0.922   0.027  0.00  0.00    -0.479 OA
ENDROOT
BRANCH   1   7
ATOM      2  C   UNL     1      -3.648   3.007   0.030  0.00  0.00    +0.162 A 
ATOM      3  C   UNL     1      -2.456   3.713   0.021  0.00  0.00    +0.051 A 
ATOM      4  C   UNL     1      -1.251   3.037   0.006  0.00  0.00    +0.026 A 
ATOM      5  C   UNL     1      -1.232   1.649  -0.010  0.00  0.00    +0.028 A 
ATOM      6  C   UNL     1      -2.425   0.938  -0.001  0.00  0.00    +0.072 A 
ATOM      7  C   UNL     1      -3.633   1.616   0.019  0.00  0.00    +0.164 A 
BRANCH   5   8
ATOM      8  N   UNL     1      -0.011   0.965  -0.030  0.00  0.00    -0.358 N 
ATOM      9  H   UNL     1       0.004  -0.134  -0.043  0.00  0.00    +0.142 HD
ATOM     10  H   UNL     1       0.934   1.528  -0.032  0.00  0.00    +0.142 HD
ENDBRANCH   5   8
BRANCH   2  12
ATOM     11  C   UNL     1      -4.775   5.102   0.060  0.00  0.00    +0.277 C 
ATOM     12  O   UNL     1      -4.834   3.675   0.050  0.00  0.00    -0.491 OA
ENDBRANCH   2  12
ENDBRANCH   1   7
BRANCH   1  13
ATOM     13  C   UNL     1      -4.711  -0.504   0.014  0.00  0.00    +0.325 C 
BRANCH  13  14
ATOM     14  C   UNL     1      -6.097  -1.096   0.025  0.00  0.00    +0.255 C 
ATOM     15  O   UNL     1      -7.067  -0.368   0.043  0.00  0.00    -0.272 OA
ATOM     16  N   UNL     1      -6.258  -2.434   0.016  0.00  0.00    -0.283 N 
ATOM     17  H   UNL     1      -5.382  -3.093  -0.076  0.00  0.00    +0.155 HD
BRANCH  16  18
ATOM     18  C   UNL     1      -7.540  -2.985   0.125  0.00  0.00    +0.034 A 
ATOM     19  C   UNL     1      -7.728  -4.178   0.810  0.00  0.00    +0.024 A 
ATOM     20  C   UNL     1      -8.995  -4.717   0.920  0.00  0.00    +0.017 A 
ATOM     21  C   UNL     1     -10.074  -4.075   0.339  0.00  0.00    +0.018 A 
ATOM     22  C   UNL     1      -9.888  -2.889  -0.349  0.00  0.00    +0.017 A 
ATOM     23  C   UNL     1      -8.625  -2.343  -0.458  0.00  0.00    +0.024 A 
ATOM     24 BR   UNL     1     -11.806  -4.820   0.485  0.00  0.00    -0.050 Br
ENDBRANCH  16  18
ENDBRANCH  13  14
ENDBRANCH   1  13
TORSDOF 6
