REMARK  Name = ZINC32116367
REMARK  7 active torsions:
REMARK  status: ('A' for Active; 'I' for Inactive)
REMARK    1  A    between atoms: C_4  and  O_10
REMARK    2  A    between atoms: C_5  and  N_7
REMARK    3  A    between atoms: O_10  and  C_11
REMARK    4  A    between atoms: C_11  and  C_12
REMARK    5  A    between atoms: N_14  and  C_15
REMARK    6  A    between atoms: C_15  and  N_17
REMARK    7  A    between atoms: N_17  and  C_18
REMARK                            x       y       z     vdW  Elec       q    Type
REMARK                         _______ _______ _______ _____ _____    ______ ____
ROOT
ATOM      1  C   UNL     1      -2.487  -2.807  -0.794  0.00  0.00    +0.256 C 
ATOM      2  O   UNL     1      -3.458  -2.157  -1.116  0.00  0.00    -0.272 OA
ATOM      3  N   UNL     1      -2.633  -4.090  -0.407  0.00  0.00    -0.265 N 
ATOM      4  H   UNL     1      -1.752  -4.681  -0.115  0.00  0.00    +0.157 HD
ENDROOT
BRANCH   3   5
ATOM      5  C   UNL     1      -3.859  -4.650  -0.379  0.00  0.00    +0.141 C 
ATOM      6  S   UNL     1      -5.230  -3.731  -0.834  0.00  0.00    -0.018 S 
BRANCH   5   7
ATOM      7  N   UNL     1      -4.005  -5.933   0.007  0.00  0.00    -0.297 N 
ATOM      8  H   UNL     1      -3.119  -6.544   0.232  0.00  0.00    +0.154 HD
BRANCH   7   9
ATOM      9  C   UNL     1      -5.286  -6.488   0.121  0.00  0.00    +0.035 A 
ATOM     10  C   UNL     1      -5.615  -7.252   1.234  0.00  0.00    +0.042 A 
ATOM     11  C   UNL     1      -6.881  -7.794   1.349  0.00  0.00    +0.067 A 
ATOM     12  C   UNL     1      -7.819  -7.586   0.348  0.00  0.00    +0.207 A 
ATOM     13  C   UNL     1      -7.489  -6.828  -0.767  0.00  0.00    +0.067 A 
ATOM     14  C   UNL     1      -6.225  -6.280  -0.880  0.00  0.00    +0.042 A 
ATOM     15 BR   UNL     1      -8.768  -6.545  -2.130  0.00  0.00    -0.046 Br
ATOM     16  O   UNL     1      -9.063  -8.125   0.459  0.00  0.00    -0.286 OA
ATOM     17 BR   UNL     1      -7.332  -8.825   2.868  0.00  0.00    -0.046 Br
ENDBRANCH   7   9
ENDBRANCH   5   7
ENDBRANCH   3   5
BRANCH   1  18
ATOM     18  C   UNL     1      -1.117  -2.182  -0.825  0.00  0.00    +0.325 C 
BRANCH  18  19
ATOM     19  O   UNL     1      -1.222  -0.826  -1.264  0.00  0.00    -0.480 OA
BRANCH  19  23
ATOM     20  C   UNL     1       2.281   1.337  -1.523  0.00  0.00    +0.002 A 
ATOM     21  C   UNL     1       2.313   0.019  -1.104  0.00  0.00    +0.004 A 
ATOM     22  C   UNL     1       1.141  -0.707  -1.017  0.00  0.00    +0.048 A 
ATOM     23  C   UNL     1      -0.068  -0.113  -1.349  0.00  0.00    +0.151 A 
ATOM     24  C   UNL     1      -0.097   1.209  -1.769  0.00  0.00    +0.168 A 
ATOM     25  C   UNL     1       1.078   1.931  -1.855  0.00  0.00    +0.036 A 
BRANCH  24  26
ATOM     26  N   UNL     1      -1.384   1.843  -2.130  0.00  0.00    +0.060 N 
ATOM     27  O   UNL     1      -1.409   3.004  -2.498  0.00  0.00    -0.126 OA
ATOM     28  O   UNL     1      -2.419   1.204  -2.059  0.00  0.00    -0.126 OA
ENDBRANCH  24  26
ENDBRANCH  19  23
ENDBRANCH  18  19
ENDBRANCH   1  18
TORSDOF 7
