REMARK  Name = ZINC04888944
REMARK  7 active torsions:
REMARK  status: ('A' for Active; 'I' for Inactive)
REMARK    1  A    between atoms: C_1  and  C_2
REMARK    2  A    between atoms: C_4  and  N_5
REMARK    3  A    between atoms: N_5  and  N_6
REMARK    4  A    between atoms: C_7  and  C_8
REMARK    5  A    between atoms: C_11  and  O_16
REMARK    6  A    between atoms: C_12  and  O_14
REMARK    7  A    between atoms: O_14  and  C_15
REMARK                            x       y       z     vdW  Elec       q    Type
REMARK                         _______ _______ _______ _____ _____    ______ ____
ROOT
ATOM      1  N   UNL     1       0.030  -2.789  -2.357  0.00  0.00    -0.222 N 
ATOM      2  H   UNL     1       0.019  -2.303  -3.196  0.00  0.00    +0.176 HD
ENDROOT
BRANCH   1   6
ATOM      3  C   UNL     1      -0.018   1.503   0.010  0.00  0.00    +0.044 C 
ATOM      4  C   UNL     1       0.002  -0.004   0.002  0.00  0.00    -0.038 A 
ATOM      5  C   UNL     1       0.006  -0.696  -1.171  0.00  0.00    +0.047 A 
ATOM      6  C   UNL     1       0.026  -2.099  -1.155  0.00  0.00    +0.116 A 
ATOM      7  N   UNL     1       0.041  -2.775  -0.024  0.00  0.00    -0.342 N 
ATOM      8  H   UNL     1       0.055  -3.744  -0.049  0.00  0.00    +0.167 HD
ATOM      9  C   UNL     1       0.038  -2.149   1.158  0.00  0.00    +0.048 A 
ATOM     10  C   UNL     1       0.023  -0.734   1.208  0.00  0.00    +0.001 A 
ATOM     11  C   UNL     1       0.025  -0.084   2.452  0.00  0.00    +0.010 A 
ATOM     12  C   UNL     1       0.046  -0.821   3.597  0.00  0.00    +0.001 A 
ATOM     13  C   UNL     1       0.065  -2.213   3.551  0.00  0.00    +0.002 A 
ATOM     14  C   UNL     1       0.054  -2.876   2.361  0.00  0.00    +0.026 A 
ENDBRANCH   1   6
BRANCH   1  15
ATOM     15  N   UNL     1       0.049  -4.190  -2.360  0.00  0.00    -0.189 NA
ATOM     16  C   UNL     1       0.053  -4.837  -3.485  0.00  0.00    +0.138 C 
BRANCH  16  17
ATOM     17  C   UNL     1       0.073  -6.311  -3.488  0.00  0.00    -0.002 A 
ATOM     18  C   UNL     1       0.083  -7.014  -2.280  0.00  0.00    +0.013 A 
ATOM     19  C   UNL     1       0.102  -8.393  -2.285  0.00  0.00    +0.050 A 
ATOM     20  C   UNL     1       0.112  -9.085  -3.487  0.00  0.00    +0.158 A 
ATOM     21  C   UNL     1       0.102  -8.392  -4.695  0.00  0.00    +0.162 A 
ATOM     22  C   UNL     1       0.077  -7.010  -4.698  0.00  0.00    +0.058 A 
BRANCH  21  23
ATOM     23  O   UNL     1       0.112  -9.074  -5.871  0.00  0.00    -0.491 OA
ATOM     24  C   UNL     1       0.102  -8.299  -7.071  0.00  0.00    +0.277 C 
ENDBRANCH  21  23
BRANCH  20  25
ATOM     25  O   UNL     1       0.132 -10.445  -3.486  0.00  0.00    -0.503 OA
ATOM     26  H   UNL     1      -0.746 -10.851  -3.485  0.00  0.00    +0.292 HD
ENDBRANCH  20  25
ENDBRANCH  16  17
ENDBRANCH   1  15
TORSDOF 5
