REMARK  Name = ZINC39698425
REMARK  6 active torsions:
REMARK  status: ('A' for Active; 'I' for Inactive)
REMARK    1  A    between atoms: C_1  and  C_2
REMARK    2  A    between atoms: C_2  and  C_24
REMARK    3  A    between atoms: N_5  and  N_6
REMARK    4  A    between atoms: C_7  and  C_9
REMARK    5  A    between atoms: C_20  and  C_22
REMARK    6  A    between atoms: C_20  and  C_23
REMARK                            x       y       z     vdW  Elec       q    Type
REMARK                         _______ _______ _______ _____ _____    ______ ____
ROOT
ATOM      1  C   UNL     1      -0.008   1.538   0.001  0.00  0.00    -0.010 C 
ATOM      2  C   UNL     1       0.009  -0.008  -0.005  0.00  0.00    -0.068 C 
ATOM      3  C   UNL     1      -1.446  -0.481  -0.043  0.00  0.00    +0.039 C 
ATOM      4  C   UNL     1      -1.474  -1.957   0.287  0.00  0.00    +0.034 C 
ATOM      5  N   UNL     1      -2.014  -2.813  -0.491  0.00  0.00    -0.189 NA
ATOM      6  C   UNL     1      -0.827  -2.359   1.594  0.00  0.00    +0.039 C 
ATOM      7  C   UNL     1       0.609  -1.832   1.610  0.00  0.00    -0.068 C 
ATOM      8  N   UNL     1       0.719  -0.450   1.181  0.00  0.00    +0.386 N 
ATOM      9  C   UNL     1       1.501  -2.756   0.773  0.00  0.00    -0.010 C 
ATOM     10  C   UNL     1       1.114  -1.915   3.069  0.00  0.00    -0.010 C 
ATOM     11  C   UNL     1       0.722  -0.446  -1.288  0.00  0.00    -0.010 C 
ATOM     12  H   UNL     1       1.714  -0.235   1.054  0.00  0.00    -0.084 HD
ATOM     13  H   UNL     1       0.430   0.148   1.964  0.00  0.00    -0.084 HD
ENDROOT
BRANCH   5  14
ATOM     14  N   UNL     1      -1.923  -4.181  -0.199  0.00  0.00    -0.205 N 
ATOM     15  C   UNL     1      -2.401  -5.089  -1.073  0.00  0.00    +0.263 C 
ATOM     16  O   UNL     1      -2.910  -4.723  -2.111  0.00  0.00    -0.271 OA
ATOM     17  H   UNL     1      -1.516  -4.473   0.631  0.00  0.00    +0.177 HD
BRANCH  15  18
ATOM     18  C   UNL     1      -2.303  -6.560  -0.759  0.00  0.00    +0.243 C 
ATOM     19  C   UNL     1      -3.433  -6.992   0.139  0.00  0.00    -0.012 C 
ATOM     20  C   UNL     1      -4.109  -7.901  -0.571  0.00  0.00    +0.065 C 
ATOM     21  C   UNL     1      -5.339  -8.608  -0.046  0.00  0.00    +0.057 C 
ATOM     22  C   UNL     1      -5.382  -8.444   1.477  0.00  0.00    +0.006 C 
ATOM     23  C   UNL     1      -5.210  -6.967   1.843  0.00  0.00    +0.005 C 
ATOM     24  C   UNL     1      -3.771  -6.534   1.527  0.00  0.00    +0.035 C 
ATOM     25  N   UNL     1      -3.529  -8.068  -1.780  0.00  0.00    -0.158 NA
ATOM     26  N   UNL     1      -2.522  -7.370  -1.973  0.00  0.00    -0.170 NA
ENDBRANCH  15  18
ENDBRANCH   5  14
TORSDOF 2
