REMARK  Name = ZINC42073344
REMARK  5 active torsions:
REMARK  status: ('A' for Active; 'I' for Inactive)
REMARK    1  A    between atoms: C_1  and  C_2
REMARK    2  A    between atoms: C_4  and  C_21
REMARK    3  A    between atoms: C_8  and  N_13
REMARK    4  A    between atoms: N_13  and  C_14
REMARK    5  A    between atoms: C_17  and  C_20
REMARK                            x       y       z     vdW  Elec       q    Type
REMARK                         _______ _______ _______ _____ _____    ______ ____
ROOT
ATOM      1  C   UNL     1      -0.018   1.503   0.010  0.00  0.00    +0.044 C 
ATOM      2  C   UNL     1       0.002  -0.004   0.002  0.00  0.00    -0.050 A 
ATOM      3  C   UNL     1       0.006  -0.691  -1.198  0.00  0.00    +0.008 A 
ATOM      4  C   UNL     1       0.025  -2.070  -1.213  0.00  0.00    -0.029 A 
ATOM      5  C   UNL     1       0.040  -2.782  -0.015  0.00  0.00    +0.038 A 
ATOM      6  C   UNL     1       0.037  -2.081   1.184  0.00  0.00    -0.031 A 
ATOM      7  C   UNL     1       0.023  -0.704   1.196  0.00  0.00    +0.007 A 
ATOM      8  C   UNL     1       0.056  -3.118   2.283  0.00  0.00    +0.049 C 
ATOM      9  C   UNL     1       0.071  -4.439   1.543  0.00  0.00    +0.208 C 
ATOM     10  O   UNL     1       0.088  -5.544   2.042  0.00  0.00    -0.277 OA
ATOM     11  N   UNL     1       0.060  -4.156   0.229  0.00  0.00    -0.286 N 
ATOM     12  C   UNL     1       0.028  -2.808  -2.527  0.00  0.00    +0.045 C 
ATOM     13  H   UNL     1       0.066  -4.829  -0.469  0.00  0.00    +0.155 HD
ENDROOT
BRANCH   8  14
ATOM     14  N   UNL     1       1.265  -2.973   3.106  0.00  0.00    +0.391 N 
ATOM     15  H   UNL     1       2.079  -3.174   2.546  0.00  0.00    -0.084 HD
ATOM     16  H   UNL     1       1.322  -2.028   3.456  0.00  0.00    -0.084 HD
BRANCH  14  17
ATOM     17  C   UNL     1       1.203  -3.910   4.236  0.00  0.00    -0.070 C 
ATOM     18  C   UNL     1       0.040  -3.528   5.153  0.00  0.00    -0.015 C 
ATOM     19  C   UNL     1      -0.024  -4.504   6.330  0.00  0.00    +0.002 C 
ATOM     20  C   UNL     1       1.287  -4.442   7.115  0.00  0.00    -0.014 C 
ATOM     21  C   UNL     1       2.450  -4.824   6.198  0.00  0.00    +0.002 C 
ATOM     22  C   UNL     1       2.514  -3.848   5.021  0.00  0.00    -0.015 C 
ATOM     23  C   UNL     1       1.500  -3.021   7.642  0.00  0.00    +0.007 C 
ENDBRANCH  14  17
ENDBRANCH   8  14
TORSDOF 2
