REMARK  Name = ZINC67411610
REMARK  10 active torsions:
REMARK  status: ('A' for Active; 'I' for Inactive)
REMARK    1  A    between atoms: C_1  and  C_2
REMARK    2  A    between atoms: C_5  and  C_8
REMARK    3  A    between atoms: C_8  and  C_10
REMARK    4  A    between atoms: C_8  and  N_25
REMARK    5  A    between atoms: C_10  and  N_11
REMARK    6  A    between atoms: N_14  and  N_15
REMARK    7  A    between atoms: C_16  and  C_18
REMARK    8  A    between atoms: C_22  and  C_24
REMARK    9  A    between atoms: N_25  and  C_26
REMARK   10  A    between atoms: N_25  and  C_27
REMARK                            x       y       z     vdW  Elec       q    Type
REMARK                         _______ _______ _______ _____ _____    ______ ____
ROOT
ATOM      1  N   UNL     1      -1.116  -6.359   0.374  0.00  0.00    -0.299 N 
ATOM      2  C   UNL     1      -2.198  -7.131   0.594  0.00  0.00    +0.316 C 
ATOM      3  O   UNL     1      -3.280  -6.617   0.800  0.00  0.00    -0.251 OA
ATOM      4  N   UNL     1      -2.080  -8.474   0.587  0.00  0.00    -0.218 N 
ATOM      5  H   UNL     1      -0.252  -6.769   0.210  0.00  0.00    +0.150 HD
ATOM      6  H   UNL     1      -2.858  -9.030   0.745  0.00  0.00    +0.174 HD
ENDROOT
BRANCH   4   7
ATOM      7  N   UNL     1      -0.832  -9.066   0.350  0.00  0.00    -0.229 N 
ATOM      8  C   UNL     1      -0.715 -10.409   0.342  0.00  0.00    +0.260 C 
ATOM      9  O   UNL     1      -1.690 -11.106   0.541  0.00  0.00    -0.269 OA
ATOM     10  H   UNL     1      -0.054  -8.510   0.191  0.00  0.00    +0.173 HD
BRANCH   8  11
ATOM     11  C   UNL     1       0.602 -11.034   0.092  0.00  0.00    +0.038 A 
ATOM     12  C   UNL     1       1.726 -10.236  -0.131  0.00  0.00    +0.013 A 
ATOM     13  C   UNL     1       2.951 -10.826  -0.363  0.00  0.00    +0.001 A 
ATOM     14  C   UNL     1       3.067 -12.204  -0.376  0.00  0.00    +0.003 A 
ATOM     15  C   UNL     1       1.958 -13.001  -0.156  0.00  0.00    -0.050 A 
ATOM     16  C   UNL     1       0.727 -12.424   0.084  0.00  0.00    +0.016 A 
ATOM     17  C   UNL     1       2.094 -14.501  -0.173  0.00  0.00    +0.044 C 
ENDBRANCH   8  11
ENDBRANCH   4   7
BRANCH   1  18
ATOM     18  C   UNL     1      -1.244  -4.899   0.382  0.00  0.00    +0.095 C 
BRANCH  18  19
ATOM     19  C   UNL     1       0.090  -4.268  -0.022  0.00  0.00    -0.021 C 
BRANCH  19  24
ATOM     20  C   UNL     1       1.298  -5.663  -5.498  0.00  0.00    +0.044 C 
ATOM     21  C   UNL     1       0.983  -5.299  -4.070  0.00  0.00    -0.050 A 
ATOM     22  C   UNL     1       1.585  -5.987  -3.033  0.00  0.00    +0.003 A 
ATOM     23  C   UNL     1       1.296  -5.653  -1.723  0.00  0.00    +0.002 A 
ATOM     24  C   UNL     1       0.406  -4.631  -1.450  0.00  0.00    -0.059 A 
ATOM     25  C   UNL     1      -0.196  -3.943  -2.487  0.00  0.00    +0.002 A 
ATOM     26  C   UNL     1       0.097  -4.274  -3.797  0.00  0.00    +0.003 A 
ENDBRANCH  19  24
BRANCH  19  27
ATOM     27  N   UNL     1      -0.002  -2.807   0.103  0.00  0.00    +0.382 N 
ATOM     28  C   UNL     1      -0.292  -2.452   1.498  0.00  0.00    -0.096 C 
ATOM     29  C   UNL     1       1.273  -2.200  -0.302  0.00  0.00    -0.096 C 
ATOM     30  H   UNL     1      -0.742  -2.465  -0.492  0.00  0.00    -0.082 HD
ENDBRANCH  19  27
ENDBRANCH  18  19
ENDBRANCH   1  18
TORSDOF 6
