REMARK  Name = ZINC61317031
REMARK  6 active torsions:
REMARK  status: ('A' for Active; 'I' for Inactive)
REMARK    1  A    between atoms: C_1  and  C_2
REMARK    2  A    between atoms: C_2  and  C_3
REMARK    3  A    between atoms: C_2  and  C_4
REMARK    4  A    between atoms: C_2  and  N_20
REMARK    5  A    between atoms: C_10  and  C_12
REMARK    6  A    between atoms: N_20  and  C_21
REMARK                            x       y       z     vdW  Elec       q    Type
REMARK                         _______ _______ _______ _____ _____    ______ ____
ROOT
ATOM      1  C   UNL     1      -1.395  -0.396   0.279  0.00  0.00    +0.205 C 
ATOM      2  O   UNL     1      -1.727  -0.766   1.385  0.00  0.00    -0.277 OA
ATOM      3  N   UNL     1      -2.300  -0.355  -0.719  0.00  0.00    -0.291 N 
ATOM      4  C   UNL     1      -2.010  -0.041  -2.130  0.00  0.00    +0.108 C 
ATOM      5  C   UNL     1      -3.158  -0.708  -2.928  0.00  0.00    +0.021 C 
ATOM      6  C   UNL     1      -4.368  -0.481  -1.983  0.00  0.00    +0.033 C 
ATOM      7  C   UNL     1      -3.739  -0.621  -0.581  0.00  0.00    +0.162 C 
ENDROOT
BRANCH   7   8
ATOM      8  C   UNL     1      -3.954  -2.018  -0.058  0.00  0.00    +0.236 C 
ATOM      9  O   UNL     1      -3.001  -2.730   0.180  0.00  0.00    -0.274 OA
ATOM     10  N   UNL     1      -5.205  -2.477   0.146  0.00  0.00    -0.296 N 
ATOM     11  C   UNL     1      -6.377  -1.634  -0.141  0.00  0.00    +0.136 C 
ATOM     12  C   UNL     1      -7.346  -2.437  -1.016  0.00  0.00    +0.179 C 
ATOM     13  O   UNL     1      -7.608  -3.698  -0.394  0.00  0.00    -0.377 OA
ATOM     14  C   UNL     1      -6.455  -4.531  -0.252  0.00  0.00    +0.179 C 
ATOM     15  C   UNL     1      -5.439  -3.837   0.657  0.00  0.00    +0.136 C 
ENDBRANCH   7   8
BRANCH   1  17
ATOM     16  C   UNL     1       0.725   0.317   1.351  0.00  0.00    -0.001 C 
ATOM     17  C   UNL     1       0.031   0.018   0.020  0.00  0.00    +0.004 C 
ATOM     18  C   UNL     1       0.769  -1.113  -0.697  0.00  0.00    -0.001 C 
BRANCH  17  19
ATOM     19  N   UNL     1       0.046   1.223  -0.821  0.00  0.00    +0.386 N 
ATOM     20  C   UNL     1       1.425   1.710  -0.954  0.00  0.00    -0.099 C 
ATOM     21  H   UNL     1      -0.322   1.000  -1.734  0.00  0.00    -0.085 HD
ATOM     22  H   UNL     1      -0.524   1.938  -0.394  0.00  0.00    -0.085 HD
ENDBRANCH  17  19
ENDBRANCH   1  17
TORSDOF 3
