REMARK  Name = ZINC17222924
REMARK  10 active torsions:
REMARK  status: ('A' for Active; 'I' for Inactive)
REMARK    1  A    between atoms: C_1  and  C_2
REMARK    2  A    between atoms: N_5  and  N_6
REMARK    3  A    between atoms: N_6  and  C_7
REMARK    4  A    between atoms: C_7  and  N_9
REMARK    5  A    between atoms: C_10  and  C_16
REMARK    6  A    between atoms: C_12  and  C_14
REMARK    7  A    between atoms: C_12  and  C_15
REMARK    8  A    between atoms: C_16  and  C_17
REMARK    9  A    between atoms: C_16  and  C_21
REMARK   10  A    between atoms: C_16  and  O_25
REMARK                            x       y       z     vdW  Elec       q    Type
REMARK                         _______ _______ _______ _____ _____    ______ ____
ROOT
ATOM      1  C   UNL     1       0.386  -1.306   2.311  0.00  0.00    +0.039 C 
ATOM      2  C   UNL     1       0.085   0.168   2.216  0.00  0.00    -0.070 C 
ATOM      3  C   UNL     1       0.846   1.010   2.898  0.00  0.00    +0.024 C 
ATOM      4  C   UNL     1       0.590   2.458   2.849  0.00  0.00    +0.066 C 
ATOM      5  N   UNL     1       1.179   3.273   3.672  0.00  0.00    -0.185 NA
ATOM      6  C   UNL     1      -0.384   2.966   1.805  0.00  0.00    +0.095 C 
ATOM      7  C   UNL     1      -1.568   1.990   1.771  0.00  0.00    -0.020 C 
ATOM      8  C   UNL     1      -1.061   0.608   1.355  0.00  0.00    +0.037 C 
ATOM      9  C   UNL     1      -2.201   1.905   3.161  0.00  0.00    +0.012 C 
ATOM     10  C   UNL     1      -2.608   2.481   0.762  0.00  0.00    +0.012 C 
ENDROOT
BRANCH   5  11
ATOM     11  N   UNL     1       0.918   4.648   3.603  0.00  0.00    -0.218 N 
ATOM     12  H   UNL     1       0.298   4.992   2.941  0.00  0.00    +0.176 HD
BRANCH  11  13
ATOM     13  C   UNL     1       1.530   5.494   4.456  0.00  0.00    +0.147 C 
ATOM     14  S   UNL     1       1.211   7.174   4.372  0.00  0.00    -0.017 S 
BRANCH  13  15
ATOM     15  N   UNL     1       2.392   5.017   5.375  0.00  0.00    -0.339 N 
ATOM     16  H   UNL     1       2.572   4.065   5.423  0.00  0.00    +0.144 HD
ATOM     17  H   UNL     1       2.832   5.625   5.990  0.00  0.00    +0.144 HD
ENDBRANCH  13  15
ENDBRANCH  11  13
ENDBRANCH   5  11
BRANCH   6  18
ATOM     18  C   UNL     1       0.296   3.007   0.435  0.00  0.00    +0.265 C 
BRANCH  18  19
ATOM     19  C   UNL     1       1.617   3.772   0.544  0.00  0.00    +0.427 C 
ATOM     20  F   UNL     1       2.239   3.810  -0.708  0.00  0.00    -0.167 F 
ATOM     21  F   UNL     1       1.366   5.077   0.980  0.00  0.00    -0.167 F 
ATOM     22  F   UNL     1       2.455   3.128   1.461  0.00  0.00    -0.167 F 
ENDBRANCH  18  19
BRANCH  18  23
ATOM     23  C   UNL     1      -0.619   3.712  -0.568  0.00  0.00    +0.427 C 
ATOM     24  F   UNL     1      -1.546   2.796  -1.077  0.00  0.00    -0.167 F 
ATOM     25  F   UNL     1      -1.298   4.754   0.073  0.00  0.00    -0.167 F 
ATOM     26  F   UNL     1       0.148   4.231  -1.616  0.00  0.00    -0.167 F 
ENDBRANCH  18  23
BRANCH  18  27
ATOM     27  O   UNL     1       0.553   1.674  -0.010  0.00  0.00    -0.373 OA
ATOM     28  H   UNL     1       1.129   1.167   0.579  0.00  0.00    +0.211 HD
ENDBRANCH  18  27
ENDBRANCH   6  18
TORSDOF 7
