REMARK  Name = ZINC38153586
REMARK  8 active torsions:
REMARK  status: ('A' for Active; 'I' for Inactive)
REMARK    1  A    between atoms: C_1  and  C_2
REMARK    2  A    between atoms: C_7  and  C_8
REMARK    3  A    between atoms: C_7  and  C_9
REMARK    4  A    between atoms: N_12  and  C_15
REMARK    5  A    between atoms: C_15  and  C_16
REMARK    6  A    between atoms: C_16  and  C_18
REMARK    7  A    between atoms: C_16  and  O_25
REMARK    8  A    between atoms: C_18  and  N_19
REMARK                            x       y       z     vdW  Elec       q    Type
REMARK                         _______ _______ _______ _____ _____    ______ ____
ROOT
ATOM      1  C   UNL     1       0.051   1.798  -0.301  0.00  0.00    +0.021 C 
ATOM      2  C   UNL     1       0.020   0.270  -0.232  0.00  0.00    +0.051 C 
ATOM      3  C   UNL     1      -1.414  -0.306  -0.148  0.00  0.00    +0.017 C 
ATOM      4  C   UNL     1      -1.299  -1.618   0.651  0.00  0.00    +0.014 C 
ATOM      5  C   UNL     1       0.200  -1.768   1.010  0.00  0.00    +0.082 C 
ATOM      6  C   UNL     1       0.704  -0.298   1.044  0.00  0.00    -0.010 C 
ATOM      7  C   UNL     1       2.229  -0.234   0.928  0.00  0.00    +0.012 C 
ATOM      8  C   UNL     1       0.217   0.425   2.301  0.00  0.00    +0.012 C 
ATOM      9  C   UNL     1       0.873  -2.435  -0.175  0.00  0.00    +0.226 C 
ATOM     10  O   UNL     1       1.206  -3.599  -0.113  0.00  0.00    -0.275 OA
ATOM     11  N   UNL     1       1.097  -1.726  -1.297  0.00  0.00    -0.239 N 
ATOM     12  C   UNL     1       0.716  -0.392  -1.408  0.00  0.00    +0.228 C 
ATOM     13  O   UNL     1       0.895   0.225  -2.436  0.00  0.00    -0.275 OA
ENDROOT
BRANCH  11  14
ATOM     14  C   UNL     1       1.796  -2.368  -2.413  0.00  0.00    +0.145 C 
BRANCH  14  15
ATOM     15  C   UNL     1       0.776  -3.037  -3.336  0.00  0.00    +0.116 C 
BRANCH  15  16
ATOM     16  O   UNL     1       0.043  -4.021  -2.603  0.00  0.00    -0.392 OA
ATOM     17  H   UNL     1       0.593  -4.723  -2.229  0.00  0.00    +0.210 HD
ENDBRANCH  15  16
BRANCH  15  18
ATOM     18  C   UNL     1       1.505  -3.708  -4.502  0.00  0.00    -0.046 C 
BRANCH  18  19
ATOM     19  N   UNL     1       0.524  -4.338  -5.396  0.00  0.00    +0.381 N 
ATOM     20  C   UNL     1       1.229  -5.110  -6.427  0.00  0.00    -0.079 C 
ATOM     21  C   UNL     1       0.212  -5.833  -7.312  0.00  0.00    -0.019 C 
ATOM     22  C   UNL     1      -0.701  -4.800  -7.980  0.00  0.00    -0.004 C 
ATOM     23  C   UNL     1      -1.374  -3.952  -6.897  0.00  0.00    -0.019 C 
ATOM     24  C   UNL     1      -0.298  -3.298  -6.027  0.00  0.00    -0.079 C 
ATOM     25  H   UNL     1      -0.068  -4.955  -4.862  0.00  0.00    -0.082 HD
ENDBRANCH  18  19
ENDBRANCH  15  18
ENDBRANCH  14  15
ENDBRANCH  11  14
TORSDOF 5
