REMARK  Name = ZINC33262650
REMARK  6 active torsions:
REMARK  status: ('A' for Active; 'I' for Inactive)
REMARK    1  A    between atoms: C_1  and  C_2
REMARK    2  A    between atoms: C_2  and  C_3
REMARK    3  A    between atoms: C_3  and  N_4
REMARK    4  A    between atoms: C_5  and  C_7
REMARK    5  A    between atoms: C_7  and  N_8
REMARK    6  A    between atoms: C_11  and  C_18
REMARK                            x       y       z     vdW  Elec       q    Type
REMARK                         _______ _______ _______ _____ _____    ______ ____
ROOT
ATOM      1  N   UNL     1       3.686  -0.283  -0.744  0.00  0.00    -0.265 N 
ATOM      2  C   UNL     1       2.373   0.060  -0.418  0.00  0.00    +0.091 A 
ATOM      3  C   UNL     1       1.187  -0.650  -0.397  0.00  0.00    +0.042 A 
ATOM      4  C   UNL     1       0.006  -0.011  -0.015  0.00  0.00    +0.039 A 
ATOM      5  C   UNL     1       0.029   1.340   0.343  0.00  0.00    +0.017 A 
ATOM      6  C   UNL     1       1.214   2.042   0.320  0.00  0.00    +0.049 A 
ATOM      7  C   UNL     1       2.391   1.410  -0.060  0.00  0.00    +0.157 A 
ATOM      8  O   UNL     1       3.671   1.838  -0.173  0.00  0.00    -0.407 OA
ATOM      9  C   UNL     1       4.444   0.820  -0.584  0.00  0.00    +0.422 A 
ATOM     10  O   UNL     1       5.642   0.884  -0.780  0.00  0.00    -0.223 OA
ENDROOT
BRANCH   4  11
ATOM     11  C   UNL     1      -1.266  -0.761   0.011  0.00  0.00    +0.247 C 
ATOM     12  O   UNL     1      -2.284  -0.245  -0.407  0.00  0.00    -0.270 OA
ATOM     13  N   UNL     1      -1.297  -2.018   0.497  0.00  0.00    -0.298 N 
ATOM     14  C   UNL     1      -0.104  -2.610   1.117  0.00  0.00    +0.108 C 
ATOM     15  C   UNL     1      -0.483  -3.123   2.514  0.00  0.00    +0.019 C 
ATOM     16  C   UNL     1      -1.671  -4.082   2.395  0.00  0.00    +0.003 C 
ATOM     17  C   UNL     1      -2.874  -3.335   1.814  0.00  0.00    +0.019 C 
ATOM     18  C   UNL     1      -2.523  -2.822   0.413  0.00  0.00    +0.108 C 
ENDBRANCH   4  11
BRANCH   1  19
ATOM     19  C   UNL     1       4.155  -1.600  -1.182  0.00  0.00    +0.224 C 
BRANCH  19  21
ATOM     20  N   UNL     1       4.458  -2.817  -3.314  0.00  0.00    -0.314 N 
ATOM     21  C   UNL     1       4.075  -1.688  -2.684  0.00  0.00    +0.233 C 
ATOM     22  O   UNL     1       3.667  -0.744  -3.326  0.00  0.00    -0.274 OA
ATOM     23  H   UNL     1       4.828  -3.673  -2.732  0.00  0.00    +0.149 HD
BRANCH  20  24
ATOM     24  C   UNL     1       4.380  -2.902  -4.774  0.00  0.00    +0.104 C 
BRANCH  24  26
ATOM     25  C   UNL     1       4.788  -4.368  -6.756  0.00  0.00    +0.005 C 
ATOM     26  C   UNL     1       4.870  -4.278  -5.231  0.00  0.00    +0.015 C 
ENDBRANCH  24  26
ENDBRANCH  20  24
ENDBRANCH  19  21
ENDBRANCH   1  19
TORSDOF 5
