REMARK  Name = ZINC06194097
REMARK  13 active torsions:
REMARK  status: ('A' for Active; 'I' for Inactive)
REMARK    1  A    between atoms: C_1  and  C_2
REMARK    2  A    between atoms: C_4  and  O_28
REMARK    3  A    between atoms: C_7  and  C_8
REMARK    4  A    between atoms: C_8  and  O_27
REMARK    5  A    between atoms: C_10  and  C_21
REMARK    6  A    between atoms: N_12  and  C_17
REMARK    7  A    between atoms: C_17  and  C_18
REMARK    8  A    between atoms: C_18  and  N_60
REMARK    9  A    between atoms: C_19  and  N_60
REMARK   10  A    between atoms: C_20  and  N_60
REMARK   11  A    between atoms: O_28  and  C_29
REMARK   12  A    between atoms: C_29  and  C_30
REMARK   13  A    between atoms: C_29  and  C_31
REMARK                            x       y       z     vdW  Elec       q    Type
REMARK                         _______ _______ _______ _____ _____    ______ ____
ROOT
ATOM      1  C   UNL     1      -2.068   3.852  -0.229  0.00  0.00    +0.133 C 
ATOM      2  C   UNL     1      -1.107   2.860  -0.178  0.00  0.00    +0.071 C 
ATOM      3  C   UNL     1       0.368   3.010  -0.468  0.00  0.00    +0.146 C 
ATOM      4  N   UNL     1       0.969   1.686  -0.282  0.00  0.00    -0.285 N 
ATOM      5  C   UNL     1       0.008   0.817   0.075  0.00  0.00    +0.288 C 
ATOM      6  O   UNL     1       0.186  -0.362   0.302  0.00  0.00    -0.266 OA
ATOM      7  C   UNL     1      -1.307   1.510   0.145  0.00  0.00    +0.249 C 
ATOM      8  O   UNL     1      -2.371   0.995   0.437  0.00  0.00    -0.282 OA
ENDROOT
BRANCH   1  15
ATOM      9  C   UNL     1      -3.213   5.265  -2.479  0.00  0.00    +0.044 C 
ATOM     10  C   UNL     1      -2.219   5.942  -1.570  0.00  0.00    -0.036 A 
ATOM     11  C   UNL     1      -1.850   7.248  -1.803  0.00  0.00    +0.049 A 
ATOM     12  C   UNL     1      -0.929   7.872  -0.969  0.00  0.00    +0.121 A 
ATOM     13  C   UNL     1      -0.380   7.182   0.107  0.00  0.00    +0.046 A 
ATOM     14  C   UNL     1      -0.745   5.879   0.351  0.00  0.00    +0.015 A 
ATOM     15  C   UNL     1      -1.673   5.246  -0.485  0.00  0.00    +0.020 A 
BRANCH  12  16
ATOM     16  O   UNL     1      -0.565   9.157  -1.206  0.00  0.00    -0.489 OA
BRANCH  16  17
ATOM     17  C   UNL     1       0.357   9.749  -0.288  0.00  0.00    +0.167 C 
ATOM     18  C   UNL     1       1.074  10.918  -0.969  0.00  0.00    +0.051 C 
ATOM     19  C   UNL     1      -0.401  10.261   0.938  0.00  0.00    +0.051 C 
ENDBRANCH  16  17
ENDBRANCH  12  16
ENDBRANCH   1  15
BRANCH   3  20
ATOM     20  C   UNL     1       0.573   3.475  -1.887  0.00  0.00    -0.004 A 
ATOM     21  C   UNL     1       1.041   4.754  -2.146  0.00  0.00    +0.009 A 
ATOM     22  C   UNL     1       1.218   5.137  -3.467  0.00  0.00    +0.020 A 
ATOM     23  C   UNL     1       0.913   4.241  -4.474  0.00  0.00    +0.111 A 
ATOM     24  N   UNL     1       0.465   3.034  -4.191  0.00  0.00    -0.263 NA
ATOM     25  C   UNL     1       0.289   2.634  -2.946  0.00  0.00    +0.116 A 
ENDBRANCH   3  20
BRANCH   1  26
ATOM     26  O   UNL     1      -3.369   3.543  -0.043  0.00  0.00    -0.506 OA
ATOM     27  H   UNL     1      -3.458   2.560   0.118  0.00  0.00    +0.292 HD
ENDBRANCH   1  26
BRANCH   4  28
ATOM     28  C   UNL     1       2.387   1.362  -0.458  0.00  0.00    +0.090 C 
BRANCH  28  29
ATOM     29  C   UNL     1       2.638   0.945  -1.909  0.00  0.00    -0.060 C 
BRANCH  29  32
ATOM     30  C   UNL     1       4.428  -0.572  -1.310  0.00  0.00    -0.097 C 
ATOM     31  C   UNL     1       4.387   0.445  -3.506  0.00  0.00    -0.097 C 
ATOM     32  N   UNL     1       4.075   0.642  -2.075  0.00  0.00    +0.377 N 
ATOM     33  H   UNL     1       4.626   1.432  -1.719  0.00  0.00    -0.083 HD
ENDBRANCH  29  32
ENDBRANCH  28  29
ENDBRANCH   4  28
TORSDOF 8
