REMARK  Name = ZINC05599834
REMARK  4 active torsions:
REMARK  status: ('A' for Active; 'I' for Inactive)
REMARK    1  A    between atoms: C_1  and  N_43
REMARK    2  A    between atoms: C_7  and  N_16
REMARK    3  A    between atoms: C_8  and  N_14
REMARK    4  A    between atoms: N_16  and  O_17
REMARK                            x       y       z     vdW  Elec       q    Type
REMARK                         _______ _______ _______ _____ _____    ______ ____
ROOT
ATOM      1  C   UNL     1       0.811   2.420  -3.372  0.00  0.00    -0.096 C 
ATOM      2  C   UNL     1      -1.568   2.710  -3.062  0.00  0.00    -0.079 C 
ATOM      3  C   UNL     1      -1.037   4.052  -2.592  0.00  0.00    -0.019 C 
ATOM      4  C   UNL     1      -2.211   4.882  -2.041  0.00  0.00    -0.001 C 
ATOM      5  C   UNL     1      -1.716   5.719  -0.861  0.00  0.00    +0.006 C 
ATOM      6  C   UNL     1      -2.180   5.090   0.452  0.00  0.00    +0.057 C 
ATOM      7  C   UNL     1      -1.235   4.002   0.888  0.00  0.00    +0.063 C 
ATOM      8  C   UNL     1      -1.700   2.728   1.197  0.00  0.00    +0.106 C 
ATOM      9  C   UNL     1      -0.769   1.672   1.727  0.00  0.00    +0.061 C 
ATOM     10  C   UNL     1      -0.031   0.952   0.603  0.00  0.00    +0.006 C 
ATOM     11  C   UNL     1      -0.692   1.219  -0.749  0.00  0.00    -0.001 C 
ATOM     12  C   UNL     1      -0.001   0.378  -1.823  0.00  0.00    -0.019 C 
ATOM     13  C   UNL     1      -0.648   0.524  -3.184  0.00  0.00    -0.079 C 
ATOM     14  N   UNL     1      -0.533   1.888  -3.720  0.00  0.00    +0.378 N 
ATOM     15  H   UNL     1      -0.664   1.890  -4.738  0.00  0.00    -0.082 HD
ENDROOT
BRANCH   8  16
ATOM     16  N   UNL     1      -2.978   2.442   1.069  0.00  0.00    -0.033 NA
ATOM     17  O   UNL     1      -3.398   1.357   1.428  0.00  0.00    -0.143 OA
ENDBRANCH   8  16
BRANCH   7  18
ATOM     18  N   UNL     1       0.081   4.264   0.992  0.00  0.00    -0.271 N 
ATOM     19  H   UNL     1       0.407   5.169   0.862  0.00  0.00    +0.193 HD
BRANCH  18  20
ATOM     20  O   UNL     1       0.989   3.221   1.293  0.00  0.00    -0.289 OA
ATOM     21  H   UNL     1       1.911   3.506   1.348  0.00  0.00    +0.244 HD
ENDBRANCH  18  20
ENDBRANCH   7  18
TORSDOF 3
