REMARK  Name = ZINC67236024
REMARK  13 active torsions:
REMARK  status: ('A' for Active; 'I' for Inactive)
REMARK    1  A    between atoms: C_1  and  C_2
REMARK    2  A    between atoms: C_2  and  C_4
REMARK    3  A    between atoms: C_2  and  N_19
REMARK    4  A    between atoms: N_6  and  N_7
REMARK    5  A    between atoms: N_10  and  C_11
REMARK    6  A    between atoms: C_11  and  C_12
REMARK    7  A    between atoms: C_12  and  C_13
REMARK    8  A    between atoms: C_13  and  N_14
REMARK    9  A    between atoms: C_20  and  O_22
REMARK   10  A    between atoms: O_22  and  C_23
REMARK   11  A    between atoms: C_23  and  C_24
REMARK   12  A    between atoms: C_23  and  C_25
REMARK   13  A    between atoms: C_23  and  C_26
REMARK                            x       y       z     vdW  Elec       q    Type
REMARK                         _______ _______ _______ _____ _____    ______ ____
ROOT
ATOM      1  C   UNL     1      -1.412  -0.526   0.013  0.00  0.00    +0.249 C 
ATOM      2  O   UNL     1      -1.790  -1.233   0.922  0.00  0.00    -0.272 OA
ATOM      3  N   UNL     1      -2.256  -0.206  -0.988  0.00  0.00    -0.232 N 
ATOM      4  H   UNL     1      -1.953   0.360  -1.716  0.00  0.00    +0.173 HD
ENDROOT
BRANCH   3   5
ATOM      5  N   UNL     1      -3.570  -0.691  -0.978  0.00  0.00    -0.218 N 
ATOM      6  C   UNL     1      -4.414  -0.371  -1.980  0.00  0.00    +0.316 C 
ATOM      7  O   UNL     1      -5.554  -0.792  -1.971  0.00  0.00    -0.251 OA
ATOM      8  N   UNL     1      -3.993   0.415  -2.990  0.00  0.00    -0.298 N 
ATOM      9  H   UNL     1      -3.873  -1.257  -0.251  0.00  0.00    +0.174 HD
ATOM     10  H   UNL     1      -3.083   0.751  -2.997  0.00  0.00    +0.150 HD
BRANCH   8  11
ATOM     11  C   UNL     1      -4.910   0.762  -4.078  0.00  0.00    +0.107 C 
BRANCH  11  12
ATOM     12  C   UNL     1      -4.189   1.657  -5.088  0.00  0.00    +0.040 C 
BRANCH  12  13
ATOM     13  C   UNL     1      -5.146   2.020  -6.224  0.00  0.00    +0.124 C 
BRANCH  13  14
ATOM     14  N   UNL     1      -4.455   2.877  -7.191  0.00  0.00    -0.338 N 
ATOM     15  C   UNL     1      -4.392   4.245  -7.164  0.00  0.00    +0.104 A 
ATOM     16  C   UNL     1      -3.662   4.621  -8.231  0.00  0.00    +0.101 A 
ATOM     17  N   UNL     1      -3.289   3.515  -8.891  0.00  0.00    -0.352 N 
ATOM     18  C   UNL     1      -3.756   2.466  -8.271  0.00  0.00    +0.173 A 
ATOM     19  H   UNL     1      -2.753   3.496  -9.699  0.00  0.00    +0.166 HD
ENDBRANCH  13  14
ENDBRANCH  12  13
ENDBRANCH  11  12
ENDBRANCH   8  11
ENDBRANCH   3   5
BRANCH   1  21
ATOM     20  C   UNL     1      -0.019   1.526   0.010  0.00  0.00    +0.038 C 
ATOM     21  C   UNL     1       0.002  -0.004   0.002  0.00  0.00    +0.160 C 
BRANCH  21  22
ATOM     22  N   UNL     1       0.711  -0.489   1.189  0.00  0.00    -0.270 N 
ATOM     23  C   UNL     1       2.054  -0.600   1.174  0.00  0.00    +0.401 C 
ATOM     24  O   UNL     1       2.677  -0.297   0.175  0.00  0.00    -0.226 OA
ATOM     25  H   UNL     1       0.213  -0.731   1.986  0.00  0.00    +0.153 HD
BRANCH  23  26
ATOM     26  O   UNL     1       2.705  -1.046   2.264  0.00  0.00    -0.445 OA
BRANCH  26  27
ATOM     27  C   UNL     1       4.128  -1.138   2.178  0.00  0.00    +0.107 C 
ATOM     28  C   UNL     1       4.712   0.247   1.888  0.00  0.00    +0.055 C 
ATOM     29  C   UNL     1       4.687  -1.659   3.503  0.00  0.00    +0.055 C 
ATOM     30  C   UNL     1       4.510  -2.098   1.050  0.00  0.00    +0.055 C 
ENDBRANCH  26  27
ENDBRANCH  23  26
ENDBRANCH  21  22
ENDBRANCH   1  21
TORSDOF 9
