REMARK  Name = ZINC08648872
REMARK  13 active torsions:
REMARK  status: ('A' for Active; 'I' for Inactive)
REMARK    1  A    between atoms: C_1  and  N_2
REMARK    2  A    between atoms: N_7  and  C_10
REMARK    3  A    between atoms: N_11  and  C_21
REMARK    4  A    between atoms: N_14  and  C_15
REMARK    5  A    between atoms: C_15  and  C_16
REMARK    6  A    between atoms: C_21  and  C_22
REMARK    7  A    between atoms: C_22  and  C_24
REMARK    8  A    between atoms: C_22  and  O_39
REMARK    9  A    between atoms: C_24  and  N_71
REMARK   10  A    between atoms: C_25  and  C_26
REMARK   11  A    between atoms: C_25  and  N_71
REMARK   12  A    between atoms: C_32  and  C_33
REMARK   13  A    between atoms: C_32  and  N_71
REMARK                            x       y       z     vdW  Elec       q    Type
REMARK                         _______ _______ _______ _____ _____    ______ ____
ROOT
ATOM      1  C   UNL     1       5.737   9.367  -0.364  0.00  0.00    +0.155 C 
ATOM      2  N   UNL     1       5.274   8.973   0.969  0.00  0.00    -0.280 N 
ATOM      3  C   UNL     1       4.719   7.718   1.165  0.00  0.00    +0.170 A 
ATOM      4  C   UNL     1       4.288   7.369   2.441  0.00  0.00    +0.153 A 
ATOM      5  C   UNL     1       4.426   8.295   3.490  0.00  0.00    +0.282 A 
ATOM      6  O   UNL     1       4.056   8.010   4.615  0.00  0.00    -0.265 OA
ATOM      7  N   UNL     1       4.974   9.502   3.237  0.00  0.00    -0.262 N 
ATOM      8  C   UNL     1       5.387   9.829   2.001  0.00  0.00    +0.333 A 
ATOM      9  O   UNL     1       5.876  10.926   1.811  0.00  0.00    -0.246 OA
ATOM     10  C   UNL     1       5.120  10.469   4.328  0.00  0.00    +0.157 C 
ATOM     11  N   UNL     1       3.785   6.079   2.343  0.00  0.00    -0.304 N 
ATOM     12  C   UNL     1       3.925   5.701   1.045  0.00  0.00    +0.199 A 
ATOM     13  N   UNL     1       4.484   6.679   0.362  0.00  0.00    -0.196 NA
ATOM     14  N   UNL     1       3.548   4.484   0.526  0.00  0.00    -0.308 N 
ATOM     15  H   UNL     1       3.145   3.814   1.102  0.00  0.00    +0.149 HD
ENDROOT
BRANCH  14  16
ATOM     16  C   UNL     1       3.754   4.198  -0.896  0.00  0.00    +0.178 C 
BRANCH  16  17
ATOM     17  C   UNL     1       3.259   2.809  -1.206  0.00  0.00    +0.122 A 
ATOM     18  C   UNL     1       2.012   2.486  -1.592  0.00  0.00    +0.046 A 
ATOM     19  C   UNL     1       1.989   1.084  -1.774  0.00  0.00    +0.041 A 
ATOM     20  C   UNL     1       3.224   0.634  -1.488  0.00  0.00    +0.195 A 
ATOM     21  O   UNL     1       3.989   1.683  -1.145  0.00  0.00    -0.466 OA
ENDBRANCH  16  17
ENDBRANCH  14  16
BRANCH  11  22
ATOM     22  C   UNL     1       3.213   5.279   3.429  0.00  0.00    +0.154 C 
BRANCH  22  23
ATOM     23  C   UNL     1       4.321   4.468   4.104  0.00  0.00    +0.118 C 
BRANCH  23  24
ATOM     24  O   UNL     1       4.851   3.520   3.175  0.00  0.00    -0.392 OA
ATOM     25  H   UNL     1       4.199   2.889   2.842  0.00  0.00    +0.210 HD
ENDBRANCH  23  24
BRANCH  23  26
ATOM     26  C   UNL     1       3.748   3.730   5.316  0.00  0.00    -0.044 C 
BRANCH  26  27
ATOM     27  N   UNL     1       4.848   3.033   6.014  0.00  0.00    +0.387 N 
ATOM     28  H   UNL     1       5.371   2.469   5.333  0.00  0.00    -0.081 HD
BRANCH  27  29
ATOM     29  C   UNL     1       5.765   4.019   6.623  0.00  0.00    -0.042 C 
BRANCH  29  30
ATOM     30  C   UNL     1       7.048   3.322   6.996  0.00  0.00    -0.064 A 
ATOM     31  C   UNL     1       7.242   2.876   8.290  0.00  0.00    +0.002 A 
ATOM     32  C   UNL     1       8.417   2.232   8.630  0.00  0.00    +0.000 A 
ATOM     33  C   UNL     1       9.402   2.043   7.679  0.00  0.00    +0.000 A 
ATOM     34  C   UNL     1       9.210   2.494   6.386  0.00  0.00    +0.000 A 
ATOM     35  C   UNL     1       8.033   3.133   6.045  0.00  0.00    +0.002 A 
ENDBRANCH  29  30
ENDBRANCH  27  29
BRANCH  27  36
ATOM     36  C   UNL     1       4.300   2.140   7.057  0.00  0.00    -0.042 C 
BRANCH  36  37
ATOM     37  C   UNL     1       3.756   0.901   6.394  0.00  0.00    -0.064 A 
ATOM     38  C   UNL     1       2.409   0.811   6.096  0.00  0.00    +0.002 A 
ATOM     39  C   UNL     1       1.912  -0.324   5.483  0.00  0.00    +0.000 A 
ATOM     40  C   UNL     1       2.758  -1.373   5.180  0.00  0.00    +0.000 A 
ATOM     41  C   UNL     1       4.104  -1.286   5.484  0.00  0.00    +0.000 A 
ATOM     42  C   UNL     1       4.603  -0.149   6.091  0.00  0.00    +0.002 A 
ENDBRANCH  36  37
ENDBRANCH  27  36
ENDBRANCH  26  27
ENDBRANCH  23  26
ENDBRANCH  22  23
ENDBRANCH  11  22
TORSDOF 11
