REMARK  Name = ZINC61675720
REMARK  10 active torsions:
REMARK  status: ('A' for Active; 'I' for Inactive)
REMARK    1  A    between atoms: C_1  and  C_2
REMARK    2  A    between atoms: C_2  and  C_3
REMARK    3  A    between atoms: C_3  and  C_5
REMARK    4  A    between atoms: C_3  and  O_8
REMARK    5  A    between atoms: O_8  and  C_9
REMARK    6  A    between atoms: C_14  and  C_15
REMARK    7  A    between atoms: C_15  and  N_16
REMARK    8  A    between atoms: N_16  and  C_17
REMARK    9  A    between atoms: C_17  and  C_18
REMARK   10  A    between atoms: C_17  and  C_19
REMARK                            x       y       z     vdW  Elec       q    Type
REMARK                         _______ _______ _______ _____ _____    ______ ____
ROOT
ATOM      1  C   UNL     1       2.418   1.129   1.630  0.00  0.00    +0.123 A 
ATOM      2  C   UNL     1       1.441   1.907   2.233  0.00  0.00    +0.047 A 
ATOM      3  C   UNL     1       1.753   3.170   2.697  0.00  0.00    +0.019 A 
ATOM      4  C   UNL     1       3.040   3.660   2.560  0.00  0.00    +0.018 A 
ATOM      5  C   UNL     1       4.016   2.886   1.959  0.00  0.00    +0.020 A 
ATOM      6  C   UNL     1       3.709   1.620   1.499  0.00  0.00    -0.022 A 
ATOM      7 BR   UNL     1       3.465   5.389   3.196  0.00  0.00    -0.050 Br
ENDROOT
BRANCH   1   8
ATOM      8  O   UNL     1       2.113  -0.114   1.173  0.00  0.00    -0.479 OA
BRANCH   8   9
ATOM      9  C   UNL     1       0.754  -0.537   1.302  0.00  0.00    +0.258 C 
BRANCH   9  10
ATOM     10  C   UNL     1       0.712  -2.019   1.569  0.00  0.00    +0.251 C 
ATOM     11  O   UNL     1       1.737  -2.668   1.551  0.00  0.00    -0.272 OA
ATOM     12  N   UNL     1      -0.464  -2.625   1.826  0.00  0.00    -0.326 N 
ATOM     13  H   UNL     1      -1.283  -2.106   1.840  0.00  0.00    +0.145 HD
ATOM     14  H   UNL     1      -0.491  -3.579   1.998  0.00  0.00    +0.145 HD
ENDBRANCH   9  10
BRANCH   9  16
ATOM     15  C   UNL     1      -0.065   1.285  -0.199  0.00  0.00    +0.008 C 
ATOM     16  C   UNL     1      -0.000  -0.230   0.007  0.00  0.00    +0.051 C 
ENDBRANCH   9  16
ENDBRANCH   8   9
ENDBRANCH   1   8
BRANCH   6  17
ATOM     17  C   UNL     1       4.775   0.774   0.851  0.00  0.00    -0.043 C 
BRANCH  17  18
ATOM     18  N   UNL     1       4.638   0.849  -0.610  0.00  0.00    +0.383 N 
ATOM     19  H   UNL     1       3.727   0.508  -0.880  0.00  0.00    -0.085 HD
ATOM     20  H   UNL     1       4.741   1.807  -0.909  0.00  0.00    -0.085 HD
BRANCH  18  21
ATOM     21  C   UNL     1       5.676   0.025  -1.242  0.00  0.00    -0.078 C 
ATOM     22  C   UNL     1       5.446  -1.446  -0.889  0.00  0.00    -0.014 C 
ATOM     23  C   UNL     1       5.613   0.201  -2.761  0.00  0.00    -0.014 C 
ENDBRANCH  18  21
ENDBRANCH  17  18
ENDBRANCH   6  17
TORSDOF 7
