REMARK  Name = ZINC65305841
REMARK  8 active torsions:
REMARK  status: ('A' for Active; 'I' for Inactive)
REMARK    1  A    between atoms: C_1  and  C_2
REMARK    2  A    between atoms: C_2  and  C_3
REMARK    3  A    between atoms: C_2  and  C_4
REMARK    4  A    between atoms: C_4  and  C_5
REMARK    5  A    between atoms: C_5  and  C_7
REMARK    6  A    between atoms: C_5  and  N_19
REMARK    7  A    between atoms: N_9  and  C_10
REMARK    8  A    between atoms: C_20  and  C_22
REMARK                            x       y       z     vdW  Elec       q    Type
REMARK                         _______ _______ _______ _____ _____    ______ ____
ROOT
ATOM      1  C   UNL     1      -2.819  -2.590   0.013  0.00  0.00    +0.236 C 
ATOM      2  O   UNL     1      -3.320  -3.216  -0.898  0.00  0.00    -0.274 OA
ATOM      3  N   UNL     1      -3.518  -2.371   1.144  0.00  0.00    -0.277 N 
ATOM      4  H   UNL     1      -3.118  -1.870   1.872  0.00  0.00    +0.152 HD
ENDROOT
BRANCH   3   5
ATOM      5  C   UNL     1      -4.882  -2.888   1.274  0.00  0.00    +0.269 C 
ATOM      6  N   UNL     1      -4.850  -4.324   1.578  0.00  0.00    -0.348 N 
ATOM      7  C   UNL     1      -5.432  -4.493   2.730  0.00  0.00    +0.061 A 
ATOM      8  C   UNL     1      -5.702  -5.683   3.548  0.00  0.00    +0.027 A 
ATOM      9  C   UNL     1      -6.339  -5.548   4.729  0.00  0.00    +0.002 A 
ATOM     10  C   UNL     1      -6.764  -4.302   5.223  0.00  0.00    +0.002 A 
ATOM     11  C   UNL     1      -6.567  -3.149   4.553  0.00  0.00    +0.027 A 
ATOM     12  C   UNL     1      -5.882  -3.174   3.253  0.00  0.00    +0.061 A 
ATOM     13  N   UNL     1      -5.561  -2.241   2.404  0.00  0.00    -0.348 N 
ATOM     14  H   UNL     1      -4.466  -5.020   1.022  0.00  0.00    +0.163 HD
ATOM     15  H   UNL     1      -5.738  -1.292   2.500  0.00  0.00    +0.163 HD
ENDBRANCH   3   5
BRANCH   1  16
ATOM     16  C   UNL     1      -1.416  -2.058  -0.121  0.00  0.00    +0.160 C 
BRANCH  16  17
ATOM     17  N   UNL     1      -0.876  -2.426  -1.433  0.00  0.00    -0.298 N 
ATOM     18  C   UNL     1       0.456  -2.525  -1.610  0.00  0.00    +0.280 C 
ATOM     19  O   UNL     1       1.211  -2.307  -0.681  0.00  0.00    -0.267 OA
ATOM     20  H   UNL     1      -1.478  -2.600  -2.173  0.00  0.00    +0.150 HD
BRANCH  18  21
ATOM     21  C   UNL     1       0.996  -2.893  -2.923  0.00  0.00    +0.189 A 
ATOM     22  C   UNL     1       2.317  -3.033  -3.236  0.00  0.00    +0.054 A 
ATOM     23  C   UNL     1       2.374  -3.393  -4.592  0.00  0.00    +0.042 A 
ATOM     24  C   UNL     1       1.101  -3.457  -5.040  0.00  0.00    +0.196 A 
ATOM     25  O   UNL     1       0.273  -3.160  -4.030  0.00  0.00    -0.458 OA
ENDBRANCH  18  21
ENDBRANCH  16  17
BRANCH  16  26
ATOM     26  C   UNL     1      -1.433  -0.534   0.013  0.00  0.00    +0.034 C 
BRANCH  26  28
ATOM     27  C   UNL     1      -0.019   1.526   0.010  0.00  0.00    +0.007 C 
ATOM     28  C   UNL     1       0.002  -0.004   0.002  0.00  0.00    -0.015 C 
ATOM     29  C   UNL     1       0.742  -0.511   1.242  0.00  0.00    +0.007 C 
ENDBRANCH  26  28
ENDBRANCH  16  26
ENDBRANCH   1  16
TORSDOF 6
