REMARK  Name = ZINC64674304
REMARK  8 active torsions:
REMARK  status: ('A' for Active; 'I' for Inactive)
REMARK    1  A    between atoms: C_1  and  C_2
REMARK    2  A    between atoms: C_2  and  N_3
REMARK    3  A    between atoms: C_7  and  C_14
REMARK    4  A    between atoms: C_11  and  C_13
REMARK    5  A    between atoms: N_16  and  N_17
REMARK    6  A    between atoms: C_18  and  C_20
REMARK    7  A    between atoms: C_20  and  C_21
REMARK    8  A    between atoms: C_21  and  C_22
REMARK                            x       y       z     vdW  Elec       q    Type
REMARK                         _______ _______ _______ _____ _____    ______ ____
ROOT
ATOM      1  C   UNL     1      -1.021  -1.752  -6.418  0.00  0.00    +0.260 C 
ATOM      2  O   UNL     1      -0.178  -2.127  -7.210  0.00  0.00    -0.269 OA
ATOM      3  N   UNL     1      -2.310  -1.655  -6.800  0.00  0.00    -0.230 N 
ATOM      4  H   UNL     1      -2.982  -1.357  -6.168  0.00  0.00    +0.173 HD
ENDROOT
BRANCH   1   9
ATOM      5  N   UNL     1       0.688  -0.476  -1.203  0.00  0.00    -0.311 N 
ATOM      6  C   UNL     1       0.095  -0.747  -2.437  0.00  0.00    +0.052 A 
ATOM      7  C   UNL     1      -1.236  -0.649  -2.839  0.00  0.00    +0.026 A 
ATOM      8  C   UNL     1      -1.600  -0.973  -4.126  0.00  0.00    +0.015 A 
ATOM      9  C   UNL     1      -0.633  -1.404  -5.038  0.00  0.00    +0.040 A 
ATOM     10  C   UNL     1       0.702  -1.504  -4.639  0.00  0.00    +0.038 A 
ATOM     11  C   UNL     1       1.065  -1.177  -3.343  0.00  0.00    +0.051 A 
ATOM     12  N   UNL     1       2.321  -1.196  -2.719  0.00  0.00    -0.325 N 
ATOM     13  C   UNL     1       2.124  -0.746  -1.335  0.00  0.00    +0.155 C 
ATOM     14  C   UNL     1       2.547  -1.845  -0.360  0.00  0.00    +0.049 C 
ATOM     15  H   UNL     1       3.162  -1.456  -3.125  0.00  0.00    +0.148 HD
BRANCH   5  17
ATOM     16  C   UNL     1      -0.019   1.526   0.010  0.00  0.00    +0.024 C 
ATOM     17  C   UNL     1       0.002  -0.004   0.002  0.00  0.00    +0.103 C 
ENDBRANCH   5  17
ENDBRANCH   1   9
BRANCH   3  18
ATOM     18  N   UNL     1      -2.679  -1.986  -8.110  0.00  0.00    -0.234 N 
ATOM     19  C   UNL     1      -3.967  -1.890  -8.493  0.00  0.00    +0.229 C 
ATOM     20  O   UNL     1      -4.808  -1.516  -7.702  0.00  0.00    -0.274 OA
ATOM     21  H   UNL     1      -2.006  -2.285  -8.743  0.00  0.00    +0.173 HD
BRANCH  19  22
ATOM     22  C   UNL     1      -4.364  -2.246  -9.902  0.00  0.00    +0.102 C 
BRANCH  22  23
ATOM     23  C   UNL     1      -5.872  -2.050 -10.073  0.00  0.00    +0.042 C 
BRANCH  23  24
ATOM     24  C   UNL     1      -6.269  -2.406 -11.482  0.00  0.00    -0.041 C 
ATOM     25  C   UNL     1      -6.744  -3.595 -11.917  0.00  0.00    -0.001 A 
ATOM     26  C   UNL     1      -7.023  -4.864 -11.235  0.00  0.00    +0.010 A 
ATOM     27  C   UNL     1      -7.505  -5.903 -11.954  0.00  0.00    +0.001 A 
ATOM     28  C   UNL     1      -7.745  -5.799 -13.331  0.00  0.00    +0.002 A 
ATOM     29  C   UNL     1      -7.514  -4.666 -14.027  0.00  0.00    +0.026 A 
ATOM     30  C   UNL     1      -7.006  -3.510 -13.372  0.00  0.00    +0.043 A 
ATOM     31  N   UNL     1      -6.704  -2.315 -13.819  0.00  0.00    -0.380 N 
ATOM     32  C   UNL     1      -6.222  -1.504 -12.695  0.00  0.00    +0.144 C 
ATOM     33  H   UNL     1      -6.789  -2.016 -14.738  0.00  0.00    +0.160 HD
ENDBRANCH  23  24
ENDBRANCH  22  23
ENDBRANCH  19  22
ENDBRANCH   3  18
TORSDOF 6
