REMARK  Name = ZINC39599362
REMARK  7 active torsions:
REMARK  status: ('A' for Active; 'I' for Inactive)
REMARK    1  A    between atoms: C_1  and  O_2
REMARK    2  A    between atoms: O_2  and  C_3
REMARK    3  A    between atoms: C_9  and  C_12
REMARK    4  A    between atoms: C_12  and  C_13
REMARK    5  A    between atoms: C_13  and  N_14
REMARK    6  A    between atoms: C_15  and  C_17
REMARK    7  A    between atoms: C_28  and  C_30
REMARK                            x       y       z     vdW  Elec       q    Type
REMARK                         _______ _______ _______ _____ _____    ______ ____
ROOT
ATOM      1  C   UNL     1       2.304  -7.124  -1.558  0.00  0.00    +0.100 C 
ATOM      2  C   UNL     1       1.052  -7.644  -2.299  0.00  0.00    +0.121 C 
ATOM      3  N   UNL     1       1.250  -7.225  -3.707  0.00  0.00    -0.300 N 
ATOM      4  C   UNL     1       2.697  -7.435  -3.954  0.00  0.00    +0.115 C 
ATOM      5  C   UNL     1       3.382  -6.992  -2.646  0.00  0.00    -0.004 C 
ATOM      6  C   UNL     1       4.564  -7.905  -2.333  0.00  0.00    -0.010 C 
ATOM      7  C   UNL     1       5.648  -7.712  -3.398  0.00  0.00    -0.082 C 
ATOM      8  N   UNL     1       6.078  -6.309  -3.413  0.00  0.00    +0.379 N 
ATOM      9  C   UNL     1       4.957  -5.446  -3.806  0.00  0.00    -0.082 C 
ATOM     10  C   UNL     1       3.845  -5.542  -2.759  0.00  0.00    -0.010 C 
ATOM     11  C   UNL     1       0.324  -6.758  -4.568  0.00  0.00    +0.224 C 
ATOM     12  O   UNL     1      -0.807  -6.546  -4.185  0.00  0.00    -0.275 OA
ATOM     13  H   UNL     1       6.396  -6.046  -2.493  0.00  0.00    -0.086 HD
ATOM     14  H   UNL     1       6.834  -6.197  -4.072  0.00  0.00    -0.086 HD
ENDROOT
BRANCH  11  15
ATOM     15  C   UNL     1       0.695  -6.501  -6.006  0.00  0.00    +0.116 C 
ATOM     16  C   UNL     1       0.350  -7.751  -6.846  0.00  0.00    +0.092 C 
ATOM     17  S   UNL     1      -0.122  -6.937  -8.428  0.00  0.00    -0.124 S 
ATOM     18  C   UNL     1      -0.543  -5.330  -7.789  0.00  0.00    +0.012 A 
ATOM     19  C   UNL     1      -0.044  -5.278  -6.492  0.00  0.00    -0.021 A 
ATOM     20  C   UNL     1      -0.273  -4.103  -5.772  0.00  0.00    +0.005 A 
ATOM     21  C   UNL     1      -0.954  -3.045  -6.332  0.00  0.00    +0.000 A 
ATOM     22  C   UNL     1      -1.434  -3.118  -7.627  0.00  0.00    +0.001 A 
ATOM     23  C   UNL     1      -1.221  -4.268  -8.355  0.00  0.00    +0.015 A 
ENDBRANCH  11  15
BRANCH   1  25
ATOM     24  N   UNL     1       2.695  -5.401   0.173  0.00  0.00    -0.315 N 
ATOM     25  C   UNL     1       2.023  -5.782  -0.931  0.00  0.00    +0.218 C 
ATOM     26  O   UNL     1       1.193  -5.046  -1.422  0.00  0.00    -0.275 OA
ATOM     27  H   UNL     1       3.358  -5.989   0.565  0.00  0.00    +0.149 HD
BRANCH  24  28
ATOM     28  C   UNL     1       2.421  -4.096   0.782  0.00  0.00    +0.109 C 
BRANCH  28  29
ATOM     29  C   UNL     1       3.311  -3.912   2.013  0.00  0.00    +0.056 C 
BRANCH  29  36
ATOM     30  C   UNL     1       0.096  -2.409   5.094  0.00  0.00    +0.121 A 
ATOM     31  C   UNL     1       0.226  -1.055   5.386  0.00  0.00    +0.047 A 
ATOM     32  C   UNL     1       1.216  -0.301   4.796  0.00  0.00    +0.030 A 
ATOM     33  C   UNL     1       2.098  -0.894   3.898  0.00  0.00    +0.047 A 
ATOM     34  N   UNL     1       3.164  -0.417   3.164  0.00  0.00    -0.360 N 
ATOM     35  C   UNL     1       3.705  -1.430   2.420  0.00  0.00    +0.087 A 
ATOM     36  C   UNL     1       3.030  -2.570   2.639  0.00  0.00    -0.021 A 
ATOM     37  C   UNL     1       1.969  -2.262   3.601  0.00  0.00    +0.006 A 
ATOM     38  C   UNL     1       0.965  -3.017   4.209  0.00  0.00    +0.056 A 
ATOM     39  H   UNL     1       3.481   0.499   3.172  0.00  0.00    +0.165 HD
BRANCH  30  41
ATOM     40  C   UNL     1      -1.748  -2.450   6.596  0.00  0.00    +0.277 C 
ATOM     41  O   UNL     1      -0.888  -3.139   5.686  0.00  0.00    -0.495 OA
ENDBRANCH  30  41
ENDBRANCH  29  36
ENDBRANCH  28  29
ENDBRANCH  24  28
ENDBRANCH   1  25
TORSDOF 6
