REMARK  Name = ZINC51249240
REMARK  7 active torsions:
REMARK  status: ('A' for Active; 'I' for Inactive)
REMARK    1  A    between atoms: C_1  and  C_2
REMARK    2  A    between atoms: N_7  and  C_11
REMARK    3  A    between atoms: C_8  and  C_10
REMARK    4  A    between atoms: C_11  and  C_12
REMARK    5  A    between atoms: C_12  and  C_17
REMARK    6  A    between atoms: C_17  and  N_18
REMARK    7  A    between atoms: N_18  and  C_19
REMARK                            x       y       z     vdW  Elec       q    Type
REMARK                         _______ _______ _______ _____ _____    ______ ____
ROOT
ATOM      1  C   UNL     1       1.428  -3.988   2.583  0.00  0.00    -0.059 C 
ATOM      2  C   UNL     1       2.199  -4.606   1.399  0.00  0.00    +0.003 C 
ATOM      3  C   UNL     1       1.414  -5.899   1.068  0.00  0.00    +0.000 C 
ATOM      4  C   UNL     1      -0.059  -5.469   1.280  0.00  0.00    +0.000 C 
ATOM      5  C   UNL     1      -0.008  -4.537   2.508  0.00  0.00    +0.003 C 
ENDROOT
BRANCH   1   6
ATOM      6  C   UNL     1       1.413  -2.463   2.461  0.00  0.00    -0.073 C 
BRANCH   6  12
ATOM      7  C   UNL     1       0.856   1.721   4.940  0.00  0.00    +0.006 C 
ATOM      8  C   UNL     1       0.718   0.199   5.013  0.00  0.00    -0.028 C 
ATOM      9  C   UNL     1      -0.732  -0.168   5.340  0.00  0.00    -0.000 C 
ATOM     10  C   UNL     1      -0.876  -1.693   5.333  0.00  0.00    -0.018 C 
ATOM     11  C   UNL     1      -0.433  -2.236   3.973  0.00  0.00    -0.078 C 
ATOM     12  N   UNL     1       0.969  -1.874   3.731  0.00  0.00    +0.382 N 
ATOM     13  C   UNL     1       1.104  -0.414   3.665  0.00  0.00    -0.069 C 
ATOM     14  C   UNL     1       2.553  -0.049   3.336  0.00  0.00    -0.013 C 
ATOM     15  H   UNL     1       1.541  -2.229   4.482  0.00  0.00    -0.081 HD
ENDBRANCH   6  12
ENDBRANCH   1   6
BRANCH   1  16
ATOM     16  C   UNL     1       2.078  -4.401   3.905  0.00  0.00    -0.077 C 
BRANCH  16  17
ATOM     17  N   UNL     1       2.086  -5.866   4.011  0.00  0.00    +0.381 N 
ATOM     18  H   UNL     1       1.138  -6.211   3.980  0.00  0.00    -0.086 HD
ATOM     19  H   UNL     1       2.610  -6.256   3.242  0.00  0.00    -0.086 HD
BRANCH  17  20
ATOM     20  C   UNL     1       2.710  -6.263   5.280  0.00  0.00    -0.072 C 
ATOM     21  C   UNL     1       4.009  -7.067   5.207  0.00  0.00    -0.017 C 
ATOM     22  C   UNL     1       2.708  -7.752   5.633  0.00  0.00    -0.017 C 
ENDBRANCH  17  20
ENDBRANCH  16  17
ENDBRANCH   1  16
TORSDOF 5
