REMARK  Name = ZINC53073250
REMARK  3 active torsions:
REMARK  status: ('A' for Active; 'I' for Inactive)
REMARK    1  A    between atoms: C_3  and  C_11
REMARK    2  A    between atoms: C_5  and  O_7
REMARK    3  A    between atoms: O_7  and  C_8
REMARK                            x       y       z     vdW  Elec       q    Type
REMARK                         _______ _______ _______ _____ _____    ______ ____
ROOT
ATOM      1  C   UNL     1       3.671   2.190  -0.021  0.00  0.00    +0.131 C 
ATOM      2  C   UNL     1       4.057   2.555   1.414  0.00  0.00    -0.045 C 
ATOM      3  N   UNL     1       5.286   3.360   1.399  0.00  0.00    +0.386 N 
ATOM      4  C   UNL     1       5.057   4.588   0.624  0.00  0.00    -0.044 C 
ATOM      5  C   UNL     1       6.337   5.426   0.606  0.00  0.00    -0.010 C 
ATOM      6  C   UNL     1       6.726   5.793   2.040  0.00  0.00    -0.001 C 
ATOM      7  C   UNL     1       5.596   6.599   2.684  0.00  0.00    -0.000 C 
ATOM      8  C   UNL     1       4.317   5.761   2.702  0.00  0.00    -0.001 C 
ATOM      9  C   UNL     1       3.928   5.394   1.268  0.00  0.00    -0.010 C 
ATOM     10  C   UNL     1       4.668   4.220  -0.809  0.00  0.00    +0.148 C 
ATOM     11  O   UNL     1       3.504   3.388  -0.785  0.00  0.00    -0.375 OA
ATOM     12  H   UNL     1       5.542   3.602   2.344  0.00  0.00    -0.085 HD
ATOM     13  H   UNL     1       6.031   2.829   0.974  0.00  0.00    -0.085 HD
ENDROOT
BRANCH   1  16
ATOM     14  C   UNL     1      -0.017   1.377   0.010  0.00  0.00    +0.004 A 
ATOM     15  C   UNL     1       1.171   2.086   0.002  0.00  0.00    +0.006 A 
ATOM     16  C   UNL     1       2.379   1.415  -0.013  0.00  0.00    -0.017 A 
ATOM     17  C   UNL     1       2.403   0.033  -0.021  0.00  0.00    +0.052 A 
ATOM     18  C   UNL     1       1.214  -0.680  -0.013  0.00  0.00    +0.127 A 
ATOM     19  C   UNL     1       0.002  -0.004   0.002  0.00  0.00    +0.046 A 
BRANCH  18  20
ATOM     20  O   UNL     1       1.235  -2.039  -0.021  0.00  0.00    -0.434 OA
BRANCH  20  21
ATOM     21  C   UNL     1      -0.028  -2.708  -0.013  0.00  0.00    +0.541 C 
ATOM     22  F   UNL     1      -0.738  -2.349   1.138  0.00  0.00    -0.166 F 
ATOM     23  F   UNL     1      -0.760  -2.336  -1.146  0.00  0.00    -0.166 F 
ENDBRANCH  20  21
ENDBRANCH  18  20
ENDBRANCH   1  16
TORSDOF 3
