REMARK  Name = ZINC39918523
REMARK  8 active torsions:
REMARK  status: ('A' for Active; 'I' for Inactive)
REMARK    1  A    between atoms: C_1  and  C_2
REMARK    2  A    between atoms: C_5  and  C_8
REMARK    3  A    between atoms: C_8  and  N_9
REMARK    4  A    between atoms: C_23  and  C_27
REMARK    5  A    between atoms: C_29  and  N_35
REMARK    6  A    between atoms: C_30  and  C_31
REMARK    7  A    between atoms: C_31  and  O_33
REMARK    8  A    between atoms: O_33  and  C_34
REMARK                            x       y       z     vdW  Elec       q    Type
REMARK                         _______ _______ _______ _____ _____    ______ ____
ROOT
ATOM      1  N   UNL     1       1.559  -4.845  -0.387  0.00  0.00    -0.266 N 
ATOM      2  C   UNL     1       2.377  -5.165  -1.456  0.00  0.00    +0.041 A 
ATOM      3  C   UNL     1       2.103  -5.125  -2.824  0.00  0.00    +0.024 A 
ATOM      4  C   UNL     1       3.120  -5.505  -3.686  0.00  0.00    +0.002 A 
ATOM      5  C   UNL     1       4.356  -5.910  -3.224  0.00  0.00    +0.000 A 
ATOM      6  C   UNL     1       4.641  -5.955  -1.863  0.00  0.00    +0.007 A 
ATOM      7  C   UNL     1       3.635  -5.578  -1.000  0.00  0.00    -0.005 A 
ATOM      8  C   UNL     1       3.584  -5.505   0.493  0.00  0.00    +0.128 C 
ATOM      9  C   UNL     1       2.186  -5.007   0.796  0.00  0.00    +0.237 C 
ATOM     10  O   UNL     1       1.718  -4.798   1.895  0.00  0.00    -0.274 OA
ATOM     11  C   UNL     1       4.612  -4.507   1.028  0.00  0.00    +0.167 C 
ATOM     12  C   UNL     1       5.945  -5.213   1.097  0.00  0.00    +0.122 C 
ATOM     13  C   UNL     1       7.028  -4.735   0.457  0.00  0.00    +0.063 C 
ATOM     14  C   UNL     1       6.949  -3.575  -0.320  0.00  0.00    +0.034 C 
ATOM     15  N   UNL     1       5.816  -2.924  -0.457  0.00  0.00    -0.185 NA
ATOM     16  C   UNL     1       4.696  -3.313   0.126  0.00  0.00    +0.248 C 
ATOM     17  O   UNL     1       3.686  -2.669  -0.078  0.00  0.00    -0.273 OA
ATOM     18  C   UNL     1       8.186  -3.062  -1.012  0.00  0.00    +0.063 C 
ATOM     19  O   UNL     1       6.009  -6.355   1.818  0.00  0.00    -0.445 OA
ATOM     20  C   UNL     1       4.965  -7.205   1.712  0.00  0.00    +0.195 C 
ATOM     21  C   UNL     1       3.801  -6.856   1.111  0.00  0.00    +0.114 C 
ENDROOT
BRANCH  20  22
ATOM     22  N   UNL     1       5.086  -8.466   2.231  0.00  0.00    -0.329 N 
ATOM     23  H   UNL     1       5.937  -8.762   2.591  0.00  0.00    +0.145 HD
ATOM     24  H   UNL     1       4.322  -9.063   2.239  0.00  0.00    +0.145 HD
ENDBRANCH  20  22
BRANCH  21  25
ATOM     25  C   UNL     1       2.759  -7.794   1.066  0.00  0.00    +0.341 C 
ATOM     26  O   UNL     1       2.551  -8.425   0.044  0.00  0.00    -0.245 OA
BRANCH  25  27
ATOM     27  O   UNL     1       1.985  -7.998   2.154  0.00  0.00    -0.465 OA
ATOM     28  C   UNL     1       0.942  -8.968   2.036  0.00  0.00    +0.280 C 
ENDBRANCH  25  27
ENDBRANCH  21  25
BRANCH   1  29
ATOM     29  C   UNL     1       0.177  -4.377  -0.524  0.00  0.00    +0.148 C 
BRANCH  29  34
ATOM     30  C   UNL     1       0.121   1.387  -0.931  0.00  0.00    +0.044 C 
ATOM     31  C   UNL     1       0.136  -0.117  -0.825  0.00  0.00    -0.050 A 
ATOM     32  C   UNL     1       0.234  -0.889  -1.967  0.00  0.00    +0.003 A 
ATOM     33  C   UNL     1       0.248  -2.268  -1.870  0.00  0.00    +0.005 A 
ATOM     34  C   UNL     1       0.164  -2.874  -0.630  0.00  0.00    -0.030 A 
ATOM     35  C   UNL     1       0.067  -2.102   0.512  0.00  0.00    +0.005 A 
ATOM     36  C   UNL     1       0.057  -0.723   0.415  0.00  0.00    +0.003 A 
ENDBRANCH  29  34
ENDBRANCH   1  29
TORSDOF 5
