REMARK  Name = ZINC07286279
REMARK  7 active torsions:
REMARK  status: ('A' for Active; 'I' for Inactive)
REMARK    1  A    between atoms: C_1  and  O_2
REMARK    2  A    between atoms: O_2  and  C_3
REMARK    3  A    between atoms: C_3  and  C_5
REMARK    4  A    between atoms: C_12  and  C_16
REMARK    5  A    between atoms: C_16  and  S_17
REMARK    6  A    between atoms: S_17  and  C_18
REMARK    7  A    between atoms: N_19  and  C_20
REMARK                            x       y       z     vdW  Elec       q    Type
REMARK                         _______ _______ _______ _____ _____    ______ ____
ROOT
ATOM      1  C   UNL     1       0.680  -2.090   1.091  0.00  0.00    +0.061 A 
ATOM      2  C   UNL     1       0.096  -2.850   0.069  0.00  0.00    +0.016 A 
ATOM      3  C   UNL     1       0.141  -4.215   0.107  0.00  0.00    +0.016 A 
ATOM      4  C   UNL     1       0.773  -4.859   1.169  0.00  0.00    +0.065 A 
ATOM      5  C   UNL     1       1.366  -4.108   2.207  0.00  0.00    +0.079 A 
ATOM      6  C   UNL     1       1.319  -2.713   2.156  0.00  0.00    +0.043 A 
ATOM      7  N   UNL     1       1.973  -4.761   3.229  0.00  0.00    -0.233 NA
ATOM      8  C   UNL     1       2.022  -6.057   3.276  0.00  0.00    +0.121 A 
ATOM      9  N   UNL     1       1.480  -6.860   2.324  0.00  0.00    -0.310 N 
ATOM     10  C   UNL     1       0.846  -6.328   1.253  0.00  0.00    +0.259 A 
ATOM     11  O   UNL     1       0.355  -7.035   0.393  0.00  0.00    -0.267 OA
ATOM     12  H   UNL     1       1.548  -7.824   2.412  0.00  0.00    +0.170 HD
ENDROOT
BRANCH   1  13
ATOM     13  C   UNL     1       0.620  -0.613   1.032  0.00  0.00    +0.339 C 
ATOM     14  O   UNL     1       1.129   0.051   1.913  0.00  0.00    -0.245 OA
BRANCH  13  16
ATOM     15  C   UNL     1      -0.017   1.425   0.010  0.00  0.00    +0.280 C 
ATOM     16  O   UNL     1       0.002  -0.004   0.002  0.00  0.00    -0.464 OA
ENDBRANCH  13  16
ENDBRANCH   1  13
BRANCH   8  17
ATOM     17  C   UNL     1       2.716  -6.705   4.446  0.00  0.00    +0.151 C 
BRANCH  17  18
ATOM     18  S   UNL     1       3.346  -5.421   5.562  0.00  0.00    -0.085 S 
BRANCH  18  19
ATOM     19  C   UNL     1       4.120  -6.327   6.861  0.00  0.00    +0.126 C 
ATOM     20  N   UNL     1       4.687  -5.693   7.849  0.00  0.00    -0.365 N 
ATOM     21  N   UNL     1       4.126  -7.702   6.831  0.00  0.00    -0.339 N 
ATOM     22  H   UNL     1       3.704  -8.173   6.096  0.00  0.00    +0.144 HD
ATOM     23  H   UNL     1       4.551  -8.200   7.546  0.00  0.00    +0.144 HD
ATOM     24  H   UNL     1       4.683  -4.723   7.870  0.00  0.00    +0.162 HD
BRANCH  20  25
ATOM     25  C   UNL     1       5.330  -6.446   8.929  0.00  0.00    +0.081 C 
ATOM     26  C   UNL     1       4.298  -6.785  10.024  0.00  0.00    +0.024 C 
ATOM     27  C   UNL     1       5.091  -6.652  11.348  0.00  0.00    +0.002 C 
ATOM     28  C   UNL     1       6.003  -5.430  11.078  0.00  0.00    +0.002 C 
ATOM     29  C   UNL     1       6.414  -5.584   9.599  0.00  0.00    +0.024 C 
ENDBRANCH  20  25
ENDBRANCH  18  19
ENDBRANCH  17  18
ENDBRANCH   8  17
TORSDOF 6
