REMARK  Name = ZINC54727004
REMARK  13 active torsions:
REMARK  status: ('A' for Active; 'I' for Inactive)
REMARK    1  A    between atoms: C_1  and  C_2
REMARK    2  A    between atoms: C_5  and  C_26
REMARK    3  A    between atoms: N_8  and  C_10
REMARK    4  A    between atoms: C_10  and  C_11
REMARK    5  A    between atoms: C_10  and  C_12
REMARK    6  A    between atoms: C_10  and  C_13
REMARK    7  A    between atoms: C_13  and  N_14
REMARK    8  A    between atoms: N_17  and  N_18
REMARK    9  A    between atoms: C_19  and  O_21
REMARK   10  A    between atoms: O_21  and  C_22
REMARK   11  A    between atoms: C_22  and  C_23
REMARK   12  A    between atoms: C_22  and  C_24
REMARK   13  A    between atoms: C_22  and  C_25
REMARK                            x       y       z     vdW  Elec       q    Type
REMARK                         _______ _______ _______ _____ _____    ______ ____
ROOT
ATOM      1  N   UNL     1       2.001   1.661   3.436  0.00  0.00    -0.300 N 
ATOM      2  C   UNL     1       1.527   2.460   4.412  0.00  0.00    +0.316 C 
ATOM      3  O   UNL     1       1.211   1.985   5.486  0.00  0.00    -0.251 OA
ATOM      4  N   UNL     1       1.403   3.785   4.198  0.00  0.00    -0.216 N 
ATOM      5  H   UNL     1       2.253   2.039   2.579  0.00  0.00    +0.150 HD
ATOM      6  H   UNL     1       1.062   4.359   4.901  0.00  0.00    +0.174 HD
ENDROOT
BRANCH   4   7
ATOM      7  N   UNL     1       1.767   4.331   2.961  0.00  0.00    -0.198 N 
ATOM      8  C   UNL     1       1.643   5.656   2.747  0.00  0.00    +0.417 C 
ATOM      9  O   UNL     1       1.959   6.130   1.674  0.00  0.00    -0.225 OA
ATOM     10  H   UNL     1       2.109   3.756   2.258  0.00  0.00    +0.176 HD
BRANCH   8  11
ATOM     11  O   UNL     1       1.169   6.454   3.722  0.00  0.00    -0.444 OA
BRANCH  11  12
ATOM     12  C   UNL     1       1.065   7.848   3.426  0.00  0.00    +0.107 C 
ATOM     13  C   UNL     1       0.122   8.048   2.238  0.00  0.00    +0.055 C 
ATOM     14  C   UNL     1       0.511   8.588   4.646  0.00  0.00    +0.055 C 
ATOM     15  C   UNL     1       2.448   8.401   3.079  0.00  0.00    +0.055 C 
ENDBRANCH  11  12
ENDBRANCH   8  11
ENDBRANCH   4   7
BRANCH   1  16
ATOM     16  C   UNL     1       2.136   0.221   3.668  0.00  0.00    +0.093 C 
BRANCH  16  17
ATOM     17  C   UNL     1       2.570  -0.467   2.372  0.00  0.00    -0.055 C 
ATOM     18  C   UNL     1       2.629  -1.980   2.592  0.00  0.00    -0.008 C 
ATOM     19  C   UNL     1       3.953   0.043   1.963  0.00  0.00    -0.008 C 
BRANCH  17  25
ATOM     20  C   UNL     1      -0.774   1.282   0.483  0.00  0.00    +0.005 C 
ATOM     21  C   UNL     1      -0.757  -0.239   0.650  0.00  0.00    -0.031 C 
ATOM     22  C   UNL     1      -0.373  -0.895  -0.679  0.00  0.00    +0.003 C 
ATOM     23  C   UNL     1       1.047  -0.466  -1.058  0.00  0.00    -0.031 C 
ATOM     24  C   UNL     1       2.007  -0.843   0.073  0.00  0.00    -0.075 C 
ATOM     25  N   UNL     1       1.602  -0.164   1.310  0.00  0.00    +0.384 N 
ATOM     26  C   UNL     1       0.269  -0.624   1.718  0.00  0.00    -0.075 C 
ATOM     27  C   UNL     1       1.470  -1.177  -2.345  0.00  0.00    +0.005 C 
ATOM     28  H   UNL     1       1.579   0.833   1.153  0.00  0.00    -0.081 HD
ENDBRANCH  17  25
ENDBRANCH  16  17
ENDBRANCH   1  16
TORSDOF 6
