REMARK  Name = ZINC37946525
REMARK  7 active torsions:
REMARK  status: ('A' for Active; 'I' for Inactive)
REMARK    1  A    between atoms: C_3  and  C_6
REMARK    2  A    between atoms: C_6  and  N_7
REMARK    3  A    between atoms: N_7  and  C_8
REMARK    4  A    between atoms: C_8  and  C_10
REMARK    5  A    between atoms: C_8  and  C_20
REMARK    6  A    between atoms: C_13  and  O_16
REMARK    7  A    between atoms: O_16  and  C_17
REMARK                            x       y       z     vdW  Elec       q    Type
REMARK                         _______ _______ _______ _____ _____    ______ ____
ROOT
ATOM      1  C   UNL     1       5.617   2.501   1.346  0.00  0.00    +0.047 C 
ENDROOT
BRANCH   1   2
ATOM      2  C   UNL     1       6.146   2.547   2.756  0.00  0.00    -0.053 A 
ATOM      3  C   UNL     1       5.325   2.965   3.788  0.00  0.00    +0.006 A 
ATOM      4  C   UNL     1       5.807   3.009   5.082  0.00  0.00    +0.046 A 
ATOM      5  C   UNL     1       7.116   2.632   5.346  0.00  0.00    +0.127 A 
ATOM      6  C   UNL     1       7.937   2.213   4.310  0.00  0.00    +0.046 A 
ATOM      7  C   UNL     1       7.449   2.166   3.018  0.00  0.00    +0.006 A 
BRANCH   5   8
ATOM      8  O   UNL     1       7.593   2.675   6.618  0.00  0.00    -0.434 OA
BRANCH   8   9
ATOM      9  C   UNL     1       8.950   2.273   6.816  0.00  0.00    +0.541 C 
ATOM     10  F   UNL     1       9.109   0.947   6.399  0.00  0.00    -0.166 F 
ATOM     11  F   UNL     1       9.795   3.101   6.070  0.00  0.00    -0.166 F 
ENDBRANCH   8   9
ENDBRANCH   5   8
ENDBRANCH   1   2
BRANCH   1  12
ATOM     12  C   UNL     1       5.649   3.885   0.752  0.00  0.00    +0.201 C 
ATOM     13  O   UNL     1       4.621   4.407   0.375  0.00  0.00    -0.277 OA
ATOM     14  N   UNL     1       6.819   4.544   0.640  0.00  0.00    -0.330 N 
ATOM     15  H   UNL     1       7.641   4.127   0.942  0.00  0.00    +0.145 HD
ATOM     16  H   UNL     1       6.840   5.436   0.258  0.00  0.00    +0.145 HD
ENDBRANCH   1  12
BRANCH   1  17
ATOM     17  N   UNL     1       4.235   2.004   1.357  0.00  0.00    +0.392 N 
ATOM     18  H   UNL     1       3.645   2.663   1.842  0.00  0.00    -0.084 HD
ATOM     19  H   UNL     1       4.202   1.113   1.828  0.00  0.00    -0.084 HD
BRANCH  17  20
ATOM     20  C   UNL     1       3.761   1.845  -0.024  0.00  0.00    -0.038 C 
BRANCH  20  23
ATOM     21  C   UNL     1      -0.016   1.351   0.009  0.00  0.00    +0.008 A 
ATOM     22  C   UNL     1       1.183   2.038   0.002  0.00  0.00    +0.009 A 
ATOM     23  C   UNL     1       2.343   1.336  -0.013  0.00  0.00    -0.027 A 
ATOM     24  S   UNL     1       1.754  -0.349  -0.017  0.00  0.00    -0.104 S 
ATOM     25  C   UNL     1       0.002  -0.004   0.002  0.00  0.00    +0.045 A 
ENDBRANCH  20  23
ENDBRANCH  17  20
ENDBRANCH   1  17
TORSDOF 7
