REMARK  Name = ZINC11592628
REMARK  15 active torsions:
REMARK  status: ('A' for Active; 'I' for Inactive)
REMARK    1  A    between atoms: C_1  and  C_2
REMARK    2  A    between atoms: C_2  and  C_3
REMARK    3  A    between atoms: C_3  and  C_4
REMARK    4  A    between atoms: C_7  and  C_11
REMARK    5  A    between atoms: C_10  and  N_61
REMARK    6  A    between atoms: N_13  and  C_14
REMARK    7  A    between atoms: C_14  and  C_16
REMARK    8  A    between atoms: C_14  and  C_32
REMARK    9  A    between atoms: C_18  and  O_31
REMARK   10  A    between atoms: C_20  and  O_30
REMARK   11  A    between atoms: C_22  and  O_29
REMARK   12  A    between atoms: C_24  and  S_27
REMARK   13  A    between atoms: S_27  and  C_28
REMARK   14  A    between atoms: C_32  and  C_34
REMARK   15  A    between atoms: C_32  and  O_35
REMARK                            x       y       z     vdW  Elec       q    Type
REMARK                         _______ _______ _______ _____ _____    ______ ____
ROOT
ATOM      1  C   UNL     1      -5.491   0.774  -2.379  0.00  0.00    +0.132 C 
ENDROOT
BRANCH   1   2
ATOM      2  C   UNL     1      -6.572   1.697  -2.946  0.00  0.00    +0.173 C 
ATOM      3  C   UNL     1      -5.927   2.723  -3.883  0.00  0.00    +0.176 C 
ATOM      4  C   UNL     1      -5.277   1.989  -5.060  0.00  0.00    +0.177 C 
ATOM      5  C   UNL     1      -6.339   1.142  -5.768  0.00  0.00    +0.184 C 
ATOM      6  C   UNL     1      -6.967   0.177  -4.759  0.00  0.00    +0.207 C 
ATOM      7  O   UNL     1      -7.526   0.922  -3.675  0.00  0.00    -0.356 OA
BRANCH   6   8
ATOM      8  S   UNL     1      -8.275  -0.781  -5.572  0.00  0.00    -0.131 S 
ATOM      9  C   UNL     1      -8.806  -1.963  -4.302  0.00  0.00    +0.087 C 
ENDBRANCH   6   8
BRANCH   5  10
ATOM     10  O   UNL     1      -7.350   1.995  -6.307  0.00  0.00    -0.386 OA
ATOM     11  H   UNL     1      -8.059   1.524  -6.766  0.00  0.00    +0.210 HD
ENDBRANCH   5  10
BRANCH   4  12
ATOM     12  O   UNL     1      -4.737   2.943  -5.977  0.00  0.00    -0.386 OA
ATOM     13  H   UNL     1      -4.315   2.547  -6.752  0.00  0.00    +0.210 HD
ENDBRANCH   4  12
BRANCH   3  14
ATOM     14  O   UNL     1      -4.932   3.460  -3.171  0.00  0.00    -0.387 OA
ATOM     15  H   UNL     1      -4.481   4.129  -3.704  0.00  0.00    +0.210 HD
ENDBRANCH   3  14
ENDBRANCH   1   2
BRANCH   1  18
ATOM     16  C   UNL     1      -3.255   1.114  -1.474  0.00  0.00    +0.200 C 
ATOM     17  O   UNL     1      -2.932   0.046  -1.951  0.00  0.00    -0.278 OA
ATOM     18  N   UNL     1      -4.513   1.569  -1.632  0.00  0.00    -0.309 N 
ATOM     19  H   UNL     1      -4.771   2.423  -1.251  0.00  0.00    +0.149 HD
BRANCH  16  22
ATOM     20  C   UNL     1      -0.323   1.488   0.699  0.00  0.00    -0.029 C 
ATOM     21  C   UNL     1      -1.843   1.188   0.584  0.00  0.00    -0.005 C 
ATOM     22  C   UNL     1      -2.248   1.932  -0.706  0.00  0.00    +0.019 C 
ATOM     23  C   UNL     1       0.106   1.488  -0.789  0.00  0.00    -0.075 C 
ATOM     24  C   UNL     1      -1.185   1.518  -2.847  0.00  0.00    -0.095 C 
ATOM     25  N   UNL     1      -1.020   2.122  -1.499  0.00  0.00    +0.386 N 
ATOM     26  H   UNL     1      -0.834   3.126  -1.602  0.00  0.00    -0.081 HD
BRANCH  20  27
ATOM     27  C   UNL     1       0.399   0.386   1.477  0.00  0.00    +0.001 C 
BRANCH  27  29
ATOM     28  C   UNL     1       2.617  -0.402   2.317  0.00  0.00    +0.004 C 
ATOM     29  C   UNL     1       1.895   0.701   1.538  0.00  0.00    -0.003 C 
ENDBRANCH  27  29
ENDBRANCH  20  27
ENDBRANCH  16  22
ENDBRANCH   1  18
BRANCH   1  30
ATOM     30  C   UNL     1      -6.136  -0.251  -1.444  0.00  0.00    +0.134 C 
ATOM     31  C   UNL     1      -5.044  -1.093  -0.781  0.00  0.00    +0.039 C 
BRANCH  30  32
ATOM     32  O   UNL     1      -6.890   0.429  -0.439  0.00  0.00    -0.390 OA
ATOM     33  H   UNL     1      -7.327  -0.161   0.191  0.00  0.00    +0.210 HD
ENDBRANCH  30  32
ENDBRANCH   1  30
TORSDOF 11
