REMARK  Name = ZINC41153645
REMARK  5 active torsions:
REMARK  status: ('A' for Active; 'I' for Inactive)
REMARK    1  A    between atoms: C_1  and  C_2
REMARK    2  A    between atoms: C_7  and  C_8
REMARK    3  A    between atoms: C_8  and  C_9
REMARK    4  A    between atoms: C_11  and  C_14
REMARK    5  A    between atoms: C_14  and  N_20
REMARK                            x       y       z     vdW  Elec       q    Type
REMARK                         _______ _______ _______ _____ _____    ______ ____
ROOT
ATOM      1  C   UNL     1      -1.391   0.382   2.893  0.00  0.00    +0.232 A 
ATOM      2  N   UNL     1      -2.183  -0.360   3.616  0.00  0.00    -0.197 NA
ATOM      3  C   UNL     1      -3.367   0.243   3.767  0.00  0.00    +0.161 A 
ATOM      4  N   UNL     1      -3.344   1.382   3.137  0.00  0.00    -0.063 NA
ATOM      5  O   UNL     1      -2.052   1.498   2.559  0.00  0.00    -0.338 OA
ENDROOT
BRANCH   3   6
ATOM      6  C   UNL     1      -4.539  -0.308   4.539  0.00  0.00    -0.006 C 
ATOM      7  C   UNL     1      -4.968  -1.644   3.930  0.00  0.00    -0.005 C 
ATOM      8  C   UNL     1      -6.157  -2.203   4.714  0.00  0.00    -0.001 C 
ATOM      9  C   UNL     1      -7.323  -1.214   4.646  0.00  0.00    -0.000 C 
ATOM     10  C   UNL     1      -6.893   0.123   5.255  0.00  0.00    -0.001 C 
ATOM     11  C   UNL     1      -5.704   0.681   4.471  0.00  0.00    -0.005 C 
BRANCH   6  12
ATOM     12  N   UNL     1      -4.149  -0.511   5.941  0.00  0.00    +0.387 N 
ATOM     13  H   UNL     1      -3.866   0.370   6.342  0.00  0.00    -0.089 HD
ATOM     14  H   UNL     1      -4.934  -0.879   6.457  0.00  0.00    -0.089 HD
ATOM     15  H   UNL     1      -3.381  -1.163   5.985  0.00  0.00    -0.089 HD
ENDBRANCH   6  12
ENDBRANCH   3   6
BRANCH   1  16
ATOM     16  C   UNL     1       0.025   0.045   2.504  0.00  0.00    +0.134 C 
BRANCH  16  23
ATOM     17  C   UNL     1      -0.018   1.503   0.010  0.00  0.00    +0.044 C 
ATOM     18  C   UNL     1       0.002  -0.004   0.002  0.00  0.00    -0.047 A 
ATOM     19  C   UNL     1       0.006  -0.689  -1.199  0.00  0.00    +0.003 A 
ATOM     20  C   UNL     1       0.025  -2.071  -1.207  0.00  0.00    +0.000 A 
ATOM     21  C   UNL     1       0.040  -2.768  -0.013  0.00  0.00    +0.000 A 
ATOM     22  C   UNL     1       0.037  -2.084   1.188  0.00  0.00    +0.004 A 
ATOM     23  C   UNL     1       0.023  -0.702   1.195  0.00  0.00    -0.035 A 
ENDBRANCH  16  23
ENDBRANCH   1  16
TORSDOF 4
