REMARK  Name = ZINC08123000
REMARK  3 active torsions:
REMARK  status: ('A' for Active; 'I' for Inactive)
REMARK    1  A    between atoms: C_5  and  C_6
REMARK    2  A    between atoms: N_8  and  N_9
REMARK    3  A    between atoms: C_10  and  C_12
REMARK                            x       y       z     vdW  Elec       q    Type
REMARK                         _______ _______ _______ _____ _____    ______ ____
ROOT
ATOM      1  N   UNL     1       6.077   0.245  -0.056  0.00  0.00    -0.229 N 
ATOM      2  C   UNL     1       7.054   1.173  -0.060  0.00  0.00    +0.276 C 
ATOM      3  O   UNL     1       6.769   2.357  -0.050  0.00  0.00    -0.267 OA
ATOM      4  H   UNL     1       6.304  -0.698  -0.064  0.00  0.00    +0.173 HD
ENDROOT
BRANCH   2   5
ATOM      5  C   UNL     1       8.460   0.758  -0.076  0.00  0.00    +0.104 A 
ATOM      6  C   UNL     1       9.557   1.594  -0.088  0.00  0.00    +0.047 A 
ATOM      7  C   UNL     1      10.694   0.780  -0.098  0.00  0.00    +0.036 A 
ATOM      8  C   UNL     1      10.281  -0.511  -0.102  0.00  0.00    +0.098 A 
ATOM      9  N   UNL     1       8.926  -0.537  -0.089  0.00  0.00    -0.356 N 
ATOM     10  H   UNL     1       8.376  -1.336  -0.088  0.00  0.00    +0.166 HD
ATOM     11 BR   UNL     1      12.489   1.375  -0.113  0.00  0.00    -0.049 Br
ENDBRANCH   2   5
BRANCH   1  14
ATOM     12  C   UNL     1       3.756  -0.287  -0.036  0.00  0.00    +0.267 C 
ATOM     13  O   UNL     1       4.041  -1.470  -0.046  0.00  0.00    -0.268 OA
ATOM     14  N   UNL     1       4.733   0.642  -0.040  0.00  0.00    -0.230 N 
ATOM     15  H   UNL     1       4.506   1.585  -0.033  0.00  0.00    +0.173 HD
BRANCH  12  20
ATOM     16  C   UNL     1       1.209  -0.657  -0.013  0.00  0.00    +0.022 A 
ATOM     17  C   UNL     1       0.002  -0.004   0.002  0.00  0.00    +0.028 A 
ATOM     18  C   UNL     1      -0.016   1.357   0.009  0.00  0.00    +0.079 A 
ATOM     19  S   UNL     1       1.666   1.775  -0.004  0.00  0.00    -0.072 S 
ATOM     20  C   UNL     1       2.352   0.128  -0.020  0.00  0.00    +0.077 A 
ATOM     21 CL   UNL     1      -1.391   2.416   0.022  0.00  0.00    -0.076 Cl
ENDBRANCH  12  20
ENDBRANCH   1  14
TORSDOF 3
