REMARK  Name = ZINC37629552
REMARK  4 active torsions:
REMARK  status: ('A' for Active; 'I' for Inactive)
REMARK    1  A    between atoms: C_4  and  N_6
REMARK    2  A    between atoms: N_6  and  C_7
REMARK    3  A    between atoms: C_7  and  C_8
REMARK    4  A    between atoms: N_10  and  C_11
REMARK                            x       y       z     vdW  Elec       q    Type
REMARK                         _______ _______ _______ _____ _____    ______ ____
ROOT
ATOM      1  C   UNL     1       1.004  -4.282  -2.223  0.00  0.00    +0.196 C 
ATOM      2  O   UNL     1       1.953  -4.705  -2.849  0.00  0.00    -0.278 OA
ATOM      3  N   UNL     1      -0.250  -4.533  -2.648  0.00  0.00    -0.314 N 
ATOM      4  H   UNL     1      -1.009  -4.194  -2.148  0.00  0.00    +0.149 HD
ENDROOT
BRANCH   3   5
ATOM      5  C   UNL     1      -0.467  -5.318  -3.866  0.00  0.00    +0.076 C 
ATOM      6  C   UNL     1      -1.892  -5.054  -4.421  0.00  0.00    +0.026 C 
ATOM      7  C   UNL     1      -2.641  -6.408  -4.081  0.00  0.00    -0.006 C 
ATOM      8  C   UNL     1      -1.475  -7.372  -4.562  0.00  0.00    +0.009 C 
ATOM      9  C   UNL     1      -0.390  -6.824  -3.544  0.00  0.00    +0.013 C 
ATOM     10  C   UNL     1      -1.146  -7.176  -2.271  0.00  0.00    -0.003 C 
ATOM     11  C   UNL     1      -2.505  -6.395  -2.589  0.00  0.00    -0.004 C 
ATOM     12  C   UNL     1      -3.353  -6.543  -1.402  0.00  0.00    +0.004 C 
ATOM     13  C   UNL     1      -2.316  -6.505  -0.228  0.00  0.00    +0.001 C 
ATOM     14  C   UNL     1      -0.835  -6.527  -0.928  0.00  0.00    +0.004 C 
ENDBRANCH   3   5
BRANCH   1  15
ATOM     15  C   UNL     1       1.228  -3.474  -0.970  0.00  0.00    +0.015 C 
BRANCH  15  16
ATOM     16  N   UNL     1       2.670  -3.342  -0.724  0.00  0.00    +0.387 N 
ATOM     17  H   UNL     1       3.103  -2.876  -1.506  0.00  0.00    -0.085 HD
ATOM     18  H   UNL     1       3.077  -4.258  -0.611  0.00  0.00    -0.085 HD
BRANCH  16  22
ATOM     19  C   UNL     1       3.700  -0.222   0.482  0.00  0.00    -0.002 C 
ATOM     20  C   UNL     1       4.618  -1.083   1.385  0.00  0.00    -0.002 C 
ATOM     21  C   UNL     1       4.391  -2.514   0.838  0.00  0.00    -0.016 C 
ATOM     22  C   UNL     1       2.888  -2.555   0.497  0.00  0.00    -0.071 C 
ATOM     23  C   UNL     1       2.448  -1.098   0.271  0.00  0.00    -0.016 C 
ENDBRANCH  16  22
ENDBRANCH  15  16
ENDBRANCH   1  15
TORSDOF 4
