REMARK  Name = ZINC62997350
REMARK  9 active torsions:
REMARK  status: ('A' for Active; 'I' for Inactive)
REMARK    1  A    between atoms: C_1  and  C_2
REMARK    2  A    between atoms: C_2  and  N_3
REMARK    3  A    between atoms: N_3  and  C_4
REMARK    4  A    between atoms: N_3  and  C_6
REMARK    5  A    between atoms: C_4  and  C_5
REMARK    6  A    between atoms: C_12  and  N_19
REMARK    7  A    between atoms: C_14  and  C_16
REMARK    8  A    between atoms: C_16  and  C_17
REMARK    9  A    between atoms: C_16  and  C_18
REMARK                            x       y       z     vdW  Elec       q    Type
REMARK                         _______ _______ _______ _____ _____    ______ ____
ROOT
ATOM      1  C   UNL     1      -2.016  -0.759   1.228  0.00  0.00    +0.030 A 
ATOM      2  C   UNL     1      -1.345  -0.517   2.431  0.00  0.00    +0.025 A 
ATOM      3  C   UNL     1      -1.948  -0.750   3.627  0.00  0.00    +0.028 A 
ATOM      4  C   UNL     1      -3.265  -1.242   3.668  0.00  0.00    +0.048 A 
ATOM      5  C   UNL     1      -3.948  -1.489   2.453  0.00  0.00    +0.021 A 
ATOM      6  C   UNL     1      -3.310  -1.237   1.231  0.00  0.00    +0.035 A 
ATOM      7  C   UNL     1      -5.273  -1.984   2.501  0.00  0.00    +0.035 A 
ATOM      8  C   UNL     1      -5.839  -2.204   3.747  0.00  0.00    +0.044 A 
ATOM      9  C   UNL     1      -5.102  -1.937   4.893  0.00  0.00    +0.021 A 
ATOM     10  N   UNL     1      -3.874  -1.477   4.836  0.00  0.00    -0.358 N 
ATOM     11  H   UNL     1      -3.395  -1.304   5.662  0.00  0.00    +0.166 HD
ENDROOT
BRANCH   9  12
ATOM     12  C   UNL     1      -5.731  -2.180   6.241  0.00  0.00    +0.029 C 
ATOM     13  C   UNL     1      -7.224  -1.854   6.174  0.00  0.00    +0.013 C 
ATOM     14  C   UNL     1      -5.546  -3.648   6.632  0.00  0.00    +0.013 C 
ENDBRANCH   9  12
BRANCH   7  15
ATOM     15  N   UNL     1      -5.984  -2.241   1.338  0.00  0.00    -0.357 N 
ATOM     16  H   UNL     1      -5.573  -2.082   0.473  0.00  0.00    +0.142 HD
ATOM     17  H   UNL     1      -6.891  -2.581   1.388  0.00  0.00    +0.142 HD
ENDBRANCH   7  15
BRANCH   1  18
ATOM     18  N   UNL     1      -1.372  -0.511   0.012  0.00  0.00    -0.330 N 
BRANCH  18  20
ATOM     19  C   UNL     1      -0.019   1.526   0.010  0.00  0.00    +0.024 C 
ATOM     20  C   UNL     1       0.002  -0.004   0.002  0.00  0.00    +0.102 C 
ENDBRANCH  18  20
BRANCH  18  21
ATOM     21  C   UNL     1      -2.072  -0.758  -1.251  0.00  0.00    +0.102 C 
ATOM     22  C   UNL     1      -1.816  -2.197  -1.703  0.00  0.00    +0.024 C 
ENDBRANCH  18  21
ENDBRANCH   1  18
TORSDOF 5
