REMARK  Name = ZINC33957699
REMARK  4 active torsions:
REMARK  status: ('A' for Active; 'I' for Inactive)
REMARK    1  A    between atoms: C_6  and  C_7
REMARK    2  A    between atoms: N_11  and  N_12
REMARK    3  A    between atoms: N_12  and  C_13
REMARK    4  A    between atoms: C_13  and  N_15
REMARK                            x       y       z     vdW  Elec       q    Type
REMARK                         _______ _______ _______ _____ _____    ______ ____
ROOT
ATOM      1  C   UNL     1      -1.294  -0.773   0.010  0.00  0.00    +0.210 C 
ATOM      2  C   UNL     1      -1.850  -0.825   1.441  0.00  0.00    +0.107 C 
ATOM      3  C   UNL     1      -3.166  -1.580   1.383  0.00  0.00    +0.074 C 
ATOM      4  N   UNL     1      -3.507  -2.429   2.303  0.00  0.00    -0.185 NA
ATOM      5  C   UNL     1      -4.038  -1.297   0.221  0.00  0.00    +0.041 A 
ATOM      6  C   UNL     1      -5.358  -1.743   0.198  0.00  0.00    +0.033 A 
ATOM      7  C   UNL     1      -6.151  -1.470  -0.899  0.00  0.00    +0.042 A 
ATOM      8  C   UNL     1      -5.636  -0.756  -1.969  0.00  0.00    +0.023 A 
ATOM      9  C   UNL     1      -4.328  -0.309  -1.952  0.00  0.00    +0.048 A 
ATOM     10  C   UNL     1      -3.517  -0.573  -0.859  0.00  0.00    +0.130 A 
ATOM     11  O   UNL     1      -2.238  -0.124  -0.841  0.00  0.00    -0.483 OA
ATOM     12 CL   UNL     1      -7.797  -2.021  -0.938  0.00  0.00    -0.084 Cl
ENDROOT
BRANCH   1  18
ATOM     13  C   UNL     1      -0.017   1.378   0.010  0.00  0.00    +0.011 A 
ATOM     14  C   UNL     1       1.170   2.091   0.002  0.00  0.00    +0.050 A 
ATOM     15  C   UNL     1       2.377   1.413  -0.013  0.00  0.00    +0.162 A 
ATOM     16  C   UNL     1       2.396   0.025  -0.020  0.00  0.00    +0.162 A 
ATOM     17  C   UNL     1       1.207  -0.684  -0.013  0.00  0.00    +0.056 A 
ATOM     18  C   UNL     1       0.002  -0.004   0.002  0.00  0.00    -0.003 A 
ATOM     19  O   UNL     1       3.591  -0.632  -0.034  0.00  0.00    -0.488 OA
ATOM     20  C   UNL     1       4.358  -0.510  -1.234  0.00  0.00    +0.232 C 
ATOM     21  C   UNL     1       5.186   0.764  -1.217  0.00  0.00    +0.082 C 
ATOM     22  C   UNL     1       4.323   2.016  -1.220  0.00  0.00    +0.232 C 
ATOM     23  O   UNL     1       3.554   2.104  -0.019  0.00  0.00    -0.488 OA
ENDBRANCH   1  18
BRANCH   4  24
ATOM     24  N   UNL     1      -2.653  -2.669   3.387  0.00  0.00    -0.218 N 
ATOM     25  H   UNL     1      -1.806  -2.200   3.450  0.00  0.00    +0.176 HD
BRANCH  24  26
ATOM     26  C   UNL     1      -3.008  -3.550   4.343  0.00  0.00    +0.147 C 
ATOM     27  S   UNL     1      -1.964  -3.843   5.668  0.00  0.00    -0.017 S 
BRANCH  26  28
ATOM     28  N   UNL     1      -4.184  -4.202   4.255  0.00  0.00    -0.339 N 
ATOM     29  H   UNL     1      -4.776  -4.036   3.505  0.00  0.00    +0.144 HD
ATOM     30  H   UNL     1      -4.440  -4.836   4.943  0.00  0.00    +0.144 HD
ENDBRANCH  26  28
ENDBRANCH  24  26
ENDBRANCH   4  24
TORSDOF 4
