REMARK  Name = ZINC20267633
REMARK  3 active torsions:
REMARK  status: ('A' for Active; 'I' for Inactive)
REMARK    1  A    between atoms: C_6  and  C_7
REMARK    2  A    between atoms: C_17  and  C_20
REMARK    3  A    between atoms: C_20  and  N_21
REMARK                            x       y       z     vdW  Elec       q    Type
REMARK                         _______ _______ _______ _____ _____    ______ ____
ROOT
ATOM      1  C   UNL     1      -0.663  -0.705   0.941  0.00  0.00    +0.247 C 
ATOM      2  O   UNL     1      -1.654  -0.071   1.250  0.00  0.00    -0.270 OA
ATOM      3  N   UNL     1       0.492  -0.063   0.676  0.00  0.00    -0.297 N 
ATOM      4  C   UNL     1       0.543   1.405   0.645  0.00  0.00    +0.113 C 
ATOM      5  C   UNL     1       1.648   1.880   1.593  0.00  0.00    +0.084 C 
ATOM      6  C   UNL     1       2.964   1.194   1.222  0.00  0.00    +0.173 C 
ATOM      7  C   UNL     1       2.819  -0.323   1.363  0.00  0.00    +0.084 C 
ATOM      8  C   UNL     1       1.724  -0.819   0.413  0.00  0.00    +0.113 C 
ATOM      9  O   UNL     1       4.007   1.657   2.095  0.00  0.00    -0.346 OA
ATOM     10  C   UNL     1       4.650   2.730   1.367  0.00  0.00    +0.193 C 
ATOM     11  C   UNL     1       4.580   2.208  -0.090  0.00  0.00    +0.130 C 
ATOM     12  O   UNL     1       3.313   1.520  -0.129  0.00  0.00    -0.345 OA
ENDROOT
BRANCH   1  18
ATOM     13  C   UNL     1      -0.016  -2.855  -0.137  0.00  0.00    +0.014 A 
ATOM     14  C   UNL     1      -0.073  -4.231  -0.207  0.00  0.00    +0.021 A 
ATOM     15  C   UNL     1      -0.843  -4.942   0.699  0.00  0.00    +0.041 A 
ATOM     16  C   UNL     1      -1.555  -4.276   1.684  0.00  0.00    +0.021 A 
ATOM     17  C   UNL     1      -1.500  -2.901   1.768  0.00  0.00    +0.014 A 
ATOM     18  C   UNL     1      -0.726  -2.179   0.857  0.00  0.00    +0.037 A 
ATOM     19 CL   UNL     1      -0.917  -6.673   0.600  0.00  0.00    -0.084 Cl
ENDBRANCH   1  18
BRANCH  11  20
ATOM     20  C   UNL     1       4.599   3.372  -1.083  0.00  0.00    -0.052 C 
BRANCH  20  21
ATOM     21  N   UNL     1       4.531   2.847  -2.454  0.00  0.00    +0.380 N 
ATOM     22  H   UNL     1       4.545   3.684  -3.168  0.00  0.00    -0.090 HD
ATOM     23  H   UNL     1       3.602   2.272  -2.581  0.00  0.00    -0.090 HD
ATOM     24  H   UNL     1       5.396   2.193  -2.639  0.00  0.00    -0.090 HD
ENDBRANCH  20  21
ENDBRANCH  11  20
TORSDOF 3
