REMARK  Name = ZINC36742983
REMARK  6 active torsions:
REMARK  status: ('A' for Active; 'I' for Inactive)
REMARK    1  A    between atoms: C_1  and  C_2
REMARK    2  A    between atoms: C_4  and  C_7
REMARK    3  A    between atoms: C_7  and  S_8
REMARK    4  A    between atoms: S_8  and  N_11
REMARK    5  A    between atoms: N_11  and  C_12
REMARK    6  A    between atoms: C_15  and  N_19
REMARK                            x       y       z     vdW  Elec       q    Type
REMARK                         _______ _______ _______ _____ _____    ______ ____
ROOT
ATOM      1  N   UNL     1      -2.813  -5.202  -1.591  0.00  0.00    -0.100 NA
ENDROOT
BRANCH   1   2
ATOM      2  C   UNL     1      -3.366  -5.782  -2.741  0.00  0.00    +0.102 A 
ATOM      3  C   UNL     1      -2.537  -6.353  -3.697  0.00  0.00    +0.045 A 
ATOM      4  C   UNL     1      -3.082  -6.926  -4.831  0.00  0.00    +0.040 A 
ATOM      5  C   UNL     1      -4.458  -6.929  -5.014  0.00  0.00    +0.027 A 
ATOM      6  C   UNL     1      -5.287  -6.358  -4.058  0.00  0.00    +0.040 A 
ATOM      7  C   UNL     1      -4.743  -5.791  -2.921  0.00  0.00    +0.045 A 
ATOM      8 BR   UNL     1      -5.873  -5.020  -1.615  0.00  0.00    -0.048 Br
ATOM      9 BR   UNL     1      -0.662  -6.348  -3.449  0.00  0.00    -0.048 Br
BRANCH   5  10
ATOM     10  N   UNL     1      -5.010  -7.508  -6.163  0.00  0.00    -0.358 N 
ATOM     11  H   UNL     1      -4.431  -7.907  -6.831  0.00  0.00    +0.142 HD
ATOM     12  H   UNL     1      -5.971  -7.510  -6.291  0.00  0.00    +0.142 HD
ENDBRANCH   5  10
ENDBRANCH   1   2
BRANCH   1  13
ATOM     13  S   UNL     1      -2.000  -3.764  -1.699  0.00  0.00    +0.068 S 
ATOM     14  O   UNL     1      -2.945  -2.852  -2.241  0.00  0.00    -0.153 OA
ATOM     15  O   UNL     1      -0.806  -4.074  -2.405  0.00  0.00    -0.153 OA
BRANCH  13  16
ATOM     16  C   UNL     1      -1.613  -3.317   0.016  0.00  0.00    +0.249 C 
BRANCH  16  20
ATOM     17  C   UNL     1      -0.610   1.675   0.193  0.00  0.00    +0.089 C 
ATOM     18  C   UNL     1      -0.444   0.179   0.117  0.00  0.00    +0.135 A 
ATOM     19  C   UNL     1      -1.439  -0.729   0.125  0.00  0.00    +0.072 A 
ATOM     20  C   UNL     1      -0.864  -2.009   0.038  0.00  0.00    +0.107 A 
ATOM     21  N   UNL     1       0.430  -1.868  -0.021  0.00  0.00    -0.081 NA
ATOM     22  O   UNL     1       0.720  -0.482   0.023  0.00  0.00    -0.360 OA
ENDBRANCH  16  20
ENDBRANCH  13  16
ENDBRANCH   1  13
TORSDOF 5
