REMARK  Name = ZINC49008650
REMARK  8 active torsions:
REMARK  status: ('A' for Active; 'I' for Inactive)
REMARK    1  A    between atoms: C_1  and  C_2
REMARK    2  A    between atoms: C_6  and  N_23
REMARK    3  A    between atoms: C_7  and  N_8
REMARK    4  A    between atoms: C_9  and  C_11
REMARK    5  A    between atoms: C_11  and  N_12
REMARK    6  A    between atoms: N_12  and  C_13
REMARK    7  A    between atoms: N_12  and  C_14
REMARK    8  A    between atoms: C_19  and  C_22
REMARK                            x       y       z     vdW  Elec       q    Type
REMARK                         _______ _______ _______ _____ _____    ______ ____
ROOT
ATOM      1  N   UNL     1      -0.250  -0.084   2.444  0.00  0.00    -0.285 N 
ATOM      2  C   UNL     1      -0.468  -0.796   3.567  0.00  0.00    +0.201 C 
ATOM      3  O   UNL     1      -0.638  -1.996   3.501  0.00  0.00    -0.278 OA
ATOM      4  H   UNL     1      -0.170   0.882   2.490  0.00  0.00    +0.155 HD
ENDROOT
BRANCH   1  11
ATOM      5  C   UNL     1       1.672  -2.166   2.195  0.00  0.00    +0.046 C 
ATOM      6  C   UNL     1       0.787  -1.758   1.046  0.00  0.00    -0.027 A 
ATOM      7  C   UNL     1       0.892  -2.406  -0.171  0.00  0.00    +0.005 A 
ATOM      8  C   UNL     1       0.083  -2.036  -1.229  0.00  0.00    +0.002 A 
ATOM      9  C   UNL     1      -0.838  -1.016  -1.075  0.00  0.00    +0.024 A 
ATOM     10  C   UNL     1      -0.951  -0.361   0.141  0.00  0.00    +0.046 A 
ATOM     11  C   UNL     1      -0.137  -0.738   1.210  0.00  0.00    +0.057 A 
BRANCH  10  12
ATOM     12  N   UNL     1      -1.882   0.671   0.299  0.00  0.00    -0.357 N 
ATOM     13  H   UNL     1      -2.520   0.861  -0.407  0.00  0.00    +0.142 HD
ATOM     14  H   UNL     1      -1.889   1.198   1.113  0.00  0.00    +0.142 HD
ENDBRANCH  10  12
ENDBRANCH   1  11
BRANCH   2  15
ATOM     15  C   UNL     1      -0.502  -0.103   4.905  0.00  0.00    +0.019 C 
BRANCH  15  16
ATOM     16  N   UNL     1      -0.754  -1.091   5.962  0.00  0.00    +0.385 N 
ATOM     17  C   UNL     1       0.375  -2.027   6.038  0.00  0.00    -0.095 C 
ATOM     18  H   UNL     1      -1.600  -1.600   5.752  0.00  0.00    -0.081 HD
BRANCH  16  19
ATOM     19  C   UNL     1      -0.906  -0.402   7.250  0.00  0.00    -0.068 C 
ATOM     20  C   UNL     1      -1.169  -1.431   8.352  0.00  0.00    -0.015 C 
ATOM     21  C   UNL     1      -1.328  -0.713   9.693  0.00  0.00    -0.001 C 
ATOM     22  C   UNL     1      -2.504   0.262   9.615  0.00  0.00    +0.003 C 
ATOM     23  C   UNL     1      -2.241   1.291   8.513  0.00  0.00    -0.016 C 
ATOM     24  C   UNL     1      -2.083   0.573   7.172  0.00  0.00    -0.012 C 
ATOM     25  C   UNL     1      -3.418   2.266   8.435  0.00  0.00    +0.007 C 
ENDBRANCH  16  19
ENDBRANCH  15  16
ENDBRANCH   2  15
TORSDOF 5
