REMARK  Name = ZINC49563268
REMARK  4 active torsions:
REMARK  status: ('A' for Active; 'I' for Inactive)
REMARK    1  A    between atoms: C_3  and  N_23
REMARK    2  A    between atoms: C_4  and  S_8
REMARK    3  A    between atoms: S_8  and  N_11
REMARK    4  A    between atoms: N_11  and  C_12
REMARK                            x       y       z     vdW  Elec       q    Type
REMARK                         _______ _______ _______ _____ _____    ______ ____
ROOT
ATOM      1  S   UNL     1       3.755  -0.808  -0.080  0.00  0.00    +0.060 S 
ATOM      2  O   UNL     1       4.421  -0.367   1.095  0.00  0.00    -0.153 OA
ATOM      3  O   UNL     1       3.325  -2.152  -0.254  0.00  0.00    -0.153 OA
ENDROOT
BRANCH   1   7
ATOM      4  C   UNL     1       0.073   1.796  -0.535  0.00  0.00    +0.017 A 
ATOM      5  C   UNL     1       0.358   0.838  -1.489  0.00  0.00    +0.026 A 
ATOM      6  C   UNL     1       1.485   0.038  -1.353  0.00  0.00    +0.051 A 
ATOM      7  C   UNL     1       2.324   0.204  -0.257  0.00  0.00    +0.127 A 
ATOM      8  C   UNL     1       2.034   1.164   0.693  0.00  0.00    +0.045 A 
ATOM      9  C   UNL     1       0.910   1.959   0.554  0.00  0.00    +0.020 A 
ATOM     10 BR   UNL     1       0.517   3.272   1.858  0.00  0.00    -0.050 Br
BRANCH   6  11
ATOM     11  N   UNL     1       1.776  -0.932  -2.315  0.00  0.00    -0.356 N 
ATOM     12  H   UNL     1       1.143  -1.113  -3.028  0.00  0.00    +0.142 HD
ATOM     13  H   UNL     1       2.610  -1.425  -2.271  0.00  0.00    +0.142 HD
ENDBRANCH   6  11
ENDBRANCH   1   7
BRANCH   1  14
ATOM     14  N   UNL     1       4.758  -0.464  -1.351  0.00  0.00    -0.188 NA
ATOM     15  H   UNL     1       4.966  -1.150  -2.005  0.00  0.00    +0.148 HD
BRANCH  14  16
ATOM     16  C   UNL     1       5.333   0.877  -1.489  0.00  0.00    +0.061 C 
ATOM     17  C   UNL     1       6.817   0.894  -1.030  0.00  0.00    +0.000 C 
ATOM     18  C   UNL     1       7.539   1.813  -2.046  0.00  0.00    -0.077 C 
ATOM     19  N   UNL     1       6.494   2.335  -2.929  0.00  0.00    +0.383 N 
ATOM     20  C   UNL     1       5.451   1.275  -2.970  0.00  0.00    -0.050 C 
ATOM     21  C   UNL     1       4.185   1.903  -3.537  0.00  0.00    -0.014 C 
ATOM     22  C   UNL     1       4.491   2.336  -4.979  0.00  0.00    -0.003 C 
ATOM     23  C   UNL     1       5.702   3.268  -5.015  0.00  0.00    -0.019 C 
ATOM     24  C   UNL     1       6.902   2.630  -4.294  0.00  0.00    -0.078 C 
ATOM     25  H   UNL     1       6.093   3.163  -2.514  0.00  0.00    -0.081 HD
ENDBRANCH  14  16
ENDBRANCH   1  14
TORSDOF 4
