REMARK  Name = ZINC64401774
REMARK  4 active torsions:
REMARK  status: ('A' for Active; 'I' for Inactive)
REMARK    1  A    between atoms: C_1  and  C_2
REMARK    2  A    between atoms: C_2  and  C_3
REMARK    3  A    between atoms: C_2  and  N_16
REMARK    4  A    between atoms: N_5  and  C_6
REMARK                            x       y       z     vdW  Elec       q    Type
REMARK                         _______ _______ _______ _____ _____    ______ ____
ROOT
ATOM      1  C   UNL     1      -0.206   1.510   0.069  0.00  0.00    -0.004 C 
ATOM      2  C   UNL     1       0.002  -0.004   0.002  0.00  0.00    +0.016 C 
ENDROOT
BRANCH   2   3
ATOM      3  N   UNL     1      -1.303  -0.678  -0.016  0.00  0.00    +0.388 N 
ATOM      4  C   UNL     1      -1.916  -0.461  -1.325  0.00  0.00    -0.076 C 
ATOM      5  C   UNL     1      -2.814  -1.632  -1.656  0.00  0.00    +0.000 C 
ATOM      6  C   UNL     1      -4.253  -1.316  -1.211  0.00  0.00    +0.105 C 
ATOM      7  N   UNL     1      -4.266  -0.614   0.088  0.00  0.00    -0.311 N 
ATOM      8  C   UNL     1      -3.393  -0.990   1.181  0.00  0.00    +0.088 C 
ATOM      9  C   UNL     1      -2.061  -0.211   1.081  0.00  0.00    -0.059 C 
ATOM     10  C   UNL     1      -5.144   0.444   0.267  0.00  0.00    +0.161 A 
ATOM     11  N   UNL     1      -5.308   1.199   1.333  0.00  0.00    -0.233 NA
ATOM     12  C   UNL     1      -6.196   2.177   1.344  0.00  0.00    +0.120 A 
ATOM     13  C   UNL     1      -6.922   2.364   0.216  0.00  0.00    +0.068 A 
ATOM     14  S   UNL     1      -6.253   1.079  -0.828  0.00  0.00    -0.061 S 
ATOM     15  H   UNL     1      -1.150  -1.668   0.101  0.00  0.00    -0.081 HD
ENDBRANCH   2   3
BRANCH   2  16
ATOM     16  C   UNL     1       0.784  -0.457   1.208  0.00  0.00    +0.200 C 
ATOM     17  O   UNL     1       0.272  -1.198   2.020  0.00  0.00    -0.278 OA
ATOM     18  N   UNL     1       2.054  -0.039   1.383  0.00  0.00    -0.310 N 
ATOM     19  H   UNL     1       2.463   0.553   0.734  0.00  0.00    +0.149 HD
BRANCH  18  20
ATOM     20  C   UNL     1       2.814  -0.479   2.556  0.00  0.00    +0.110 C 
ATOM     21  C   UNL     1       4.311  -0.425   2.241  0.00  0.00    +0.068 C 
ATOM     22  C   UNL     1       5.086  -0.600   3.554  0.00  0.00    +0.231 C 
ATOM     23  O   UNL     1       4.805   0.520   4.394  0.00  0.00    -0.492 OA
ATOM     24  C   UNL     1       3.505   0.871   4.572  0.00  0.00    +0.125 A 
ATOM     25  C   UNL     1       2.507   0.426   3.722  0.00  0.00    +0.014 A 
ATOM     26  C   UNL     1       1.195   0.812   3.938  0.00  0.00    +0.009 A 
ATOM     27  C   UNL     1       0.877   1.638   4.999  0.00  0.00    +0.001 A 
ATOM     28  C   UNL     1       1.871   2.082   5.851  0.00  0.00    +0.004 A 
ATOM     29  C   UNL     1       3.181   1.700   5.640  0.00  0.00    +0.046 A 
ENDBRANCH  18  20
ENDBRANCH   2  16
TORSDOF 3
