REMARK  Name = ZINC28810297
REMARK  4 active torsions:
REMARK  status: ('A' for Active; 'I' for Inactive)
REMARK    1  A    between atoms: C_7  and  N_13
REMARK    2  A    between atoms: C_8  and  C_10
REMARK    3  A    between atoms: N_13  and  S_14
REMARK    4  A    between atoms: S_14  and  C_17
REMARK                            x       y       z     vdW  Elec       q    Type
REMARK                         _______ _______ _______ _____ _____    ______ ____
ROOT
ATOM      1  C   UNL     1      -4.924   3.978  -0.942  0.00  0.00    +0.001 A 
ATOM      2  C   UNL     1      -4.074   5.058  -0.755  0.00  0.00    +0.004 A 
ATOM      3  C   UNL     1      -2.758   4.864  -0.391  0.00  0.00    +0.047 A 
ATOM      4  C   UNL     1      -2.273   3.574  -0.209  0.00  0.00    +0.138 A 
ATOM      5  C   UNL     1      -3.140   2.484  -0.400  0.00  0.00    +0.045 A 
ATOM      6  C   UNL     1      -4.468   2.700  -0.768  0.00  0.00    +0.013 A 
ATOM      7  C   UNL     1      -2.337   1.283  -0.135  0.00  0.00    +0.132 A 
ATOM      8  C   UNL     1      -1.085   1.734   0.186  0.00  0.00    +0.215 A 
ATOM      9  O   UNL     1      -1.067   3.086   0.142  0.00  0.00    -0.448 OA
ENDROOT
BRANCH   8  10
ATOM     10  C   UNL     1       0.020   0.912   0.518  0.00  0.00    +0.279 C 
ATOM     11  O   UNL     1      -0.127  -0.292   0.625  0.00  0.00    -0.267 OA
ATOM     12  N   UNL     1       1.236   1.462   0.711  0.00  0.00    -0.323 N 
ATOM     13  H   UNL     1       2.093   0.824   0.969  0.00  0.00    +0.145 HD
ATOM     14  H   UNL     1       1.369   2.549   0.610  0.00  0.00    +0.145 HD
ENDBRANCH   8  10
BRANCH   7  15
ATOM     15  N   UNL     1      -2.759  -0.035  -0.197  0.00  0.00    -0.093 NA
BRANCH  15  16
ATOM     16  S   UNL     1      -3.469  -0.613  -1.577  0.00  0.00    +0.092 S 
ATOM     17  O   UNL     1      -3.704  -1.998  -1.364  0.00  0.00    -0.148 OA
ATOM     18  O   UNL     1      -4.512   0.294  -1.908  0.00  0.00    -0.148 OA
BRANCH  16  19
ATOM     19  C   UNL     1      -2.274  -0.496  -2.866  0.00  0.00    +0.110 A 
ATOM     20  C   UNL     1      -2.265   0.603  -3.704  0.00  0.00    +0.030 A 
ATOM     21  C   UNL     1      -1.324   0.697  -4.712  0.00  0.00    +0.017 A 
ATOM     22  C   UNL     1      -0.398  -0.315  -4.889  0.00  0.00    +0.018 A 
ATOM     23  C   UNL     1      -0.410  -1.417  -4.054  0.00  0.00    +0.017 A 
ATOM     24  C   UNL     1      -1.348  -1.508  -3.043  0.00  0.00    +0.030 A 
ATOM     25 BR   UNL     1       0.886  -0.190  -6.273  0.00  0.00    -0.050 Br
ENDBRANCH  16  19
ENDBRANCH  15  16
ENDBRANCH   7  15
TORSDOF 4
