REMARK  Name = ZINC18223079
REMARK  5 active torsions:
REMARK  status: ('A' for Active; 'I' for Inactive)
REMARK    1  A    between atoms: C_7  and  C_11
REMARK    2  A    between atoms: C_11  and  C_12
REMARK    3  A    between atoms: C_12  and  N_43
REMARK    4  A    between atoms: C_13  and  N_43
REMARK    5  A    between atoms: N_18  and  C_21
REMARK                            x       y       z     vdW  Elec       q    Type
REMARK                         _______ _______ _______ _____ _____    ______ ____
ROOT
ATOM      1  N   UNL     1       4.504   0.894   1.345  0.00  0.00    +0.387 N 
ATOM      2  H   UNL     1       5.068   1.561   0.805  0.00  0.00    -0.085 HD
ATOM      3  H   UNL     1       4.584  -0.040   0.926  0.00  0.00    -0.085 HD
ENDROOT
BRANCH   1   4
ATOM      4  C   UNL     1       5.002   0.849   2.733  0.00  0.00    +0.026 C 
ATOM      5  C   UNL     1       6.539   0.973   2.755  0.00  0.00    +0.090 C 
ATOM      6  C   UNL     1       6.988  -0.335   3.379  0.00  0.00    +0.225 C 
ATOM      7  O   UNL     1       8.139  -0.656   3.584  0.00  0.00    -0.275 OA
ATOM      8  N   UNL     1       5.912  -1.078   3.668  0.00  0.00    -0.212 N 
ATOM      9  C   UNL     1       4.743  -0.510   3.348  0.00  0.00    +0.213 C 
ATOM     10  O   UNL     1       3.651  -1.005   3.522  0.00  0.00    -0.277 OA
BRANCH   8  11
ATOM     11  C   UNL     1       6.003  -2.347   4.259  0.00  0.00    +0.044 A 
ATOM     12  C   UNL     1       5.540  -2.547   5.552  0.00  0.00    +0.027 A 
ATOM     13  C   UNL     1       5.624  -3.798   6.129  0.00  0.00    +0.040 A 
ATOM     14  C   UNL     1       6.181  -4.851   5.423  0.00  0.00    +0.124 A 
ATOM     15  C   UNL     1       6.649  -4.653   4.135  0.00  0.00    +0.040 A 
ATOM     16  C   UNL     1       6.561  -3.404   3.552  0.00  0.00    +0.027 A 
ATOM     17  F   UNL     1       6.268  -6.074   5.992  0.00  0.00    -0.205 F 
ENDBRANCH   8  11
ENDBRANCH   1   4
BRANCH   1  18
ATOM     18  C   UNL     1       3.092   1.319   1.321  0.00  0.00    -0.077 C 
BRANCH  18  19
ATOM     19  C   UNL     1       2.604   1.357  -0.128  0.00  0.00    +0.018 C 
BRANCH  19  26
ATOM     20  C   UNL     1       0.517   5.555  -0.150  0.00  0.00    +0.001 A 
ATOM     21  C   UNL     1      -0.868   5.470  -0.187  0.00  0.00    +0.002 A 
ATOM     22  C   UNL     1      -1.496   4.244  -0.212  0.00  0.00    +0.026 A 
ATOM     23  C   UNL     1      -0.737   3.078  -0.201  0.00  0.00    +0.047 A 
ATOM     24  C   UNL     1       0.666   3.170  -0.164  0.00  0.00    +0.003 A 
ATOM     25  C   UNL     1       1.282   4.423  -0.138  0.00  0.00    +0.010 A 
ATOM     26  C   UNL     1       1.162   1.791  -0.162  0.00  0.00    -0.024 A 
ATOM     27  C   UNL     1       0.087   0.988  -0.197  0.00  0.00    +0.087 A 
ATOM     28  N   UNL     1      -1.056   1.739  -0.226  0.00  0.00    -0.360 N 
ATOM     29  H   UNL     1      -1.958   1.382  -0.257  0.00  0.00    +0.165 HD
ENDBRANCH  19  26
ENDBRANCH  18  19
ENDBRANCH   1  18
TORSDOF 5
