REMARK  Name = ZINC19682549
REMARK  12 active torsions:
REMARK  status: ('A' for Active; 'I' for Inactive)
REMARK    1  A    between atoms: C_1  and  C_2
REMARK    2  A    between atoms: C_2  and  C_3
REMARK    3  A    between atoms: C_2  and  C_4
REMARK    4  A    between atoms: C_2  and  O_5
REMARK    5  A    between atoms: O_5  and  C_6
REMARK    6  A    between atoms: N_8  and  C_9
REMARK    7  A    between atoms: C_9  and  C_11
REMARK    8  A    between atoms: C_9  and  C_13
REMARK    9  A    between atoms: C_11  and  N_12
REMARK   10  A    between atoms: C_16  and  O_20
REMARK   11  A    between atoms: C_17  and  O_19
REMARK   12  A    between atoms: O_20  and  C_21
REMARK                            x       y       z     vdW  Elec       q    Type
REMARK                         _______ _______ _______ _____ _____    ______ ____
ROOT
ATOM      1  C   UNL     1       2.489   1.043  -0.016  0.00  0.00    +0.089 C 
ENDROOT
BRANCH   1   2
ATOM      2  C   UNL     1       1.176   1.782   0.000  0.00  0.00    -0.025 A 
ATOM      3  C   UNL     1      -0.013   1.076   0.008  0.00  0.00    +0.009 A 
ATOM      4  C   UNL     1      -1.220   1.749   0.017  0.00  0.00    +0.050 A 
ATOM      5  C   UNL     1      -1.240   3.135   0.030  0.00  0.00    +0.161 A 
ATOM      6  C   UNL     1      -0.044   3.845   0.022  0.00  0.00    +0.159 A 
ATOM      7  C   UNL     1       1.163   3.164   0.007  0.00  0.00    +0.054 A 
BRANCH   6   8
ATOM      8  O   UNL     1      -0.059   5.205   0.029  0.00  0.00    -0.503 OA
ATOM      9  H   UNL     1       0.887   5.766   0.022  0.00  0.00    +0.292 HD
ENDBRANCH   6   8
BRANCH   5  10
ATOM     10  O   UNL     1      -2.427   3.799   0.044  0.00  0.00    -0.491 OA
ATOM     11  C   UNL     1      -3.615   3.004   0.052  0.00  0.00    +0.277 C 
ENDBRANCH   5  10
ENDBRANCH   1   2
BRANCH   1  14
ATOM     12  C   UNL     1       3.497  -0.623  -1.481  0.00  0.00    +0.401 C 
ATOM     13  O   UNL     1       4.581  -0.122  -1.257  0.00  0.00    -0.226 OA
ATOM     14  N   UNL     1       2.388  -0.114  -0.908  0.00  0.00    -0.276 N 
ATOM     15  H   UNL     1       1.406  -0.568  -1.111  0.00  0.00    +0.153 HD
BRANCH  12  16
ATOM     16  O   UNL     1       3.403  -1.687  -2.301  0.00  0.00    -0.445 OA
BRANCH  16  18
ATOM     17  C   UNL     1       5.593  -2.607  -1.765  0.00  0.00    +0.055 C 
ATOM     18  C   UNL     1       4.638  -2.181  -2.883  0.00  0.00    +0.107 C 
ATOM     19  C   UNL     1       4.335  -3.383  -3.779  0.00  0.00    +0.055 C 
ATOM     20  C   UNL     1       5.289  -1.075  -3.716  0.00  0.00    +0.055 C 
ENDBRANCH  16  18
ENDBRANCH  12  16
ENDBRANCH   1  14
BRANCH   1  21
ATOM     21  C   UNL     1       2.824   0.567   1.399  0.00  0.00    -0.059 C 
BRANCH  21  22
ATOM     22  N   UNL     1       4.041  -0.255   1.365  0.00  0.00    +0.380 N 
ATOM     23  H   UNL     1       4.282  -0.596   2.382  0.00  0.00    -0.090 HD
ATOM     24  H   UNL     1       4.877   0.344   0.972  0.00  0.00    -0.090 HD
ATOM     25  H   UNL     1       3.877  -1.126   0.714  0.00  0.00    -0.090 HD
ENDBRANCH  21  22
ENDBRANCH   1  21
TORSDOF 8
