REMARK  Name = ZINC03015522
REMARK  3 active torsions:
REMARK  status: ('A' for Active; 'I' for Inactive)
REMARK    1  A    between atoms: C_6  and  S_7
REMARK    2  A    between atoms: S_7  and  N_10
REMARK    3  A    between atoms: N_10  and  N_11
REMARK                            x       y       z     vdW  Elec       q    Type
REMARK                         _______ _______ _______ _____ _____    ______ ____
ROOT
ATOM      1  C   UNL     1       3.658   3.307   0.002  0.00  0.00    +0.030 A 
ATOM      2  C   UNL     1       3.508   2.090   0.643  0.00  0.00    +0.029 A 
ATOM      3  C   UNL     1       2.275   1.461   0.646  0.00  0.00    +0.076 A 
ATOM      4  C   UNL     1       1.189   2.054   0.002  0.00  0.00    +0.144 A 
ATOM      5  C   UNL     1       1.347   3.271  -0.637  0.00  0.00    +0.076 A 
ATOM      6  C   UNL     1       2.582   3.894  -0.636  0.00  0.00    +0.110 A 
ATOM      7  O   UNL     1      -0.017   1.426   0.010  0.00  0.00    -0.481 OA
ATOM      8  C   UNL     1       0.002  -0.004   0.002  0.00  0.00    +0.325 C 
ATOM      9  C   UNL     1       0.998  -0.503   1.018  0.00  0.00    +0.255 C 
ATOM     10  O   UNL     1       0.810  -1.557   1.587  0.00  0.00    -0.272 OA
ATOM     11  N   UNL     1       2.100   0.229   1.291  0.00  0.00    -0.280 N 
ATOM     12  H   UNL     1       2.761  -0.093   1.924  0.00  0.00    +0.155 HD
ENDROOT
BRANCH   6  13
ATOM     13  S   UNL     1       2.783   5.444  -1.449  0.00  0.00    +0.071 S 
ATOM     14  O   UNL     1       1.496   6.045  -1.502  0.00  0.00    -0.152 OA
ATOM     15  O   UNL     1       3.896   6.082  -0.839  0.00  0.00    -0.152 OA
BRANCH  13  16
ATOM     16  N   UNL     1       3.220   5.123  -3.014  0.00  0.00    -0.122 NA
ATOM     17  H   UNL     1       4.065   5.452  -3.358  0.00  0.00    +0.168 HD
BRANCH  16  18
ATOM     18  N   UNL     1       2.391   4.395  -3.819  0.00  0.00    -0.219 NA
ATOM     19  C   UNL     1       3.023   3.130  -4.220  0.00  0.00    +0.132 C 
ATOM     20  C   UNL     1       2.039   2.321  -5.070  0.00  0.00    +0.176 C 
ATOM     21  O   UNL     1       1.634   3.104  -6.196  0.00  0.00    -0.377 OA
ATOM     22  C   UNL     1       1.014   4.344  -5.841  0.00  0.00    +0.176 C 
ATOM     23  C   UNL     1       1.987   5.173  -4.999  0.00  0.00    +0.132 C 
ENDBRANCH  16  18
ENDBRANCH  13  16
ENDBRANCH   6  13
TORSDOF 3
