REMARK  Name = ZINC06501904
REMARK  7 active torsions:
REMARK  status: ('A' for Active; 'I' for Inactive)
REMARK    1  A    between atoms: C_1  and  C_2
REMARK    2  A    between atoms: C_5  and  C_8
REMARK    3  A    between atoms: N_10  and  C_11
REMARK    4  A    between atoms: C_11  and  N_13
REMARK    5  A    between atoms: N_13  and  N_14
REMARK    6  A    between atoms: C_15  and  C_17
REMARK    7  A    between atoms: C_21  and  C_23
REMARK                            x       y       z     vdW  Elec       q    Type
REMARK                         _______ _______ _______ _____ _____    ______ ____
ROOT
ATOM      1  C   UNL     1       2.320   1.243  -0.013  0.00  0.00    +0.153 C 
ATOM      2  S   UNL     1       2.343  -0.469  -0.023  0.00  0.00    -0.017 S 
ENDROOT
BRANCH   1   5
ATOM      3  C   UNL     1      -0.014   1.211   0.009  0.00  0.00    +0.250 C 
ATOM      4  O   UNL     1       0.002  -0.004   0.002  0.00  0.00    -0.270 OA
ATOM      5  N   UNL     1       1.143   1.901   0.001  0.00  0.00    -0.263 N 
ATOM      6  H   UNL     1       1.130   2.871   0.007  0.00  0.00    +0.157 HD
BRANCH   3  11
ATOM      7  C   UNL     1      -5.036   4.020   0.047  0.00  0.00    +0.044 C 
ATOM      8  C   UNL     1      -3.721   3.284   0.037  0.00  0.00    -0.050 A 
ATOM      9  C   UNL     1      -3.706   1.901   0.030  0.00  0.00    +0.004 A 
ATOM     10  C   UNL     1      -2.505   1.221   0.021  0.00  0.00    +0.013 A 
ATOM     11  C   UNL     1      -1.304   1.932   0.019  0.00  0.00    +0.037 A 
ATOM     12  C   UNL     1      -1.327   3.328   0.032  0.00  0.00    +0.013 A 
ATOM     13  C   UNL     1      -2.534   3.995   0.036  0.00  0.00    +0.004 A 
ENDBRANCH   3  11
ENDBRANCH   1   5
BRANCH   1  14
ATOM     14  N   UNL     1       3.478   1.933  -0.021  0.00  0.00    -0.245 N 
ATOM     15  H   UNL     1       4.324   1.459  -0.031  0.00  0.00    +0.172 HD
BRANCH  14  16
ATOM     16  N   UNL     1       3.459   3.333  -0.013  0.00  0.00    -0.231 N 
ATOM     17  C   UNL     1       4.617   4.023  -0.020  0.00  0.00    +0.260 C 
ATOM     18  O   UNL     1       5.677   3.430  -0.034  0.00  0.00    -0.269 OA
ATOM     19  H   UNL     1       2.612   3.807  -0.002  0.00  0.00    +0.173 HD
BRANCH  17  20
ATOM     20  C   UNL     1       4.596   5.501  -0.012  0.00  0.00    +0.038 A 
ATOM     21  C   UNL     1       3.380   6.186  -0.003  0.00  0.00    +0.013 A 
ATOM     22  C   UNL     1       3.368   7.565   0.010  0.00  0.00    +0.001 A 
ATOM     23  C   UNL     1       4.559   8.270   0.003  0.00  0.00    +0.003 A 
ATOM     24  C   UNL     1       5.768   7.598  -0.012  0.00  0.00    -0.050 A 
ATOM     25  C   UNL     1       5.794   6.218  -0.020  0.00  0.00    +0.016 A 
ATOM     26  C   UNL     1       7.060   8.374  -0.020  0.00  0.00    +0.044 C 
ENDBRANCH  17  20
ENDBRANCH  14  16
ENDBRANCH   1  14
TORSDOF 5
