REMARK  Name = ZINC37817572
REMARK  5 active torsions:
REMARK  status: ('A' for Active; 'I' for Inactive)
REMARK    1  A    between atoms: C_6  and  N_7
REMARK    2  A    between atoms: C_13  and  C_15
REMARK    3  A    between atoms: C_15  and  N_16
REMARK    4  A    between atoms: C_17  and  C_19
REMARK    5  A    between atoms: C_19  and  N_20
REMARK                            x       y       z     vdW  Elec       q    Type
REMARK                         _______ _______ _______ _____ _____    ______ ____
ROOT
ATOM      1  C   UNL     1      -0.019   1.526   0.010  0.00  0.00    +0.041 C 
ATOM      2  C   UNL     1       1.420   2.052  -0.001  0.00  0.00    +0.109 C 
ATOM      3  N   UNL     1       2.130   1.465  -1.145  0.00  0.00    -0.300 N 
ATOM      4  C   UNL     1       2.135   0.004  -1.299  0.00  0.00    +0.109 C 
ATOM      5  C   UNL     1       0.688  -0.500  -1.273  0.00  0.00    +0.041 C 
ATOM      6  C   UNL     1       0.002  -0.004   0.002  0.00  0.00    +0.081 C 
ATOM      7  C   UNL     1       2.764   2.251  -2.037  0.00  0.00    +0.233 C 
ATOM      8  O   UNL     1       2.752   3.456  -1.899  0.00  0.00    -0.274 OA
ENDROOT
BRANCH   6   9
ATOM      9  N   UNL     1      -1.372  -0.511   0.046  0.00  0.00    -0.281 N 
ATOM     10  C   UNL     1      -1.930  -1.369   1.102  0.00  0.00    +0.128 C 
ATOM     11  C   UNL     1      -3.388  -1.599   0.658  0.00  0.00    +0.124 C 
ATOM     12  N   UNL     1      -3.496  -0.847  -0.601  0.00  0.00    -0.298 N 
ATOM     13  C   UNL     1      -2.320  -0.262  -0.867  0.00  0.00    +0.303 C 
ATOM     14  O   UNL     1      -2.130   0.428  -1.849  0.00  0.00    -0.253 OA
ATOM     15  H   UNL     1      -4.293  -0.781  -1.150  0.00  0.00    +0.150 HD
ENDBRANCH   6   9
BRANCH   7  16
ATOM     16  C   UNL     1       3.488   1.633  -3.205  0.00  0.00    +0.200 C 
BRANCH  16  17
ATOM     17  N   UNL     1       4.090   2.691  -4.021  0.00  0.00    -0.308 N 
ATOM     18  C   UNL     1       4.792   2.372  -5.127  0.00  0.00    +0.196 C 
ATOM     19  O   UNL     1       4.925   1.210  -5.446  0.00  0.00    -0.278 OA
ATOM     20  H   UNL     1       3.983   3.621  -3.766  0.00  0.00    +0.149 HD
BRANCH  18  21
ATOM     21  C   UNL     1       5.411   3.460  -5.966  0.00  0.00    +0.011 C 
BRANCH  21  22
ATOM     22  N   UNL     1       6.116   2.857  -7.105  0.00  0.00    +0.384 N 
ATOM     23  H   UNL     1       6.531   3.586  -7.667  0.00  0.00    -0.089 HD
ATOM     24  H   UNL     1       6.840   2.242  -6.766  0.00  0.00    -0.089 HD
ATOM     25  H   UNL     1       5.463   2.331  -7.666  0.00  0.00    -0.089 HD
ENDBRANCH  21  22
ENDBRANCH  18  21
ENDBRANCH  16  17
ENDBRANCH   7  16
TORSDOF 5
