REMARK  Name = ZINC55064017
REMARK  9 active torsions:
REMARK  status: ('A' for Active; 'I' for Inactive)
REMARK    1  A    between atoms: C_1  and  C_2
REMARK    2  A    between atoms: C_2  and  C_3
REMARK    3  A    between atoms: C_3  and  C_5
REMARK    4  A    between atoms: C_3  and  N_6
REMARK    5  A    between atoms: N_9  and  C_12
REMARK    6  A    between atoms: C_12  and  C_14
REMARK    7  A    between atoms: C_12  and  C_21
REMARK    8  A    between atoms: C_21  and  C_23
REMARK    9  A    between atoms: C_21  and  N_24
REMARK                            x       y       z     vdW  Elec       q    Type
REMARK                         _______ _______ _______ _____ _____    ______ ____
ROOT
ATOM      1  C   UNL     1      -4.764   2.111  -3.514  0.00  0.00    +0.075 C 
ENDROOT
BRANCH   1   5
ATOM      2  N   UNL     1      -1.595   0.139  -1.528  0.00  0.00    +0.383 N 
ATOM      3  C   UNL     1      -2.950  -0.410  -1.381  0.00  0.00    -0.063 C 
ATOM      4  C   UNL     1      -3.836   0.108  -2.516  0.00  0.00    +0.066 C 
ATOM      5  N   UNL     1      -3.876   1.577  -2.472  0.00  0.00    -0.300 NA
ATOM      6  C   UNL     1      -2.524   2.139  -2.594  0.00  0.00    +0.066 C 
ATOM      7  C   UNL     1      -1.649   1.605  -1.458  0.00  0.00    -0.063 C 
ATOM      8  H   UNL     1      -1.215  -0.141  -2.420  0.00  0.00    -0.081 HD
BRANCH   2   9
ATOM      9  C   UNL     1      -0.741  -0.373  -0.449  0.00  0.00    -0.072 C 
ATOM     10  C   UNL     1      -1.381  -0.053   0.903  0.00  0.00    -0.013 C 
BRANCH   9  12
ATOM     11  C   UNL     1       0.114  -2.204  -1.918  0.00  0.00    +0.002 C 
ATOM     12  C   UNL     1      -0.586  -1.888  -0.595  0.00  0.00    -0.019 C 
ENDBRANCH   9  12
ENDBRANCH   2   9
ENDBRANCH   1   5
BRANCH   1  13
ATOM     13  C   UNL     1      -6.184   1.695  -3.225  0.00  0.00    +0.003 A 
ATOM     14  C   UNL     1      -6.570   1.406  -1.930  0.00  0.00    +0.008 A 
ATOM     15  C   UNL     1      -7.872   1.025  -1.665  0.00  0.00    +0.000 A 
ATOM     16  C   UNL     1      -8.789   0.932  -2.695  0.00  0.00    +0.003 A 
ATOM     17  C   UNL     1      -8.406   1.221  -3.991  0.00  0.00    +0.038 A 
ATOM     18  C   UNL     1      -7.103   1.608  -4.257  0.00  0.00    +0.128 A 
ATOM     19  F   UNL     1      -6.728   1.895  -5.522  0.00  0.00    -0.205 F 
ENDBRANCH   1  13
BRANCH   1  20
ATOM     20  C   UNL     1      -4.673   3.638  -3.528  0.00  0.00    -0.056 C 
ATOM     21  C   UNL     1      -5.552   4.191  -4.651  0.00  0.00    -0.012 C 
BRANCH  20  22
ATOM     22  N   UNL     1      -5.134   4.168  -2.238  0.00  0.00    +0.381 N 
ATOM     23  H   UNL     1      -4.553   3.803  -1.497  0.00  0.00    -0.090 HD
ATOM     24  H   UNL     1      -5.074   5.175  -2.247  0.00  0.00    -0.090 HD
ATOM     25  H   UNL     1      -6.091   3.890  -2.083  0.00  0.00    -0.090 HD
ENDBRANCH  20  22
ENDBRANCH   1  20
TORSDOF 6
