REMARK  Name = ZINC50887790
REMARK  7 active torsions:
REMARK  status: ('A' for Active; 'I' for Inactive)
REMARK    1  A    between atoms: C_1  and  C_2
REMARK    2  A    between atoms: C_2  and  C_3
REMARK    3  A    between atoms: C_3  and  C_4
REMARK    4  A    between atoms: C_4  and  C_5
REMARK    5  A    between atoms: C_5  and  C_7
REMARK    6  A    between atoms: C_5  and  N_8
REMARK    7  A    between atoms: N_8  and  C_9
REMARK                            x       y       z     vdW  Elec       q    Type
REMARK                         _______ _______ _______ _____ _____    ______ ____
ROOT
ATOM      1  C   UNL     1       3.414  -2.390  -3.716  0.00  0.00    +0.049 C 
ATOM      2  C   UNL     1       2.913  -1.526  -4.850  0.00  0.00    -0.030 A 
ATOM      3  C   UNL     1       1.666  -1.335  -5.402  0.00  0.00    +0.004 A 
ATOM      4  C   UNL     1       1.505  -0.459  -6.461  0.00  0.00    +0.001 A 
ATOM      5  C   UNL     1       2.599   0.224  -6.961  0.00  0.00    +0.017 A 
ATOM      6  C   UNL     1       3.851   0.035  -6.410  0.00  0.00    +0.039 A 
ATOM      7  C   UNL     1       4.020  -0.847  -5.343  0.00  0.00    +0.049 A 
ATOM      8  N   UNL     1       5.163  -1.203  -4.626  0.00  0.00    -0.285 N 
ATOM      9  C   UNL     1       4.899  -2.102  -3.658  0.00  0.00    +0.208 C 
ATOM     10  O   UNL     1       5.698  -2.588  -2.886  0.00  0.00    -0.277 OA
ATOM     11 BR   UNL     1       5.339   0.973  -7.104  0.00  0.00    -0.048 Br
ATOM     12  H   UNL     1       6.047  -0.846  -4.806  0.00  0.00    +0.155 HD
ENDROOT
BRANCH   1  13
ATOM     13  N   UNL     1       2.767  -2.009  -2.454  0.00  0.00    +0.391 N 
ATOM     14  H   UNL     1       2.805  -1.007  -2.345  0.00  0.00    -0.084 HD
ATOM     15  H   UNL     1       3.246  -2.450  -1.683  0.00  0.00    -0.084 HD
BRANCH  13  16
ATOM     16  C   UNL     1       1.364  -2.446  -2.472  0.00  0.00    -0.074 C 
ATOM     17  C   UNL     1       1.306  -3.974  -2.506  0.00  0.00    -0.014 C 
BRANCH  16  18
ATOM     18  C   UNL     1       0.655  -1.936  -1.216  0.00  0.00    -0.016 C 
BRANCH  18  19
ATOM     19  C   UNL     1       0.604  -0.407  -1.244  0.00  0.00    -0.002 C 
BRANCH  19  21
ATOM     20  C   UNL     1      -0.157   1.632  -0.016  0.00  0.00    +0.004 C 
ATOM     21  C   UNL     1      -0.105   0.103   0.012  0.00  0.00    -0.003 C 
ENDBRANCH  19  21
ENDBRANCH  18  19
ENDBRANCH  16  18
ENDBRANCH  13  16
ENDBRANCH   1  13
TORSDOF 5
