REMARK  Name = ZINC39763570
REMARK  8 active torsions:
REMARK  status: ('A' for Active; 'I' for Inactive)
REMARK    1  A    between atoms: C_1  and  C_2
REMARK    2  A    between atoms: C_2  and  N_3
REMARK    3  A    between atoms: C_7  and  C_9
REMARK    4  A    between atoms: C_9  and  C_11
REMARK    5  A    between atoms: C_9  and  S_12
REMARK    6  A    between atoms: S_12  and  C_13
REMARK    7  A    between atoms: C_17  and  C_22
REMARK    8  A    between atoms: N_18  and  C_19
REMARK                            x       y       z     vdW  Elec       q    Type
REMARK                         _______ _______ _______ _____ _____    ______ ____
ROOT
ATOM      1  C   UNL     1       2.543  -6.130  -6.041  0.00  0.00    +0.238 C 
ATOM      2  N   UNL     1       2.217  -5.077  -7.017  0.00  0.00    -0.237 N 
ATOM      3  N   UNL     1       3.420  -4.427  -7.318  0.00  0.00    -0.169 NA
ATOM      4  C   UNL     1       4.419  -4.947  -6.655  0.00  0.00    +0.147 C 
ATOM      5  N   UNL     1       3.996  -6.003  -5.839  0.00  0.00    -0.282 N 
ATOM      6  H   UNL     1       1.341  -4.874  -7.381  0.00  0.00    +0.171 HD
ENDROOT
BRANCH   4   7
ATOM      7  C   UNL     1       5.747  -4.504  -6.751  0.00  0.00    +0.022 C 
ATOM      8  C   UNL     1       6.253  -3.533  -7.615  0.00  0.00    +0.006 A 
ATOM      9  C   UNL     1       5.648  -2.731  -8.606  0.00  0.00    +0.010 A 
ATOM     10  C   UNL     1       6.401  -1.848  -9.311  0.00  0.00    +0.001 A 
ATOM     11  C   UNL     1       7.772  -1.710  -9.082  0.00  0.00    +0.002 A 
ATOM     12  C   UNL     1       8.418  -2.448  -8.146  0.00  0.00    +0.026 A 
ATOM     13  C   UNL     1       7.697  -3.391  -7.369  0.00  0.00    +0.043 A 
ATOM     14  N   UNL     1       8.085  -4.214  -6.415  0.00  0.00    -0.380 N 
ATOM     15  C   UNL     1       6.929  -4.976  -5.933  0.00  0.00    +0.152 C 
ATOM     16  H   UNL     1       8.992  -4.298  -6.081  0.00  0.00    +0.160 HD
ENDBRANCH   4   7
BRANCH   5  17
ATOM     17  C   UNL     1       4.832  -6.822  -4.958  0.00  0.00    +0.078 C 
ATOM     18  C   UNL     1       4.973  -8.307  -5.297  0.00  0.00    +0.024 C 
ATOM     19  C   UNL     1       4.131  -7.873  -4.095  0.00  0.00    +0.024 C 
ENDBRANCH   5  17
BRANCH   1  20
ATOM     20  S   UNL     1       1.659  -5.847  -4.483  0.00  0.00    -0.106 S 
BRANCH  20  21
ATOM     21  C   UNL     1       2.170  -4.179  -3.985  0.00  0.00    +0.133 C 
ATOM     22  C   UNL     1       3.669  -4.174  -3.680  0.00  0.00    +0.029 C 
BRANCH  21  27
ATOM     23  N   UNL     1       0.342  -0.782  -1.116  0.00  0.00    -0.299 N 
ATOM     24  C   UNL     1       0.532  -2.089  -1.384  0.00  0.00    +0.306 C 
ATOM     25  O   UNL     1       0.087  -2.935  -0.633  0.00  0.00    -0.252 OA
ATOM     26  N   UNL     1       1.216  -2.459  -2.486  0.00  0.00    -0.239 N 
ATOM     27  C   UNL     1       1.406  -3.766  -2.754  0.00  0.00    +0.233 C 
ATOM     28  O   UNL     1       0.962  -4.609  -2.005  0.00  0.00    -0.274 OA
ATOM     29  H   UNL     1       0.698  -0.107  -1.715  0.00  0.00    +0.150 HD
ATOM     30  H   UNL     1       1.571  -1.784  -3.085  0.00  0.00    +0.159 HD
BRANCH  23  32
ATOM     31  C   UNL     1      -0.472   1.146   0.149  0.00  0.00    +0.024 C 
ATOM     32  C   UNL     1      -0.401  -0.381   0.081  0.00  0.00    +0.102 C 
ENDBRANCH  23  32
ENDBRANCH  21  27
ENDBRANCH  20  21
ENDBRANCH   1  20
TORSDOF 6
