REMARK  Name = ZINC20129810
REMARK  5 active torsions:
REMARK  status: ('A' for Active; 'I' for Inactive)
REMARK    1  A    between atoms: C_1  and  N_2
REMARK    2  A    between atoms: C_13  and  C_16
REMARK    3  A    between atoms: C_20  and  O_23
REMARK    4  A    between atoms: C_21  and  O_22
REMARK    5  A    between atoms: O_23  and  C_24
REMARK                            x       y       z     vdW  Elec       q    Type
REMARK                         _______ _______ _______ _____ _____    ______ ____
ROOT
ATOM      1  C   UNL     1      -0.144   0.970   2.428  0.00  0.00    -0.096 C 
ATOM      2  N   UNL     1      -0.714   1.567   1.213  0.00  0.00    +0.381 N 
ATOM      3  C   UNL     1      -2.156   1.294   1.117  0.00  0.00    -0.074 C 
ATOM      4  C   UNL     1      -2.798   2.217   0.077  0.00  0.00    +0.018 C 
ATOM      5  C   UNL     1      -1.997   2.106  -1.216  0.00  0.00    -0.027 A 
ATOM      6  C   UNL     1      -0.748   1.587  -1.195  0.00  0.00    -0.021 A 
ATOM      7  S   UNL     1      -0.202   1.641  -2.880  0.00  0.00    -0.080 S 
ATOM      8  C   UNL     1      -1.597   2.337  -3.591  0.00  0.00    +0.080 A 
ATOM      9  C   UNL     1      -2.484   2.523  -2.519  0.00  0.00    +0.068 A 
ATOM     10  C   UNL     1      -3.807   3.116  -2.822  0.00  0.00    +0.248 C 
ATOM     11  O   UNL     1      -4.586   3.413  -1.935  0.00  0.00    -0.270 OA
ATOM     12  N   UNL     1      -4.113   3.314  -4.121  0.00  0.00    -0.289 N 
ATOM     13  C   UNL     1      -3.334   2.763  -5.225  0.00  0.00    +0.194 C 
ATOM     14  N   UNL     1      -1.902   2.684  -4.881  0.00  0.00    -0.316 N 
ATOM     15  C   UNL     1      -0.013   1.086   0.008  0.00  0.00    -0.036 C 
ATOM     16  H   UNL     1      -5.003   3.926  -4.328  0.00  0.00    +0.151 HD
ATOM     17  H   UNL     1      -1.140   2.900  -5.645  0.00  0.00    +0.149 HD
ATOM     18  H   UNL     1      -0.577   2.656   1.282  0.00  0.00    -0.082 HD
ENDROOT
BRANCH  13  19
ATOM     19  C   UNL     1      -3.841   1.381  -5.547  0.00  0.00    +0.037 A 
ATOM     20  C   UNL     1      -2.959   0.400  -5.959  0.00  0.00    +0.031 A 
ATOM     21  C   UNL     1      -3.422  -0.870  -6.255  0.00  0.00    +0.045 A 
ATOM     22  C   UNL     1      -4.770  -1.162  -6.141  0.00  0.00    +0.069 A 
ATOM     23  C   UNL     1      -5.658  -0.182  -5.728  0.00  0.00    +0.163 A 
ATOM     24  C   UNL     1      -5.191   1.094  -5.425  0.00  0.00    +0.165 A 
ATOM     25 CL   UNL     1      -2.310  -2.099  -6.772  0.00  0.00    -0.083 Cl
BRANCH  24  26
ATOM     26  O   UNL     1      -6.059   2.057  -5.014  0.00  0.00    -0.503 OA
ATOM     27  H   UNL     1      -7.130   1.827  -4.917  0.00  0.00    +0.292 HD
ENDBRANCH  24  26
BRANCH  23  28
ATOM     28  O   UNL     1      -6.983  -0.467  -5.615  0.00  0.00    -0.491 OA
ATOM     29  C   UNL     1      -7.390  -1.798  -5.938  0.00  0.00    +0.277 C 
ENDBRANCH  23  28
ENDBRANCH  13  19
TORSDOF 3
