REMARK  Name = ZINC16391965
REMARK  15 active torsions:
REMARK  status: ('A' for Active; 'I' for Inactive)
REMARK    1  A    between atoms: C_1  and  C_2
REMARK    2  A    between atoms: C_5  and  N_36
REMARK    3  A    between atoms: C_7  and  N_8
REMARK    4  A    between atoms: C_9  and  C_11
REMARK    5  A    between atoms: C_11  and  S_12
REMARK    6  A    between atoms: S_12  and  C_13
REMARK    7  A    between atoms: C_16  and  C_21
REMARK    8  A    between atoms: N_17  and  C_18
REMARK    9  A    between atoms: C_18  and  C_19
REMARK   10  A    between atoms: C_21  and  C_23
REMARK   11  A    between atoms: C_21  and  N_24
REMARK   12  A    between atoms: C_25  and  C_27
REMARK   13  A    between atoms: C_27  and  C_28
REMARK   14  A    between atoms: C_31  and  O_34
REMARK   15  A    between atoms: O_34  and  C_35
REMARK                            x       y       z     vdW  Elec       q    Type
REMARK                         _______ _______ _______ _____ _____    ______ ____
ROOT
ATOM      1  C   UNL     1      -1.117   2.272  -0.012  0.00  0.00    +0.192 A 
ATOM      2  N   UNL     1      -0.683   3.510  -0.012  0.00  0.00    -0.122 NA
ATOM      3  N   UNL     1       0.602   3.522  -0.033  0.00  0.00    -0.132 NA
ATOM      4  C   UNL     1       1.061   2.303  -0.043  0.00  0.00    +0.155 A 
ATOM      5  N   UNL     1      -0.018   1.462  -0.027  0.00  0.00    -0.301 N 
ENDROOT
BRANCH   4   6
ATOM      6  C   UNL     1       2.511   1.895  -0.068  0.00  0.00    +0.138 C 
ATOM      7  C   UNL     1       3.126   2.113   1.316  0.00  0.00    +0.036 C 
BRANCH   6   8
ATOM      8  N   UNL     1       3.230   2.704  -1.055  0.00  0.00    -0.305 N 
ATOM      9  C   UNL     1       4.357   2.231  -1.623  0.00  0.00    +0.218 C 
ATOM     10  O   UNL     1       4.776   1.134  -1.317  0.00  0.00    -0.275 OA
ATOM     11  H   UNL     1       2.895   3.581  -1.300  0.00  0.00    +0.149 HD
BRANCH   9  12
ATOM     12  C   UNL     1       5.096   3.063  -2.639  0.00  0.00    +0.130 C 
BRANCH  12  13
ATOM     13  C   UNL     1       6.311   2.311  -3.116  0.00  0.00    -0.038 A 
ATOM     14  C   UNL     1       7.519   2.465  -2.461  0.00  0.00    +0.007 A 
ATOM     15  C   UNL     1       8.633   1.772  -2.893  0.00  0.00    +0.046 A 
ATOM     16  C   UNL     1       8.543   0.931  -3.993  0.00  0.00    +0.120 A 
ATOM     17  C   UNL     1       7.331   0.783  -4.652  0.00  0.00    +0.046 A 
ATOM     18  C   UNL     1       6.218   1.474  -4.212  0.00  0.00    +0.007 A 
BRANCH  16  19
ATOM     19  O   UNL     1       9.639   0.252  -4.423  0.00  0.00    -0.495 OA
ATOM     20  C   UNL     1      10.853   0.453  -3.696  0.00  0.00    +0.277 C 
ENDBRANCH  16  19
ENDBRANCH  12  13
ENDBRANCH   9  12
ENDBRANCH   6   8
ENDBRANCH   4   6
BRANCH   1  21
ATOM     21  S   UNL     1      -2.800   1.752   0.006  0.00  0.00    -0.077 S 
BRANCH  21  22
ATOM     22  C   UNL     1      -3.627   3.362   0.020  0.00  0.00    +0.173 C 
BRANCH  22  24
ATOM     23  N   UNL     1      -5.944   4.226   0.049  0.00  0.00    -0.285 N 
ATOM     24  C   UNL     1      -5.120   3.160   0.037  0.00  0.00    +0.227 C 
ATOM     25  O   UNL     1      -5.580   2.038   0.040  0.00  0.00    -0.275 OA
ATOM     26  H   UNL     1      -5.578   5.121   0.128  0.00  0.00    +0.155 HD
BRANCH  23  33
ATOM     27  C   UNL     1      -7.648   6.243   1.111  0.00  0.00    +0.045 C 
ATOM     28  C   UNL     1      -8.195   5.002   0.453  0.00  0.00    -0.029 A 
ATOM     29  C   UNL     1      -9.561   4.818   0.351  0.00  0.00    +0.007 A 
ATOM     30  C   UNL     1     -10.063   3.680  -0.252  0.00  0.00    +0.033 A 
ATOM     31  C   UNL     1      -9.202   2.723  -0.755  0.00  0.00    +0.128 A 
ATOM     32  C   UNL     1      -7.836   2.903  -0.661  0.00  0.00    +0.056 A 
ATOM     33  C   UNL     1      -7.328   4.043  -0.051  0.00  0.00    +0.038 A 
BRANCH  31  34
ATOM     34  N   UNL     1      -9.744   1.506  -1.401  0.00  0.00    +0.056 N 
ATOM     35  O   UNL     1     -10.949   1.349  -1.489  0.00  0.00    -0.126 OA
ATOM     36  O   UNL     1      -8.986   0.663  -1.845  0.00  0.00    -0.126 OA
ENDBRANCH  31  34
ENDBRANCH  23  33
ENDBRANCH  22  24
ENDBRANCH  21  22
ENDBRANCH   1  21
BRANCH   5  37
ATOM     37  C   UNL     1       0.003  -0.003  -0.031  0.00  0.00    +0.152 C 
BRANCH  37  38
ATOM     38  C   UNL     1       0.034  -0.508   1.388  0.00  0.00    -0.013 C 
ATOM     39  C   UNL     1      -0.877  -1.354   1.802  0.00  0.00    +0.005 C 
ENDBRANCH  37  38
ENDBRANCH   5  37
TORSDOF 12
