REMARK  Name = ZINC63887357
REMARK  4 active torsions:
REMARK  status: ('A' for Active; 'I' for Inactive)
REMARK    1  A    between atoms: C_1  and  O_2
REMARK    2  A    between atoms: O_2  and  C_3
REMARK    3  A    between atoms: C_6  and  C_10
REMARK    4  A    between atoms: C_8  and  O_9
REMARK                            x       y       z     vdW  Elec       q    Type
REMARK                         _______ _______ _______ _____ _____    ______ ____
ROOT
ATOM      1  C   UNL     1       2.507  -2.501  -4.386  0.00  0.00    +0.111 C 
ATOM      2  C   UNL     1       1.519  -2.611  -5.550  0.00  0.00    +0.128 C 
ATOM      3  C   UNL     1       1.227  -1.183  -5.997  0.00  0.00    -0.035 C 
ATOM      4  C   UNL     1      -0.091  -1.044  -5.971  0.00  0.00    -0.001 A 
ATOM      5  C   UNL     1      -0.970   0.066  -6.373  0.00  0.00    +0.010 A 
ATOM      6  C   UNL     1      -2.303  -0.129  -6.194  0.00  0.00    +0.001 A 
ATOM      7  C   UNL     1      -2.844  -1.304  -5.662  0.00  0.00    +0.002 A 
ATOM      8  C   UNL     1      -2.112  -2.378  -5.272  0.00  0.00    +0.026 A 
ATOM      9  C   UNL     1      -0.697  -2.294  -5.417  0.00  0.00    +0.043 A 
ATOM     10  N   UNL     1       0.237  -3.186  -5.147  0.00  0.00    -0.376 N 
ATOM     11  C   UNL     1       2.336  -0.198  -6.280  0.00  0.00    +0.048 C 
ATOM     12  C   UNL     1       3.307  -0.290  -5.089  0.00  0.00    +0.086 C 
ATOM     13  N   UNL     1       3.654  -1.691  -4.827  0.00  0.00    -0.307 NA
ATOM     14  H   UNL     1       4.418  -1.758  -4.171  0.00  0.00    +0.123 HD
ATOM     15  H   UNL     1       0.108  -4.062  -4.751  0.00  0.00    +0.160 HD
ENDROOT
BRANCH   1  19
ATOM     16  C   UNL     1       0.603  -0.609  -1.058  0.00  0.00    +0.161 A 
ATOM     17  C   UNL     1       0.602   0.004  -2.300  0.00  0.00    +0.050 A 
ATOM     18  C   UNL     1       1.218  -0.610  -3.374  0.00  0.00    +0.009 A 
ATOM     19  C   UNL     1       1.837  -1.836  -3.212  0.00  0.00    -0.025 A 
ATOM     20  C   UNL     1       1.842  -2.453  -1.975  0.00  0.00    +0.054 A 
ATOM     21  C   UNL     1       1.231  -1.839  -0.893  0.00  0.00    +0.159 A 
BRANCH  16  23
ATOM     22  C   UNL     1      -0.627   1.257  -0.243  0.00  0.00    +0.277 C 
ATOM     23  O   UNL     1      -0.003  -0.005   0.000  0.00  0.00    -0.491 OA
ENDBRANCH  16  23
BRANCH  21  24
ATOM     24  O   UNL     1       1.240  -2.442   0.326  0.00  0.00    -0.503 OA
ATOM     25  H   UNL     1       0.487  -3.028   0.481  0.00  0.00    +0.292 HD
ENDBRANCH  21  24
ENDBRANCH   1  19
TORSDOF 3
