REMARK  Name = ZINC35932786
REMARK  4 active torsions:
REMARK  status: ('A' for Active; 'I' for Inactive)
REMARK    1  A    between atoms: C_4  and  N_7
REMARK    2  A    between atoms: C_8  and  N_28
REMARK    3  A    between atoms: C_9  and  N_19
REMARK    4  A    between atoms: C_10  and  C_12
REMARK                            x       y       z     vdW  Elec       q    Type
REMARK                         _______ _______ _______ _____ _____    ______ ____
ROOT
ATOM      1  N   UNL     1       3.667  -0.719  -0.293  0.00  0.00    -0.216 N 
ATOM      2  C   UNL     1       3.773  -2.022   0.097  0.00  0.00    +0.142 A 
ATOM      3  C   UNL     1       5.089  -2.273   0.343  0.00  0.00    +0.103 A 
ATOM      4  C   UNL     1       5.807  -1.085   0.095  0.00  0.00    +0.116 A 
ATOM      5  N   UNL     1       4.951  -0.160  -0.291  0.00  0.00    -0.163 NA
ENDROOT
BRANCH   3   6
ATOM      6  N   UNL     1       5.636  -3.502   0.770  0.00  0.00    -0.265 N 
ATOM      7  C   UNL     1       6.841  -3.898   0.315  0.00  0.00    +0.307 C 
ATOM      8  O   UNL     1       7.414  -3.244  -0.536  0.00  0.00    -0.252 OA
ATOM      9  N   UNL     1       7.410  -5.018   0.801  0.00  0.00    -0.284 N 
ATOM     10  C   UNL     1       6.657  -5.871   1.722  0.00  0.00    +0.120 C 
ATOM     11  C   UNL     1       6.380  -7.223   1.056  0.00  0.00    +0.088 C 
ATOM     12  S   UNL     1       7.966  -7.968   0.570  0.00  0.00    -0.158 S 
ATOM     13  C   UNL     1       8.749  -6.661  -0.423  0.00  0.00    +0.088 C 
ATOM     14  C   UNL     1       8.772  -5.371   0.397  0.00  0.00    +0.120 C 
ATOM     15  H   UNL     1       5.144  -4.061   1.392  0.00  0.00    +0.157 HD
ENDBRANCH   3   6
BRANCH   4  16
ATOM     16  C   UNL     1       7.272  -0.908   0.238  0.00  0.00    +0.004 A 
ATOM     17  C   UNL     1       7.970  -1.613   1.218  0.00  0.00    +0.011 A 
ATOM     18  C   UNL     1       9.333  -1.445   1.347  0.00  0.00    +0.020 A 
ATOM     19  C   UNL     1      10.009  -0.577   0.506  0.00  0.00    +0.041 A 
ATOM     20  C   UNL     1       9.321   0.126  -0.468  0.00  0.00    +0.020 A 
ATOM     21  C   UNL     1       7.958  -0.040  -0.610  0.00  0.00    +0.011 A 
ATOM     22 CL   UNL     1      11.724  -0.369   0.674  0.00  0.00    -0.084 Cl
ENDBRANCH   4  16
BRANCH   1  26
ATOM     23  C   UNL     1       0.142   1.249  -1.329  0.00  0.00    +0.000 A 
ATOM     24  C   UNL     1       1.150   1.935  -0.677  0.00  0.00    +0.002 A 
ATOM     25  C   UNL     1       2.319   1.286  -0.332  0.00  0.00    +0.028 A 
ATOM     26  C   UNL     1       2.482  -0.058  -0.641  0.00  0.00    +0.067 A 
ATOM     27  C   UNL     1       1.468  -0.745  -1.295  0.00  0.00    +0.028 A 
ATOM     28  C   UNL     1       0.301  -0.090  -1.637  0.00  0.00    +0.002 A 
ENDBRANCH   1  26
BRANCH   2  29
ATOM     29  N   UNL     1       2.722  -2.932   0.222  0.00  0.00    -0.342 N 
ATOM     30  H   UNL     1       1.806  -2.633   0.116  0.00  0.00    +0.144 HD
ATOM     31  H   UNL     1       2.909  -3.864   0.414  0.00  0.00    +0.144 HD
ENDBRANCH   2  29
TORSDOF 4
