REMARK  Name = ZINC29185441
REMARK  6 active torsions:
REMARK  status: ('A' for Active; 'I' for Inactive)
REMARK    1  A    between atoms: C_1  and  C_2
REMARK    2  A    between atoms: N_8  and  C_9
REMARK    3  A    between atoms: C_9  and  C_10
REMARK    4  A    between atoms: C_10  and  C_11
REMARK    5  A    between atoms: C_11  and  N_12
REMARK    6  A    between atoms: N_12  and  C_13
REMARK                            x       y       z     vdW  Elec       q    Type
REMARK                         _______ _______ _______ _____ _____    ______ ____
ROOT
ATOM      1  C   UNL     1       3.001   5.370   0.002  0.00  0.00    +0.081 C 
ATOM      2  C   UNL     1       4.290   5.847   0.097  0.00  0.00    +0.058 C 
ATOM      3  C   UNL     1       5.357   5.039   0.723  0.00  0.00    +0.000 A 
ATOM      4  C   UNL     1       5.107   3.773   1.240  0.00  0.00    +0.009 A 
ATOM      5  C   UNL     1       6.137   3.057   1.816  0.00  0.00    +0.001 A 
ATOM      6  C   UNL     1       7.416   3.591   1.881  0.00  0.00    +0.001 A 
ATOM      7  C   UNL     1       7.683   4.844   1.373  0.00  0.00    +0.013 A 
ATOM      8  C   UNL     1       6.655   5.585   0.787  0.00  0.00    +0.045 A 
ATOM      9  C   UNL     1       6.897   6.924   0.235  0.00  0.00    +0.251 C 
ATOM     10  O   UNL     1       8.014   7.400   0.288  0.00  0.00    -0.270 OA
ATOM     11  N   UNL     1       5.903   7.632  -0.328  0.00  0.00    -0.248 N 
ATOM     12  C   UNL     1       4.646   7.171  -0.428  0.00  0.00    +0.252 C 
ATOM     13  O   UNL     1       3.792   7.860  -0.954  0.00  0.00    -0.270 OA
ATOM     14  H   UNL     1       6.103   8.635  -0.732  0.00  0.00    +0.158 HD
ENDROOT
BRANCH   1  15
ATOM     15  N   UNL     1       2.775   4.032  -0.050  0.00  0.00    -0.349 N 
ATOM     16  H   UNL     1       3.620   3.333  -0.132  0.00  0.00    +0.146 HD
BRANCH  15  17
ATOM     17  C   UNL     1       1.403   3.518   0.004  0.00  0.00    +0.099 C 
BRANCH  17  18
ATOM     18  C   UNL     1       1.427   1.991  -0.072  0.00  0.00    +0.000 C 
BRANCH  18  19
ATOM     19  C   UNL     1      -0.005   1.455  -0.016  0.00  0.00    -0.077 C 
BRANCH  19  26
ATOM     20  C   UNL     1      -2.343   0.062  -0.731  0.00  0.00    -0.013 C 
ATOM     21  C   UNL     1      -1.308  -0.574   0.199  0.00  0.00    -0.072 C 
ATOM     22  C   UNL     1      -1.282  -2.088  -0.028  0.00  0.00    -0.016 C 
ATOM     23  C   UNL     1      -0.230  -2.718   0.890  0.00  0.00    -0.003 C 
ATOM     24  C   UNL     1       1.133  -2.081   0.604  0.00  0.00    -0.019 C 
ATOM     25  C   UNL     1       1.037  -0.568   0.812  0.00  0.00    -0.078 C 
ATOM     26  N   UNL     1       0.018  -0.012  -0.088  0.00  0.00    +0.381 N 
ATOM     27  H   UNL     1       0.288  -0.298  -1.116  0.00  0.00    -0.081 HD
ENDBRANCH  19  26
ENDBRANCH  18  19
ENDBRANCH  17  18
ENDBRANCH  15  17
ENDBRANCH   1  15
TORSDOF 5
