REMARK  Name = ZINC20291836
REMARK  8 active torsions:
REMARK  status: ('A' for Active; 'I' for Inactive)
REMARK    1  A    between atoms: C_3  and  C_10
REMARK    2  A    between atoms: C_5  and  N_7
REMARK    3  A    between atoms: N_11  and  N_12
REMARK    4  A    between atoms: C_16  and  S_19
REMARK    5  A    between atoms: N_17  and  N_18
REMARK    6  A    between atoms: S_19  and  C_20
REMARK    7  A    between atoms: C_20  and  C_21
REMARK    8  A    between atoms: C_21  and  C_23
REMARK                            x       y       z     vdW  Elec       q    Type
REMARK                         _______ _______ _______ _____ _____    ______ ____
ROOT
ATOM      1  N   UNL     1       4.748   4.120  -0.022  0.00  0.00    -0.204 N 
ATOM      2  C   UNL     1       4.735   5.457  -0.016  0.00  0.00    +0.254 A 
ATOM      3  N   UNL     1       3.641   6.245   0.005  0.00  0.00    -0.109 NA
ATOM      4  N   UNL     1       4.000   7.480   0.005  0.00  0.00    -0.119 NA
ATOM      5  C   UNL     1       5.348   7.559  -0.015  0.00  0.00    +0.210 A 
ATOM      6  N   UNL     1       5.832   6.281  -0.022  0.00  0.00    -0.211 N 
ATOM      7  H   UNL     1       5.593   3.644  -0.033  0.00  0.00    +0.177 HD
ENDROOT
BRANCH   6   8
ATOM      8  N   UNL     1       7.144   5.900  -0.036  0.00  0.00    -0.294 N 
ATOM      9  H   UNL     1       7.483   5.803  -0.982  0.00  0.00    +0.163 HD
ATOM     10  H   UNL     1       7.714   6.547   0.487  0.00  0.00    +0.163 HD
ENDBRANCH   6   8
BRANCH   1  12
ATOM     11  C   UNL     1       3.650   2.150  -0.022  0.00  0.00    +0.138 C 
ATOM     12  N   UNL     1       3.637   3.465  -0.015  0.00  0.00    -0.188 NA
BRANCH  11  15
ATOM     13  C   UNL     1      -0.017   1.381   0.010  0.00  0.00    +0.003 A 
ATOM     14  C   UNL     1       1.164   2.091   0.002  0.00  0.00    +0.009 A 
ATOM     15  C   UNL     1       2.389   1.405  -0.013  0.00  0.00    -0.003 A 
ATOM     16  C   UNL     1       2.397   0.001  -0.021  0.00  0.00    +0.042 A 
ATOM     17  C   UNL     1       1.206  -0.690  -0.013  0.00  0.00    +0.127 A 
ATOM     18  C   UNL     1       0.002  -0.004   0.002  0.00  0.00    +0.033 A 
BRANCH  17  19
ATOM     19  N   UNL     1       1.213  -2.170  -0.021  0.00  0.00    +0.056 N 
ATOM     20  O   UNL     1       2.356  -2.824  -0.036  0.00  0.00    -0.126 OA
ATOM     21  O   UNL     1       0.075  -2.833  -0.014  0.00  0.00    -0.126 OA
ENDBRANCH  17  19
ENDBRANCH  11  15
ENDBRANCH   1  12
BRANCH   5  22
ATOM     22  S   UNL     1       6.251   8.952  -0.021  0.00  0.00    -0.076 S 
BRANCH  22  23
ATOM     23  C   UNL     1       5.013  10.277   0.005  0.00  0.00    +0.157 C 
BRANCH  23  24
ATOM     24  C   UNL     1       5.708  11.614   0.001  0.00  0.00    +0.173 C 
ATOM     25  O   UNL     1       6.920  11.668  -0.018  0.00  0.00    -0.291 OA
BRANCH  24  26
ATOM     26  C   UNL     1       4.918  12.855   0.019  0.00  0.00    +0.018 A 
ATOM     27  C   UNL     1       3.520  12.797   0.047  0.00  0.00    +0.012 A 
ATOM     28  C   UNL     1       2.786  13.963   0.065  0.00  0.00    +0.016 A 
ATOM     29  C   UNL     1       3.428  15.191   0.055  0.00  0.00    +0.018 A 
ATOM     30  C   UNL     1       4.812  15.255   0.028  0.00  0.00    +0.016 A 
ATOM     31  C   UNL     1       5.559  14.098   0.016  0.00  0.00    +0.012 A 
ATOM     32 BR   UNL     1       2.412  16.785   0.079  0.00  0.00    -0.050 Br
ENDBRANCH  24  26
ENDBRANCH  23  24
ENDBRANCH  22  23
ENDBRANCH   5  22
TORSDOF 8
