REMARK  Name = ZINC39995868
REMARK  8 active torsions:
REMARK  status: ('A' for Active; 'I' for Inactive)
REMARK    1  A    between atoms: C_1  and  C_2
REMARK    2  A    between atoms: C_2  and  C_4
REMARK    3  A    between atoms: C_2  and  S_15
REMARK    4  A    between atoms: N_6  and  C_7
REMARK    5  A    between atoms: C_8  and  C_12
REMARK    6  A    between atoms: S_15  and  C_16
REMARK    7  A    between atoms: C_20  and  C_25
REMARK    8  A    between atoms: N_21  and  C_22
REMARK                            x       y       z     vdW  Elec       q    Type
REMARK                         _______ _______ _______ _____ _____    ______ ____
ROOT
ATOM      1  C   UNL     1      -2.410  -0.100   1.669  0.00  0.00    +0.238 C 
ATOM      2  N   UNL     1      -1.532  -0.598   2.741  0.00  0.00    -0.237 N 
ATOM      3  N   UNL     1      -0.969   0.529   3.350  0.00  0.00    -0.169 NA
ATOM      4  C   UNL     1      -1.389   1.632   2.788  0.00  0.00    +0.147 C 
ATOM      5  N   UNL     1      -2.281   1.365   1.743  0.00  0.00    -0.282 N 
ATOM      6  H   UNL     1      -1.377  -1.525   2.979  0.00  0.00    +0.171 HD
ENDROOT
BRANCH   4   7
ATOM      7  C   UNL     1      -0.997   2.920   3.184  0.00  0.00    +0.022 C 
ATOM      8  C   UNL     1      -0.199   3.261   4.276  0.00  0.00    +0.006 A 
ATOM      9  C   UNL     1       0.435   2.487   5.272  0.00  0.00    +0.010 A 
ATOM     10  C   UNL     1       1.168   3.101   6.236  0.00  0.00    +0.001 A 
ATOM     11  C   UNL     1       1.315   4.489   6.271  0.00  0.00    +0.002 A 
ATOM     12  C   UNL     1       0.735   5.293   5.347  0.00  0.00    +0.026 A 
ATOM     13  C   UNL     1      -0.047   4.725   4.309  0.00  0.00    +0.043 A 
ATOM     14  N   UNL     1      -0.703   5.279   3.307  0.00  0.00    -0.380 N 
ATOM     15  C   UNL     1      -1.347   4.229   2.511  0.00  0.00    +0.152 C 
ATOM     16  H   UNL     1      -0.748   6.230   3.124  0.00  0.00    +0.160 HD
ENDBRANCH   4   7
BRANCH   5  17
ATOM     17  C   UNL     1      -2.955   2.347   0.890  0.00  0.00    +0.078 C 
ATOM     18  C   UNL     1      -4.479   2.441   0.988  0.00  0.00    +0.024 C 
ATOM     19  C   UNL     1      -3.828   1.814  -0.247  0.00  0.00    +0.024 C 
ENDBRANCH   5  17
BRANCH   1  20
ATOM     20  S   UNL     1      -1.846  -0.705   0.055  0.00  0.00    -0.106 S 
BRANCH  20  22
ATOM     21  C   UNL     1      -0.104   1.398  -0.093  0.00  0.00    +0.029 C 
ATOM     22  C   UNL     1      -0.129  -0.131  -0.054  0.00  0.00    +0.133 C 
BRANCH  22  23
ATOM     23  C   UNL     1       0.504  -0.676  -1.308  0.00  0.00    +0.230 C 
ATOM     24  O   UNL     1      -0.189  -0.978  -2.256  0.00  0.00    -0.274 OA
ATOM     25  N   UNL     1       1.842  -0.829  -1.376  0.00  0.00    -0.278 N 
ATOM     26  H   UNL     1       2.397  -0.587  -0.618  0.00  0.00    +0.155 HD
BRANCH  25  27
ATOM     27  C   UNL     1       2.425  -1.330  -2.530  0.00  0.00    +0.084 A 
ATOM     28  C   UNL     1       3.771  -1.558  -2.776  0.00  0.00    +0.065 A 
ATOM     29  C   UNL     1       4.109  -2.091  -4.076  0.00  0.00    +0.022 A 
ATOM     30  C   UNL     1       3.074  -2.309  -4.908  0.00  0.00    +0.048 A 
ATOM     31  S   UNL     1       1.663  -1.807  -3.947  0.00  0.00    -0.081 S 
BRANCH  28  32
ATOM     32  C   UNL     1       4.797  -1.272  -1.770  0.00  0.00    +0.244 C 
ATOM     33  O   UNL     1       4.478  -0.823  -0.684  0.00  0.00    -0.270 OA
ATOM     34  N   UNL     1       6.096  -1.507  -2.045  0.00  0.00    -0.325 N 
ATOM     35  H   UNL     1       6.351  -1.865  -2.910  0.00  0.00    +0.145 HD
ATOM     36  H   UNL     1       6.775  -1.318  -1.379  0.00  0.00    +0.145 HD
ENDBRANCH  28  32
ENDBRANCH  25  27
ENDBRANCH  22  23
ENDBRANCH  20  22
ENDBRANCH   1  20
TORSDOF 7
