REMARK  Name = ZINC43287965
REMARK  7 active torsions:
REMARK  status: ('A' for Active; 'I' for Inactive)
REMARK    1  A    between atoms: C_1  and  C_2
REMARK    2  A    between atoms: C_2  and  N_3
REMARK    3  A    between atoms: N_6  and  C_11
REMARK    4  A    between atoms: C_11  and  C_13
REMARK    5  A    between atoms: C_11  and  C_19
REMARK    6  A    between atoms: C_19  and  C_21
REMARK    7  A    between atoms: C_19  and  N_22
REMARK                            x       y       z     vdW  Elec       q    Type
REMARK                         _______ _______ _______ _____ _____    ______ ____
ROOT
ATOM      1  C   UNL     1      -5.521  -1.503   0.118  0.00  0.00    +0.099 C 
ENDROOT
BRANCH   1   5
ATOM      2  N   UNL     1      -1.372  -0.511   0.012  0.00  0.00    -0.293 N 
ATOM      3  C   UNL     1      -2.047  -0.765   1.286  0.00  0.00    +0.127 C 
ATOM      4  C   UNL     1      -3.521  -0.381   1.197  0.00  0.00    +0.128 C 
ATOM      5  N   UNL     1      -4.146  -1.008   0.031  0.00  0.00    -0.286 N 
ATOM      6  C   UNL     1      -3.458  -1.131  -1.121  0.00  0.00    +0.302 C 
ATOM      7  O   UNL     1      -4.003  -1.550  -2.121  0.00  0.00    -0.265 OA
ATOM      8  C   UNL     1      -2.014  -0.738  -1.151  0.00  0.00    +0.302 C 
ATOM      9  O   UNL     1      -1.429  -0.628  -2.208  0.00  0.00    -0.265 OA
BRANCH   2  11
ATOM     10  C   UNL     1      -0.019   1.526   0.010  0.00  0.00    +0.024 C 
ATOM     11  C   UNL     1       0.002  -0.004   0.002  0.00  0.00    +0.105 C 
ENDBRANCH   2  11
ENDBRANCH   1   5
BRANCH   1  12
ATOM     12  C   UNL     1      -5.541  -2.984  -0.163  0.00  0.00    +0.010 A 
ATOM     13  C   UNL     1      -6.269  -3.957   0.437  0.00  0.00    +0.028 A 
ATOM     14  C   UNL     1      -6.123  -5.264   0.010  0.00  0.00    +0.025 A 
ATOM     15  C   UNL     1      -5.255  -5.533  -0.997  0.00  0.00    +0.060 A 
ATOM     16  S   UNL     1      -4.617  -3.909  -1.378  0.00  0.00    -0.099 S 
ATOM     17 BR   UNL     1      -7.117  -6.655   0.818  0.00  0.00    -0.050 Br
ENDBRANCH   1  12
BRANCH   1  18
ATOM     18  C   UNL     1      -6.390  -0.777  -0.911  0.00  0.00    -0.052 C 
ATOM     19  C   UNL     1      -6.371   0.726  -0.626  0.00  0.00    -0.012 C 
BRANCH  18  20
ATOM     20  N   UNL     1      -7.770  -1.274  -0.825  0.00  0.00    +0.381 N 
ATOM     21  H   UNL     1      -8.132  -1.103   0.101  0.00  0.00    -0.090 HD
ATOM     22  H   UNL     1      -8.343  -0.795  -1.504  0.00  0.00    -0.090 HD
ATOM     23  H   UNL     1      -7.783  -2.265  -1.013  0.00  0.00    -0.090 HD
ENDBRANCH  18  20
ENDBRANCH   1  18
TORSDOF 5
