REMARK  Name = ZINC12918814
REMARK  14 active torsions:
REMARK  status: ('A' for Active; 'I' for Inactive)
REMARK    1  A    between atoms: C_1  and  C_2
REMARK    2  A    between atoms: C_2  and  O_3
REMARK    3  A    between atoms: O_3  and  C_4
REMARK    4  A    between atoms: C_4  and  C_6
REMARK    5  A    between atoms: C_10  and  N_11
REMARK    6  A    between atoms: C_12  and  C_14
REMARK    7  A    between atoms: C_14  and  N_59
REMARK    8  A    between atoms: C_15  and  C_16
REMARK    9  A    between atoms: C_15  and  N_59
REMARK   10  A    between atoms: C_16  and  C_17
REMARK   11  A    between atoms: C_16  and  C_18
REMARK   12  A    between atoms: C_19  and  C_20
REMARK   13  A    between atoms: C_19  and  N_59
REMARK   14  A    between atoms: C_24  and  C_28
REMARK                            x       y       z     vdW  Elec       q    Type
REMARK                         _______ _______ _______ _____ _____    ______ ____
ROOT
ATOM      1  N   UNL     1      -0.718   0.835   4.779  0.00  0.00    -0.281 N 
ATOM      2  C   UNL     1      -0.964   1.284   3.532  0.00  0.00    +0.201 C 
ATOM      3  O   UNL     1      -1.972   1.918   3.304  0.00  0.00    -0.278 OA
ATOM      4  H   UNL     1       0.088   0.328   4.961  0.00  0.00    +0.155 HD
ENDROOT
BRANCH   1   9
ATOM      5  C   UNL     1      -1.541   0.723   7.135  0.00  0.00    +0.091 A 
ATOM      6  C   UNL     1      -2.629   1.129   8.010  0.00  0.00    -0.021 A 
ATOM      7  C   UNL     1      -3.611   1.839   7.414  0.00  0.00    -0.004 A 
ATOM      8  S   UNL     1      -3.108   1.979   5.723  0.00  0.00    -0.077 S 
ATOM      9  C   UNL     1      -1.618   1.097   5.800  0.00  0.00    +0.086 A 
ATOM     10  C   UNL     1      -4.847   2.387   8.058  0.00  0.00    +0.046 C 
ATOM     11  C   UNL     1      -5.025   1.704   9.422  0.00  0.00    -0.009 C 
ATOM     12  C   UNL     1      -3.689   1.740  10.169  0.00  0.00    +0.008 C 
ATOM     13  C   UNL     1      -2.690   0.797   9.496  0.00  0.00    +0.037 C 
ATOM     14  C   UNL     1      -6.089   2.447  10.233  0.00  0.00    +0.008 C 
BRANCH   5  15
ATOM     15  C   UNL     1      -0.407  -0.052   7.643  0.00  0.00    +0.342 C 
ATOM     16  O   UNL     1       0.576   0.520   8.075  0.00  0.00    -0.245 OA
BRANCH  15  17
ATOM     17  O   UNL     1      -0.452  -1.400   7.632  0.00  0.00    -0.461 OA
BRANCH  17  19
ATOM     18  C   UNL     1       0.474  -3.612   8.056  0.00  0.00    +0.048 C 
ATOM     19  C   UNL     1       0.708  -2.103   8.150  0.00  0.00    +0.229 C 
ENDBRANCH  17  19
ENDBRANCH  15  17
ENDBRANCH   5  15
ENDBRANCH   1   9
BRANCH   2  20
ATOM     20  C   UNL     1       0.014   0.999   2.422  0.00  0.00    +0.020 C 
BRANCH  20  21
ATOM     21  N   UNL     1      -0.506   1.582   1.167  0.00  0.00    +0.391 N 
ATOM     22  H   UNL     1      -1.471   1.263   1.026  0.00  0.00    -0.080 HD
BRANCH  21  23
ATOM     23  C   UNL     1       0.319   1.137   0.024  0.00  0.00    -0.075 C 
BRANCH  23  24
ATOM     24  C   UNL     1      -0.064  -0.302  -0.326  0.00  0.00    -0.034 C 
ATOM     25  C   UNL     1      -1.509  -0.338  -0.827  0.00  0.00    +0.005 C 
ATOM     26  C   UNL     1       0.869  -0.826  -1.420  0.00  0.00    +0.005 C 
ENDBRANCH  23  24
ENDBRANCH  21  23
BRANCH  21  27
ATOM     27  C   UNL     1      -0.496   3.058   1.254  0.00  0.00    +0.019 C 
BRANCH  27  28
ATOM     28  C   UNL     1      -1.435   3.609   0.212  0.00  0.00    +0.194 C 
ATOM     29  O   UNL     1      -2.107   2.854  -0.458  0.00  0.00    -0.278 OA
ATOM     30  N   UNL     1      -1.527   4.940   0.024  0.00  0.00    -0.331 N 
ATOM     31  H   UNL     1      -0.989   5.544   0.560  0.00  0.00    +0.145 HD
ATOM     32  H   UNL     1      -2.131   5.295  -0.647  0.00  0.00    +0.145 HD
ENDBRANCH  27  28
ENDBRANCH  21  27
ENDBRANCH  20  21
ENDBRANCH   2  20
TORSDOF 10
