REMARK  Name = ZINC15229577
REMARK  5 active torsions:
REMARK  status: ('A' for Active; 'I' for Inactive)
REMARK    1  A    between atoms: C_1  and  C_2
REMARK    2  A    between atoms: C_5  and  N_8
REMARK    3  A    between atoms: C_9  and  C_11
REMARK    4  A    between atoms: C_11  and  N_12
REMARK    5  A    between atoms: N_20  and  N_21
REMARK                            x       y       z     vdW  Elec       q    Type
REMARK                         _______ _______ _______ _____ _____    ______ ____
ROOT
ATOM      1  N   UNL     1       0.420  -6.845   2.495  0.00  0.00    -0.257 N 
ATOM      2  C   UNL     1       1.622  -7.002   3.177  0.00  0.00    +0.047 A 
ATOM      3  C   UNL     1       2.938  -6.762   2.796  0.00  0.00    +0.024 A 
ATOM      4  C   UNL     1       3.970  -7.007   3.679  0.00  0.00    +0.002 A 
ATOM      5  C   UNL     1       3.711  -7.494   4.950  0.00  0.00    +0.001 A 
ATOM      6  C   UNL     1       2.410  -7.738   5.345  0.00  0.00    +0.012 A 
ATOM      7  C   UNL     1       1.364  -7.494   4.463  0.00  0.00    +0.029 A 
ATOM      8  C   UNL     1      -0.106  -7.644   4.566  0.00  0.00    +0.155 C 
ATOM      9  N   UNL     1      -0.794  -8.075   5.596  0.00  0.00    -0.166 NA
ATOM     10  C   UNL     1      -0.628  -7.199   3.259  0.00  0.00    +0.272 C 
ATOM     11  O   UNL     1      -1.799  -7.162   2.930  0.00  0.00    -0.268 OA
ENDROOT
BRANCH   9  12
ATOM     12  N   UNL     1      -2.191  -8.154   5.521  0.00  0.00    -0.248 N 
ATOM     13  C   UNL     1      -2.913  -8.605   6.602  0.00  0.00    +0.187 C 
ATOM     14  N   UNL     1      -4.240  -8.681   6.531  0.00  0.00    -0.370 N 
ATOM     15  N   UNL     1      -2.284  -8.966   7.718  0.00  0.00    -0.370 N 
ATOM     16  H   UNL     1      -2.649  -7.891   4.708  0.00  0.00    +0.192 HD
ATOM     17  H   UNL     1      -4.698  -8.418   5.717  0.00  0.00    +0.159 HD
ATOM     18  H   UNL     1      -1.317  -8.911   7.770  0.00  0.00    +0.159 HD
ATOM     19  H   UNL     1      -2.794  -9.284   8.480  0.00  0.00    +0.159 HD
ATOM     20  H   UNL     1      -4.749  -8.999   7.293  0.00  0.00    +0.159 HD
ENDBRANCH   9  12
BRANCH   1  21
ATOM     21  C   UNL     1       0.309  -6.349   1.121  0.00  0.00    +0.210 C 
BRANCH  21  23
ATOM     22  N   UNL     1       0.059  -4.170  -0.021  0.00  0.00    -0.284 N 
ATOM     23  C   UNL     1       0.175  -4.848   1.138  0.00  0.00    +0.235 C 
ATOM     24  O   UNL     1       0.173  -4.251   2.193  0.00  0.00    -0.274 OA
ATOM     25  H   UNL     1      -0.017  -4.651  -0.860  0.00  0.00    +0.155 HD
BRANCH  22  30
ATOM     26  C   UNL     1       0.008   1.503   0.007  0.00  0.00    +0.044 C 
ATOM     27  C   UNL     1       0.022  -0.004  -0.001  0.00  0.00    -0.050 A 
ATOM     28  C   UNL     1       0.777  -0.692   0.931  0.00  0.00    +0.005 A 
ATOM     29  C   UNL     1       0.791  -2.073   0.927  0.00  0.00    +0.023 A 
ATOM     30  C   UNL     1       0.046  -2.771  -0.014  0.00  0.00    +0.033 A 
ATOM     31  C   UNL     1      -0.712  -2.077  -0.948  0.00  0.00    +0.023 A 
ATOM     32  C   UNL     1      -0.726  -0.696  -0.936  0.00  0.00    +0.005 A 
ENDBRANCH  22  30
ENDBRANCH  21  23
ENDBRANCH   1  21
TORSDOF 4
