REMARK  Name = ZINC67276351
REMARK  11 active torsions:
REMARK  status: ('A' for Active; 'I' for Inactive)
REMARK    1  A    between atoms: C_1  and  C_2
REMARK    2  A    between atoms: C_2  and  N_3
REMARK    3  A    between atoms: N_3  and  C_4
REMARK    4  A    between atoms: N_3  and  C_6
REMARK    5  A    between atoms: C_4  and  C_5
REMARK    6  A    between atoms: C_6  and  C_8
REMARK    7  A    between atoms: C_6  and  C_22
REMARK    8  A    between atoms: C_8  and  N_9
REMARK    9  A    between atoms: C_10  and  C_12
REMARK   10  A    between atoms: C_12  and  C_13
REMARK   11  A    between atoms: C_13  and  C_14
REMARK                            x       y       z     vdW  Elec       q    Type
REMARK                         _______ _______ _______ _____ _____    ______ ____
ROOT
ATOM      1  N   UNL     1      -1.652  -1.626  -0.680  0.00  0.00    -0.316 N 
ATOM      2  C   UNL     1      -2.983  -1.836  -0.628  0.00  0.00    +0.213 C 
ATOM      3  O   UNL     1      -3.522  -2.516  -1.476  0.00  0.00    -0.276 OA
ATOM      4  H   UNL     1      -1.221  -1.083  -0.002  0.00  0.00    +0.149 HD
ENDROOT
BRANCH   1   5
ATOM      5  C   UNL     1      -0.858  -2.218  -1.759  0.00  0.00    +0.096 C 
BRANCH   5   6
ATOM      6  C   UNL     1       0.576  -1.692  -1.684  0.00  0.00    +0.016 C 
BRANCH   6   7
ATOM      7  C   UNL     1       1.478  -2.571  -2.513  0.00  0.00    +0.093 A 
ATOM      8  C   UNL     1       2.279  -3.543  -2.041  0.00  0.00    +0.043 A 
ATOM      9  C   UNL     1       2.939  -4.107  -3.156  0.00  0.00    +0.041 A 
ATOM     10  C   UNL     1       2.502  -3.446  -4.243  0.00  0.00    +0.195 A 
ATOM     11  O   UNL     1       1.613  -2.521  -3.848  0.00  0.00    -0.469 OA
ENDBRANCH   6   7
BRANCH   6  12
ATOM     12  N   UNL     1       0.622  -0.318  -2.202  0.00  0.00    +0.387 N 
ATOM     13  H   UNL     1       0.429  -0.325  -3.193  0.00  0.00    -0.081 HD
BRANCH  12  15
ATOM     14  C   UNL     1      -0.379   1.914  -2.093  0.00  0.00    -0.017 C 
ATOM     15  C   UNL     1      -0.386   0.499  -1.513  0.00  0.00    -0.081 C 
ENDBRANCH  12  15
BRANCH  12  16
ATOM     16  C   UNL     1       1.956   0.250  -1.968  0.00  0.00    -0.081 C 
ATOM     17  C   UNL     1       2.982  -0.483  -2.836  0.00  0.00    -0.017 C 
ENDBRANCH  12  16
ENDBRANCH   6  12
ENDBRANCH   5   6
ENDBRANCH   1   5
BRANCH   2  18
ATOM     18  C   UNL     1      -3.799  -1.228   0.482  0.00  0.00    +0.098 C 
BRANCH  18  19
ATOM     19  C   UNL     1      -5.268  -1.618   0.308  0.00  0.00    +0.041 C 
BRANCH  19  20
ATOM     20  C   UNL     1      -6.098  -1.000   1.435  0.00  0.00    +0.161 C 
ATOM     21  C   UNL     1      -7.554  -1.400   1.308  0.00  0.00    +0.241 C 
ATOM     22  O   UNL     1      -8.011  -2.522   1.351  0.00  0.00    -0.273 OA
ATOM     23  N   UNL     1      -8.235  -0.250   1.137  0.00  0.00    -0.239 N 
ATOM     24  C   UNL     1      -7.420   0.811   1.140  0.00  0.00    +0.307 C 
ATOM     25  O   UNL     1      -7.801   1.957   1.003  0.00  0.00    -0.252 OA
ATOM     26  N   UNL     1      -6.127   0.468   1.313  0.00  0.00    -0.288 N 
ATOM     27  H   UNL     1      -9.197  -0.197   1.026  0.00  0.00    +0.159 HD
ATOM     28  H   UNL     1      -5.365   1.068   1.349  0.00  0.00    +0.151 HD
ENDBRANCH  19  20
ENDBRANCH  18  19
ENDBRANCH   2  18
TORSDOF 9
