REMARK  Name = ZINC43093759
REMARK  5 active torsions:
REMARK  status: ('A' for Active; 'I' for Inactive)
REMARK    1  A    between atoms: C_4  and  C_7
REMARK    2  A    between atoms: N_10  and  C_12
REMARK    3  A    between atoms: C_12  and  C_14
REMARK    4  A    between atoms: C_12  and  C_16
REMARK    5  A    between atoms: C_14  and  N_15
REMARK                            x       y       z     vdW  Elec       q    Type
REMARK                         _______ _______ _______ _____ _____    ______ ____
ROOT
ATOM      1  C   UNL     1       5.762  -3.552  -0.084  0.00  0.00    +0.144 C 
ENDROOT
BRANCH   1   2
ATOM      2  C   UNL     1       6.628  -3.719   1.138  0.00  0.00    -0.009 A 
ATOM      3  C   UNL     1       7.683  -2.854   1.361  0.00  0.00    +0.007 A 
ATOM      4  C   UNL     1       8.477  -3.006   2.482  0.00  0.00    +0.000 A 
ATOM      5  C   UNL     1       8.216  -4.023   3.381  0.00  0.00    +0.001 A 
ATOM      6  C   UNL     1       7.161  -4.888   3.160  0.00  0.00    +0.015 A 
ATOM      7  C   UNL     1       6.363  -4.733   2.040  0.00  0.00    +0.023 A 
ATOM      8 BR   UNL     1       4.916  -5.912   1.740  0.00  0.00    -0.050 Br
ENDBRANCH   1   2
BRANCH   1  12
ATOM      9  C   UNL     1       3.699  -0.690  -0.038  0.00  0.00    +0.205 A 
ATOM     10  N   UNL     1       4.921  -0.140  -0.042  0.00  0.00    -0.108 NA
ATOM     11  N   UNL     1       5.776  -1.106  -0.059  0.00  0.00    -0.045 NA
ATOM     12  N   UNL     1       5.141  -2.225  -0.065  0.00  0.00    -0.157 N 
ATOM     13  N   UNL     1       3.873  -1.996  -0.047  0.00  0.00    -0.130 NA
BRANCH   9  17
ATOM     14  C   UNL     1      -0.017   1.379   0.010  0.00  0.00    +0.000 A 
ATOM     15  C   UNL     1       1.169   2.092   0.002  0.00  0.00    +0.001 A 
ATOM     16  C   UNL     1       2.377   1.425  -0.013  0.00  0.00    +0.012 A 
ATOM     17  C   UNL     1       2.402   0.033  -0.021  0.00  0.00    +0.023 A 
ATOM     18  C   UNL     1       1.205  -0.680  -0.013  0.00  0.00    +0.012 A 
ATOM     19  C   UNL     1       0.002  -0.004   0.002  0.00  0.00    +0.001 A 
ENDBRANCH   9  17
ENDBRANCH   1  12
BRANCH   1  20
ATOM     20  C   UNL     1       6.622  -3.695  -1.341  0.00  0.00    -0.053 C 
BRANCH  20  21
ATOM     21  N   UNL     1       7.148  -5.064  -1.421  0.00  0.00    +0.380 N 
ATOM     22  H   UNL     1       7.715  -5.158  -2.251  0.00  0.00    -0.090 HD
ATOM     23  H   UNL     1       7.710  -5.256  -0.606  0.00  0.00    -0.090 HD
ATOM     24  H   UNL     1       6.381  -5.717  -1.463  0.00  0.00    -0.090 HD
ENDBRANCH  20  21
ENDBRANCH   1  20
TORSDOF 5
