REMARK  Name = ZINC36863244
REMARK  7 active torsions:
REMARK  status: ('A' for Active; 'I' for Inactive)
REMARK    1  A    between atoms: C_1  and  C_2
REMARK    2  A    between atoms: C_6  and  C_10
REMARK    3  A    between atoms: C_11  and  C_13
REMARK    4  A    between atoms: C_15  and  N_21
REMARK    5  A    between atoms: N_17  and  C_18
REMARK    6  A    between atoms: C_18  and  C_19
REMARK    7  A    between atoms: C_18  and  C_20
REMARK                            x       y       z     vdW  Elec       q    Type
REMARK                         _______ _______ _______ _____ _____    ______ ____
ROOT
ATOM      1  C   UNL     1       0.048  -2.338  -3.413  0.00  0.00    +0.107 A 
ATOM      2  C   UNL     1       0.029  -0.980  -3.654  0.00  0.00    +0.055 A 
ATOM      3  C   UNL     1      -0.784  -0.772  -4.777  0.00  0.00    +0.043 A 
ATOM      4  C   UNL     1      -1.237  -1.984  -5.192  0.00  0.00    +0.109 A 
ATOM      5  N   UNL     1      -0.732  -2.944  -4.371  0.00  0.00    -0.339 N 
ENDROOT
BRANCH   1  14
ATOM      6  C   UNL     1      -0.024   0.734   0.631  0.00  0.00    +0.039 C 
ATOM      7  C   UNL     1       0.210  -0.750   0.342  0.00  0.00    +0.133 C 
ATOM      8  C   UNL     1       0.787  -0.912  -1.069  0.00  0.00    +0.139 C 
ATOM      9  N   UNL     1       1.177  -2.319  -1.252  0.00  0.00    -0.289 N 
ATOM     10  C   UNL     1       2.021  -2.943  -0.221  0.00  0.00    +0.099 C 
ATOM     11  C   UNL     1       1.383  -2.682   1.149  0.00  0.00    +0.182 C 
ATOM     12  O   UNL     1       1.134  -1.282   1.294  0.00  0.00    -0.373 OA
ATOM     13  C   UNL     1       3.422  -2.332  -0.262  0.00  0.00    +0.030 C 
ATOM     14  C   UNL     1       0.773  -3.016  -2.333  0.00  0.00    +0.264 C 
ATOM     15  O   UNL     1       1.010  -4.207  -2.413  0.00  0.00    -0.268 OA
ENDBRANCH   1  14
BRANCH   5  16
ATOM     16  C   UNL     1      -0.980  -4.383  -4.487  0.00  0.00    +0.081 C 
ATOM     17  C   UNL     1      -2.488  -4.641  -4.504  0.00  0.00    +0.030 C 
ATOM     18  C   UNL     1      -0.359  -4.905  -5.784  0.00  0.00    +0.030 C 
ENDBRANCH   5  16
BRANCH   3  19
ATOM     19  N   UNL     1      -1.078   0.471  -5.369  0.00  0.00    -0.357 N 
ATOM     20  H   UNL     1      -0.705   1.285  -4.998  0.00  0.00    +0.142 HD
ATOM     21  H   UNL     1      -1.654   0.512  -6.148  0.00  0.00    +0.142 HD
ENDBRANCH   3  19
TORSDOF 3
