REMARK  Name = ZINC50308418
REMARK  5 active torsions:
REMARK  status: ('A' for Active; 'I' for Inactive)
REMARK    1  A    between atoms: C_1  and  C_2
REMARK    2  A    between atoms: C_2  and  C_3
REMARK    3  A    between atoms: C_3  and  C_4
REMARK    4  A    between atoms: N_8  and  C_9
REMARK    5  A    between atoms: C_13  and  N_15
REMARK                            x       y       z     vdW  Elec       q    Type
REMARK                         _______ _______ _______ _____ _____    ______ ____
ROOT
ATOM      1  C   UNL     1      -1.524  -2.258   2.584  0.00  0.00    +0.071 A 
ATOM      2  C   UNL     1      -0.965  -1.026   2.894  0.00  0.00    +0.031 A 
ATOM      3  C   UNL     1      -1.036  -0.537   4.185  0.00  0.00    +0.042 A 
ATOM      4  C   UNL     1      -1.663  -1.275   5.173  0.00  0.00    +0.144 A 
ATOM      5  C   UNL     1      -2.225  -2.511   4.867  0.00  0.00    +0.062 A 
ATOM      6  C   UNL     1      -2.159  -2.999   3.570  0.00  0.00    +0.053 A 
ATOM      7  F   UNL     1      -1.731  -0.796   6.434  0.00  0.00    -0.204 F 
ENDROOT
BRANCH   1  12
ATOM      8  C   UNL     1      -1.666  -2.070   0.127  0.00  0.00    +0.157 A 
ATOM      9  N   UNL     1      -1.489  -2.907  -0.862  0.00  0.00    -0.113 NA
ATOM     10  N   UNL     1      -1.182  -4.073  -0.419  0.00  0.00    -0.023 NA
ATOM     11  N   UNL     1      -1.143  -4.063   0.870  0.00  0.00    -0.039 NA
ATOM     12  N   UNL     1      -1.452  -2.752   1.273  0.00  0.00    -0.197 N 
BRANCH   8  13
ATOM     13  C   UNL     1      -2.035  -0.614   0.010  0.00  0.00    +0.078 C 
BRANCH  13  15
ATOM     14  C   UNL     1      -3.925   1.020   0.028  0.00  0.00    +0.004 C 
ATOM     15  C   UNL     1      -3.549  -0.457   0.159  0.00  0.00    +0.004 C 
ENDBRANCH  13  15
ENDBRANCH   8  13
ENDBRANCH   1  12
BRANCH   5  16
ATOM     16  N   UNL     1      -2.860  -3.257   5.865  0.00  0.00    -0.356 N 
ATOM     17  H   UNL     1      -2.909  -2.913   6.771  0.00  0.00    +0.142 HD
ATOM     18  H   UNL     1      -3.251  -4.119   5.651  0.00  0.00    +0.142 HD
ENDBRANCH   5  16
TORSDOF 4
