REMARK  Name = ZINC39631339
REMARK  11 active torsions:
REMARK  status: ('A' for Active; 'I' for Inactive)
REMARK    1  A    between atoms: C_1  and  C_2
REMARK    2  A    between atoms: C_2  and  C_4
REMARK    3  A    between atoms: C_2  and  N_11
REMARK    4  A    between atoms: C_4  and  C_5
REMARK    5  A    between atoms: C_5  and  C_6
REMARK    6  A    between atoms: C_6  and  C_7
REMARK    7  A    between atoms: C_7  and  C_8
REMARK    8  A    between atoms: C_7  and  C_9
REMARK    9  A    between atoms: C_7  and  O_10
REMARK   10  A    between atoms: C_12  and  C_14
REMARK   11  A    between atoms: C_25  and  C_27
REMARK                            x       y       z     vdW  Elec       q    Type
REMARK                         _______ _______ _______ _____ _____    ______ ____
ROOT
ATOM      1  C   UNL     1      -4.050  -1.425  -0.874  0.00  0.00    +0.100 C 
ATOM      2  C   UNL     1      -4.681  -0.289  -0.037  0.00  0.00    +0.121 C 
ATOM      3  N   UNL     1      -5.234   0.651  -1.039  0.00  0.00    -0.296 N 
ATOM      4  C   UNL     1      -5.801  -0.224  -2.092  0.00  0.00    +0.115 C 
ATOM      5  C   UNL     1      -4.791  -1.381  -2.221  0.00  0.00    -0.004 C 
ATOM      6  C   UNL     1      -3.809  -1.100  -3.354  0.00  0.00    -0.010 C 
ATOM      7  C   UNL     1      -4.560  -1.117  -4.689  0.00  0.00    -0.082 C 
ATOM      8  N   UNL     1      -5.195  -2.427  -4.878  0.00  0.00    +0.379 N 
ATOM      9  C   UNL     1      -6.204  -2.650  -3.836  0.00  0.00    -0.082 C 
ATOM     10  C   UNL     1      -5.523  -2.697  -2.465  0.00  0.00    -0.010 C 
ATOM     11  C   UNL     1      -5.224   1.998  -1.002  0.00  0.00    +0.247 C 
ATOM     12  O   UNL     1      -4.608   2.578  -0.128  0.00  0.00    -0.270 OA
ATOM     13  H   UNL     1      -5.638  -2.457  -5.784  0.00  0.00    -0.086 HD
ATOM     14  H   UNL     1      -4.493  -3.151  -4.825  0.00  0.00    -0.086 HD
ENDROOT
BRANCH  11  15
ATOM     15  C   UNL     1      -5.961   2.772  -2.024  0.00  0.00    +0.038 A 
ATOM     16  C   UNL     1      -6.995   2.173  -2.745  0.00  0.00    +0.013 A 
ATOM     17  C   UNL     1      -7.679   2.900  -3.697  0.00  0.00    +0.002 A 
ATOM     18  C   UNL     1      -7.343   4.220  -3.938  0.00  0.00    +0.015 A 
ATOM     19  C   UNL     1      -6.318   4.820  -3.227  0.00  0.00    +0.019 A 
ATOM     20  C   UNL     1      -5.630   4.106  -2.267  0.00  0.00    +0.028 A 
ATOM     21 BR   UNL     1      -5.865   6.625  -3.566  0.00  0.00    -0.050 Br
ENDBRANCH  11  15
BRANCH   1  23
ATOM     22  N   UNL     1      -1.744  -2.205  -1.311  0.00  0.00    -0.312 N 
ATOM     23  C   UNL     1      -2.578  -1.173  -1.076  0.00  0.00    +0.218 C 
ATOM     24  O   UNL     1      -2.144  -0.042  -1.026  0.00  0.00    -0.275 OA
ATOM     25  H   UNL     1      -2.091  -3.110  -1.350  0.00  0.00    +0.149 HD
BRANCH  22  27
ATOM     26  C   UNL     1       0.385  -1.897  -0.147  0.00  0.00    +0.028 C 
ATOM     27  C   UNL     1      -0.313  -1.960  -1.508  0.00  0.00    +0.070 C 
BRANCH  27  28
ATOM     28  C   UNL     1       0.290  -3.095  -2.338  0.00  0.00    +0.022 C 
BRANCH  28  29
ATOM     29  C   UNL     1      -0.320  -3.080  -3.741  0.00  0.00    +0.005 C 
BRANCH  29  30
ATOM     30  C   UNL     1       0.283  -4.215  -4.571  0.00  0.00    +0.034 C 
BRANCH  30  31
ATOM     31  C   UNL     1      -0.327  -4.200  -5.974  0.00  0.00    +0.061 C 
ATOM     32  C   UNL     1       0.181  -5.408  -6.764  0.00  0.00    +0.041 C 
ATOM     33  C   UNL     1      -1.852  -4.265  -5.868  0.00  0.00    +0.041 C 
BRANCH  31  34
ATOM     34  O   UNL     1       0.053  -2.997  -6.646  0.00  0.00    -0.389 OA
ATOM     35  H   UNL     1       1.009  -2.890  -6.749  0.00  0.00    +0.210 HD
ENDBRANCH  31  34
ENDBRANCH  30  31
ENDBRANCH  29  30
ENDBRANCH  28  29
ENDBRANCH  27  28
ENDBRANCH  22  27
ENDBRANCH   1  23
TORSDOF 8
