REMARK  Name = ZINC52513968
REMARK  13 active torsions:
REMARK  status: ('A' for Active; 'I' for Inactive)
REMARK    1  A    between atoms: C_1  and  C_2
REMARK    2  A    between atoms: C_7  and  N_10
REMARK    3  A    between atoms: N_10  and  C_11
REMARK    4  A    between atoms: N_10  and  C_12
REMARK    5  A    between atoms: C_12  and  C_14
REMARK    6  A    between atoms: C_12  and  C_15
REMARK    7  A    between atoms: C_15  and  C_16
REMARK    8  A    between atoms: C_16  and  C_17
REMARK    9  A    between atoms: C_17  and  N_18
REMARK   10  A    between atoms: N_18  and  C_19
REMARK   11  A    between atoms: C_19  and  C_20
REMARK   12  A    between atoms: C_19  and  C_21
REMARK   13  A    between atoms: C_19  and  C_22
REMARK                            x       y       z     vdW  Elec       q    Type
REMARK                         _______ _______ _______ _____ _____    ______ ____
ROOT
ATOM      1  C   UNL     1       1.507  -4.066   2.268  0.00  0.00    -0.072 C 
ATOM      2  C   UNL     1       2.118  -4.574   3.575  0.00  0.00    -0.013 C 
ENDROOT
BRANCH   1   3
ATOM      3  N   UNL     1       1.556  -2.598   2.241  0.00  0.00    +0.381 N 
ATOM      4  C   UNL     1       0.856  -2.064   3.417  0.00  0.00    -0.095 C 
ATOM      5  H   UNL     1       1.109  -2.262   1.401  0.00  0.00    -0.081 HD
BRANCH   3  11
ATOM      6  C   UNL     1       4.521   1.359   2.082  0.00  0.00    +0.007 C 
ATOM      7  C   UNL     1       4.468  -0.167   2.182  0.00  0.00    -0.016 C 
ATOM      8  C   UNL     1       5.215  -0.782   0.997  0.00  0.00    +0.003 C 
ATOM      9  C   UNL     1       5.162  -2.308   1.097  0.00  0.00    -0.001 C 
ATOM     10  C   UNL     1       3.703  -2.770   1.076  0.00  0.00    -0.015 C 
ATOM     11  C   UNL     1       2.956  -2.155   2.261  0.00  0.00    -0.068 C 
ATOM     12  C   UNL     1       3.009  -0.629   2.161  0.00  0.00    -0.012 C 
ENDBRANCH   3  11
ENDBRANCH   1   3
BRANCH   1  13
ATOM     13  C   UNL     1       0.052  -4.530   2.171  0.00  0.00    -0.017 C 
BRANCH  13  14
ATOM     14  C   UNL     1      -0.525  -4.118   0.815  0.00  0.00    -0.021 C 
BRANCH  14  15
ATOM     15  C   UNL     1      -1.932  -4.700   0.662  0.00  0.00    -0.082 C 
BRANCH  15  16
ATOM     16  N   UNL     1      -2.440  -4.404  -0.684  0.00  0.00    +0.382 N 
ATOM     17  H   UNL     1      -2.418  -3.408  -0.841  0.00  0.00    -0.085 HD
ATOM     18  H   UNL     1      -1.862  -4.865  -1.371  0.00  0.00    -0.085 HD
BRANCH  16  19
ATOM     19  C   UNL     1      -3.822  -4.888  -0.803  0.00  0.00    -0.077 C 
ATOM     20  C   UNL     1      -4.699  -4.189   0.238  0.00  0.00    -0.011 C 
ATOM     21  C   UNL     1      -4.351  -4.580  -2.205  0.00  0.00    -0.011 C 
ATOM     22  C   UNL     1      -3.855  -6.399  -0.566  0.00  0.00    -0.011 C 
ENDBRANCH  16  19
ENDBRANCH  15  16
ENDBRANCH  14  15
ENDBRANCH  13  14
ENDBRANCH   1  13
TORSDOF 7
