REMARK  Name = ZINC29474162
REMARK  5 active torsions:
REMARK  status: ('A' for Active; 'I' for Inactive)
REMARK    1  A    between atoms: C_1  and  C_2
REMARK    2  A    between atoms: C_11  and  C_13
REMARK    3  A    between atoms: C_13  and  S_14
REMARK    4  A    between atoms: S_14  and  C_15
REMARK    5  A    between atoms: N_16  and  C_17
REMARK                            x       y       z     vdW  Elec       q    Type
REMARK                         _______ _______ _______ _____ _____    ______ ____
ROOT
ATOM      1  C   UNL     1       4.805   4.114   0.059  0.00  0.00    +0.132 C 
ENDROOT
BRANCH   1  12
ATOM      2  C   UNL     1      -1.307   1.950   0.366  0.00  0.00    +0.064 C 
ATOM      3  C   UNL     1       0.021   1.238   0.375  0.00  0.00    +0.025 A 
ATOM      4  C   UNL     1       0.057  -0.111   0.455  0.00  0.00    +0.021 A 
ATOM      5  C   UNL     1       1.286  -0.784   0.459  0.00  0.00    +0.005 A 
ATOM      6  C   UNL     1       2.444  -0.070   0.381  0.00  0.00    +0.047 A 
ATOM      7  C   UNL     1       2.387   1.333   0.299  0.00  0.00    +0.141 A 
ATOM      8  N   UNL     1       1.173   1.961   0.297  0.00  0.00    -0.265 N 
ATOM      9  C   UNL     1       1.113   3.308   0.218  0.00  0.00    +0.259 A 
ATOM     10  O   UNL     1       0.035   3.881   0.216  0.00  0.00    -0.267 OA
ATOM     11  C   UNL     1       2.305   4.036   0.139  0.00  0.00    +0.094 A 
ATOM     12  C   UNL     1       3.506   3.354   0.144  0.00  0.00    +0.059 A 
ATOM     13  N   UNL     1       3.518   2.033   0.223  0.00  0.00    -0.233 NA
ENDBRANCH   1  12
BRANCH   1  14
ATOM     14  S   UNL     1       5.598   4.137   1.686  0.00  0.00    -0.087 S 
BRANCH  14  15
ATOM     15  C   UNL     1       7.048   5.062   1.306  0.00  0.00    +0.126 C 
ATOM     16  N   UNL     1       7.247   5.495   0.092  0.00  0.00    -0.365 N 
ATOM     17  N   UNL     1       7.972   5.328   2.291  0.00  0.00    -0.339 N 
ATOM     18  H   UNL     1       8.878   5.906   2.054  0.00  0.00    +0.144 HD
ATOM     19  H   UNL     1       7.804   4.964   3.315  0.00  0.00    +0.144 HD
ATOM     20  H   UNL     1       6.465   5.370  -0.671  0.00  0.00    +0.162 HD
BRANCH  16  21
ATOM     21  C   UNL     1       8.512   6.147  -0.256  0.00  0.00    +0.081 C 
ATOM     22  C   UNL     1       8.259   7.618  -0.645  0.00  0.00    +0.024 C 
ATOM     23  C   UNL     1       9.259   7.883  -1.798  0.00  0.00    +0.002 C 
ATOM     24  C   UNL     1       9.238   6.548  -2.583  0.00  0.00    +0.002 C 
ATOM     25  C   UNL     1       9.134   5.466  -1.488  0.00  0.00    +0.024 C 
ENDBRANCH  16  21
ENDBRANCH  14  15
ENDBRANCH   1  14
TORSDOF 4
