REMARK  Name = ZINC42362387
REMARK  7 active torsions:
REMARK  status: ('A' for Active; 'I' for Inactive)
REMARK    1  A    between atoms: C_1  and  C_2
REMARK    2  A    between atoms: C_3  and  C_21
REMARK    3  A    between atoms: C_7  and  C_8
REMARK    4  A    between atoms: N_9  and  O_10
REMARK    5  A    between atoms: N_12  and  C_13
REMARK    6  A    between atoms: N_12  and  C_14
REMARK    7  A    between atoms: C_14  and  C_15
REMARK                            x       y       z     vdW  Elec       q    Type
REMARK                         _______ _______ _______ _____ _____    ______ ____
ROOT
ATOM      1  C   UNL     1       0.054   1.502   0.046  0.00  0.00    +0.046 C 
ATOM      2  C   UNL     1       0.037  -0.005   0.019  0.00  0.00    -0.016 A 
ATOM      3  C   UNL     1      -0.048  -0.697  -1.178  0.00  0.00    +0.035 A 
ATOM      4  N   UNL     1      -0.061  -2.015  -1.181  0.00  0.00    -0.280 N 
ATOM      5  N   UNL     1       0.002  -2.711  -0.105  0.00  0.00    -0.158 NA
ATOM      6  C   UNL     1       0.086  -2.151   1.093  0.00  0.00    +0.152 A 
ATOM      7  C   UNL     1       0.113  -0.748   1.201  0.00  0.00    +0.064 A 
ATOM      8  N   UNL     1       0.152  -2.941   2.230  0.00  0.00    -0.312 N 
ATOM      9  C   UNL     1       1.452  -3.390   2.735  0.00  0.00    +0.131 C 
ATOM     10  C   UNL     1      -0.125   0.059  -2.480  0.00  0.00    +0.065 C 
ATOM     11  H   UNL     1      -0.122  -2.479  -2.031  0.00  0.00    +0.189 HD
ENDROOT
BRANCH   7  12
ATOM     12  C   UNL     1       0.212  -0.084   2.519  0.00  0.00    +0.166 C 
ATOM     13  N   UNL     1      -0.866   0.175   3.200  0.00  0.00    -0.071 NA
ATOM     14  N   UNL     1       1.452   0.263   3.028  0.00  0.00    -0.340 N 
ATOM     15  H   UNL     1       2.256   0.070   2.521  0.00  0.00    +0.144 HD
ATOM     16  H   UNL     1       1.517   0.699   3.892  0.00  0.00    +0.144 HD
BRANCH  13  17
ATOM     17  O   UNL     1      -0.771   0.811   4.461  0.00  0.00    -0.408 OA
ATOM     18  H   UNL     1      -1.624   0.962   4.891  0.00  0.00    +0.328 HD
ENDBRANCH  13  17
ENDBRANCH   7  12
BRANCH   8  19
ATOM     19  C   UNL     1      -1.077  -3.326   2.927  0.00  0.00    +0.142 C 
BRANCH  19  20
ATOM     20  C   UNL     1      -1.589  -4.625   2.361  0.00  0.00    -0.022 A 
ATOM     21  C   UNL     1      -2.467  -4.627   1.293  0.00  0.00    +0.028 A 
ATOM     22  C   UNL     1      -2.909  -5.814   0.808  0.00  0.00    +0.055 A 
ATOM     23  S   UNL     1      -2.077  -6.981   1.872  0.00  0.00    -0.090 S 
ATOM     24  C   UNL     1      -1.192  -5.809   2.888  0.00  0.00    +0.051 A 
ATOM     25 BR   UNL     1      -4.098  -6.147  -0.625  0.00  0.00    -0.043 Br
ENDBRANCH  19  20
ENDBRANCH   8  19
TORSDOF 4
