REMARK  Name = ZINC01247722
REMARK  3 active torsions:
REMARK  status: ('A' for Active; 'I' for Inactive)
REMARK    1  A    between atoms: C_6  and  C_7
REMARK    2  A    between atoms: C_13  and  N_19
REMARK    3  A    between atoms: C_14  and  C_16
REMARK                            x       y       z     vdW  Elec       q    Type
REMARK                         _______ _______ _______ _____ _____    ______ ____
ROOT
ATOM      1  C   UNL     1       0.005   1.437  -0.282  0.00  0.00    -0.002 A 
ATOM      2  C   UNL     1       0.021   0.043  -0.373  0.00  0.00    -0.018 A 
ATOM      3  C   UNL     1       1.219  -0.630  -0.346  0.00  0.00    +0.046 A 
ATOM      4  N   UNL     1       2.362   0.042  -0.260  0.00  0.00    -0.244 NA
ATOM      5  C   UNL     1       2.405   1.351  -0.178  0.00  0.00    +0.112 A 
ATOM      6  C   UNL     1       1.236   2.144  -0.177  0.00  0.00    +0.037 A 
ATOM      7  C   UNL     1       1.460   3.575  -0.071  0.00  0.00    +0.054 A 
ATOM      8  C   UNL     1       2.759   4.030   0.012  0.00  0.00    +0.097 A 
ATOM      9  S   UNL     1       3.724   2.533  -0.049  0.00  0.00    -0.062 S 
ATOM     10  C   UNL     1       1.309  -2.133  -0.397  0.00  0.00    +0.056 C 
ATOM     11  C   UNL     1       0.492  -2.692  -1.565  0.00  0.00    +0.006 C 
ATOM     12  C   UNL     1      -0.898  -3.037  -1.039  0.00  0.00    +0.001 C 
ATOM     13  C   UNL     1      -1.290  -2.053   0.065  0.00  0.00    +0.005 C 
ATOM     14  C   UNL     1      -1.315  -0.645  -0.526  0.00  0.00    +0.037 C 
ENDROOT
BRANCH   1  20
ATOM     15  C   UNL     1      -2.016   2.266  -1.482  0.00  0.00    +0.010 A 
ATOM     16  C   UNL     1      -3.215   2.948  -1.493  0.00  0.00    +0.020 A 
ATOM     17  C   UNL     1      -3.683   3.548  -0.336  0.00  0.00    +0.041 A 
ATOM     18  C   UNL     1      -2.954   3.463   0.838  0.00  0.00    +0.020 A 
ATOM     19  C   UNL     1      -1.757   2.779   0.861  0.00  0.00    +0.010 A 
ATOM     20  C   UNL     1      -1.280   2.173  -0.301  0.00  0.00    -0.017 A 
ATOM     21 CL   UNL     1      -5.190   4.411  -0.358  0.00  0.00    -0.084 Cl
ENDBRANCH   1  20
BRANCH   8  22
ATOM     22  C   UNL     1       3.216   5.367   0.119  0.00  0.00    +0.250 C 
ATOM     23  O   UNL     1       2.416   6.284   0.147  0.00  0.00    -0.270 OA
ATOM     24  N   UNL     1       4.538   5.623   0.190  0.00  0.00    -0.325 N 
ATOM     25  H   UNL     1       5.175   4.893   0.167  0.00  0.00    +0.145 HD
ATOM     26  H   UNL     1       4.851   6.538   0.263  0.00  0.00    +0.145 HD
ENDBRANCH   8  22
BRANCH   7  27
ATOM     27  N   UNL     1       0.393   4.463  -0.054  0.00  0.00    -0.356 N 
ATOM     28  H   UNL     1       0.516   5.363   0.286  0.00  0.00    +0.142 HD
ATOM     29  H   UNL     1      -0.476   4.183  -0.381  0.00  0.00    +0.142 HD
ENDBRANCH   7  27
TORSDOF 3
