REMARK  Name = ZINC65536005
REMARK  8 active torsions:
REMARK  status: ('A' for Active; 'I' for Inactive)
REMARK    1  A    between atoms: C_1  and  C_2
REMARK    2  A    between atoms: C_2  and  O_3
REMARK    3  A    between atoms: O_3  and  C_4
REMARK    4  A    between atoms: C_7  and  C_14
REMARK    5  A    between atoms: C_8  and  O_11
REMARK    6  A    between atoms: C_9  and  C_10
REMARK    7  A    between atoms: O_11  and  C_12
REMARK    8  A    between atoms: C_12  and  C_13
REMARK                            x       y       z     vdW  Elec       q    Type
REMARK                         _______ _______ _______ _____ _____    ______ ____
ROOT
ATOM      1  C   UNL     1       0.777  -1.810  -1.336  0.00  0.00    +0.127 A 
ATOM      2  C   UNL     1       0.242  -2.669  -0.386  0.00  0.00    +0.046 A 
ATOM      3  C   UNL     1       0.350  -4.036  -0.550  0.00  0.00    +0.009 A 
ATOM      4  C   UNL     1       0.989  -4.553  -1.661  0.00  0.00    -0.013 A 
ATOM      5  C   UNL     1       1.525  -3.699  -2.614  0.00  0.00    +0.129 A 
ATOM      6  C   UNL     1       1.414  -2.326  -2.454  0.00  0.00    +0.033 A 
ATOM      7  C   UNL     1       1.989  -1.396  -3.491  0.00  0.00    +0.051 C 
ENDROOT
BRANCH   4   8
ATOM      8  C   UNL     1       1.105  -6.045  -1.837  0.00  0.00    +0.014 C 
ATOM      9  C   UNL     1       2.429  -6.518  -1.291  0.00  0.00    +0.052 A 
ATOM     10  C   UNL     1       2.564  -7.637  -0.542  0.00  0.00    +0.035 A 
ATOM     11  N   UNL     1       3.880  -7.752  -0.226  0.00  0.00    -0.348 N 
ATOM     12  H   UNL     1       4.286  -8.455   0.305  0.00  0.00    +0.166 HD
ATOM     13  C   UNL     1       4.516  -6.700  -0.793  0.00  0.00    +0.196 A 
ATOM     14  N   UNL     1       3.637  -5.969  -1.429  0.00  0.00    -0.242 NA
ATOM     15  C   UNL     1       1.408  -8.533  -0.180  0.00  0.00    +0.036 C 
ATOM     16  C   UNL     1       0.233  -8.171  -1.101  0.00  0.00    -0.075 C 
ATOM     17  N   UNL     1       0.025  -6.716  -1.096  0.00  0.00    +0.388 N 
ATOM     18  H   UNL     1       0.018  -6.385  -0.142  0.00  0.00    -0.084 HD
ATOM     19  H   UNL     1      -0.861  -6.500  -1.528  0.00  0.00    -0.084 HD
ENDBRANCH   4   8
BRANCH   1  20
ATOM     20  O   UNL     1       0.671  -0.465  -1.174  0.00  0.00    -0.492 OA
BRANCH  20  22
ATOM     21  C   UNL     1      -0.019   1.526   0.010  0.00  0.00    +0.048 C 
ATOM     22  C   UNL     1       0.002  -0.004   0.002  0.00  0.00    +0.225 C 
ENDBRANCH  20  22
ENDBRANCH   1  20
BRANCH   5  23
ATOM     23  O   UNL     1       2.155  -4.207  -3.706  0.00  0.00    -0.492 OA
BRANCH  23  24
ATOM     24  C   UNL     1       1.349  -4.461  -4.859  0.00  0.00    +0.226 C 
ATOM     25  C   UNL     1       2.226  -5.027  -5.978  0.00  0.00    +0.048 C 
ENDBRANCH  23  24
ENDBRANCH   5  23
TORSDOF 5
