REMARK  Name = ZINC50682658
REMARK  5 active torsions:
REMARK  status: ('A' for Active; 'I' for Inactive)
REMARK    1  A    between atoms: C_1  and  N_2
REMARK    2  A    between atoms: N_2  and  C_3
REMARK    3  A    between atoms: C_3  and  C_4
REMARK    4  A    between atoms: C_3  and  C_7
REMARK    5  A    between atoms: C_10  and  C_12
REMARK                            x       y       z     vdW  Elec       q    Type
REMARK                         _______ _______ _______ _____ _____    ______ ____
ROOT
ATOM      1  C   UNL     1      -0.115   1.260  -0.176  0.00  0.00    +0.132 C 
ATOM      2  N   UNL     1      -0.135  -0.204  -0.178  0.00  0.00    -0.301 N 
ATOM      3  C   UNL     1       0.005  -0.879  -1.336  0.00  0.00    +0.219 C 
ATOM      4  O   UNL     1       0.244  -0.279  -2.362  0.00  0.00    -0.275 OA
ENDROOT
BRANCH   3   5
ATOM      5  C   UNL     1      -0.136  -2.380  -1.356  0.00  0.00    +0.078 C 
ATOM      6  C   UNL     1       1.037  -3.012  -0.603  0.00  0.00    +0.032 C 
ATOM      7  C   UNL     1       0.872  -4.535  -0.595  0.00  0.00    +0.110 C 
ATOM      8  N   UNL     1       0.723  -5.001  -1.980  0.00  0.00    -0.286 N 
ATOM      9  C   UNL     1      -0.317  -4.394  -2.822  0.00  0.00    +0.110 C 
ATOM     10  C   UNL     1      -0.139  -2.872  -2.805  0.00  0.00    +0.032 C 
ATOM     11  C   UNL     1       1.524  -5.968  -2.470  0.00  0.00    +0.300 C 
ATOM     12  O   UNL     1       2.319  -6.526  -1.738  0.00  0.00    -0.253 OA
ATOM     13  N   UNL     1       1.445  -6.315  -3.769  0.00  0.00    -0.313 N 
ATOM     14  H   UNL     1       0.865  -5.821  -4.369  0.00  0.00    +0.146 HD
ATOM     15  H   UNL     1       1.969  -7.059  -4.105  0.00  0.00    +0.146 HD
ENDBRANCH   3   5
BRANCH   2  16
ATOM     16  C   UNL     1      -0.307  -0.936   1.080  0.00  0.00    +0.082 C 
BRANCH  16  17
ATOM     17  C   UNL     1       0.851  -0.607   2.024  0.00  0.00    +0.010 C 
ATOM     18  C   UNL     1       0.507  -0.298   3.483  0.00  0.00    +0.006 C 
ATOM     19  C   UNL     1       0.951   0.828   2.546  0.00  0.00    +0.006 C 
ENDBRANCH  16  17
BRANCH  16  20
ATOM     20  C   UNL     1      -1.629  -0.525   1.732  0.00  0.00    +0.010 C 
ATOM     21  C   UNL     1      -2.585  -1.642   2.156  0.00  0.00    +0.006 C 
ATOM     22  C   UNL     1      -2.914  -0.774   0.940  0.00  0.00    +0.006 C 
ENDBRANCH  16  20
ENDBRANCH   2  16
TORSDOF 4
