REMARK  Name = ZINC39668194
REMARK  4 active torsions:
REMARK  status: ('A' for Active; 'I' for Inactive)
REMARK    1  A    between atoms: C_6  and  C_7
REMARK    2  A    between atoms: C_7  and  N_8
REMARK    3  A    between atoms: C_9  and  C_11
REMARK    4  A    between atoms: C_22  and  C_24
REMARK                            x       y       z     vdW  Elec       q    Type
REMARK                         _______ _______ _______ _____ _____    ______ ____
ROOT
ATOM      1  C   UNL     1      -3.632  -1.451  -2.631  0.00  0.00    +0.100 C 
ATOM      2  C   UNL     1      -3.887  -0.275  -3.600  0.00  0.00    +0.121 C 
ATOM      3  N   UNL     1      -5.020  -0.723  -4.442  0.00  0.00    -0.296 N 
ATOM      4  C   UNL     1      -5.920  -1.434  -3.502  0.00  0.00    +0.115 C 
ATOM      5  C   UNL     1      -4.968  -2.209  -2.569  0.00  0.00    -0.004 C 
ATOM      6  C   UNL     1      -5.511  -2.206  -1.143  0.00  0.00    -0.010 C 
ATOM      7  C   UNL     1      -6.811  -3.015  -1.095  0.00  0.00    -0.082 C 
ATOM      8  N   UNL     1      -6.550  -4.390  -1.538  0.00  0.00    +0.379 N 
ATOM      9  C   UNL     1      -6.117  -4.390  -2.941  0.00  0.00    -0.082 C 
ATOM     10  C   UNL     1      -4.788  -3.639  -3.067  0.00  0.00    -0.010 C 
ATOM     11  C   UNL     1      -5.194  -0.529  -5.765  0.00  0.00    +0.247 C 
ATOM     12  O   UNL     1      -4.304  -0.036  -6.429  0.00  0.00    -0.270 OA
ATOM     13  H   UNL     1      -5.826  -4.796  -0.964  0.00  0.00    -0.086 HD
ATOM     14  H   UNL     1      -7.393  -4.937  -1.448  0.00  0.00    -0.086 HD
ENDROOT
BRANCH  11  15
ATOM     15  C   UNL     1      -6.468  -0.916  -6.407  0.00  0.00    +0.040 A 
ATOM     16  C   UNL     1      -7.623  -1.069  -5.638  0.00  0.00    +0.033 A 
ATOM     17  C   UNL     1      -8.810  -1.430  -6.244  0.00  0.00    +0.043 A 
ATOM     18  C   UNL     1      -8.856  -1.641  -7.612  0.00  0.00    +0.040 A 
ATOM     19  C   UNL     1      -7.714  -1.491  -8.380  0.00  0.00    +0.043 A 
ATOM     20  C   UNL     1      -6.523  -1.124  -7.786  0.00  0.00    +0.033 A 
ATOM     21 CL   UNL     1      -7.782  -1.758 -10.094  0.00  0.00    -0.083 Cl
ATOM     22 CL   UNL     1     -10.247  -1.621  -5.289  0.00  0.00    -0.083 Cl
ENDBRANCH  11  15
BRANCH   1  24
ATOM     23  N   UNL     1      -2.442  -1.655  -0.471  0.00  0.00    -0.311 N 
ATOM     24  C   UNL     1      -3.258  -0.933  -1.265  0.00  0.00    +0.218 C 
ATOM     25  O   UNL     1      -3.691   0.132  -0.881  0.00  0.00    -0.275 OA
ATOM     26  H   UNL     1      -2.096  -2.508  -0.779  0.00  0.00    +0.149 HD
BRANCH  23  27
ATOM     27  C   UNL     1      -2.079  -1.153   0.856  0.00  0.00    +0.139 C 
BRANCH  27  33
ATOM     28  C   UNL     1       0.205  -2.040   1.376  0.00  0.00    +0.009 A 
ATOM     29  C   UNL     1       1.046  -2.939   1.999  0.00  0.00    +0.046 A 
ATOM     30  C   UNL     1       0.522  -3.957   2.791  0.00  0.00    +0.124 A 
ATOM     31  C   UNL     1      -0.856  -4.052   2.936  0.00  0.00    -0.002 A 
ATOM     32  C   UNL     1      -1.694  -3.151   2.318  0.00  0.00    +0.012 A 
ATOM     33  C   UNL     1      -1.165  -2.140   1.534  0.00  0.00    -0.030 A 
ATOM     34  C   UNL     1      -1.127  -5.253   3.821  0.00  0.00    +0.080 C 
ATOM     35  C   UNL     1       0.233  -5.990   3.787  0.00  0.00    +0.234 C 
ATOM     36  O   UNL     1       1.161  -4.931   3.496  0.00  0.00    -0.491 OA
ENDBRANCH  27  33
ENDBRANCH  23  27
ENDBRANCH   1  24
TORSDOF 4
