REMARK  Name = ZINC57848127
REMARK  7 active torsions:
REMARK  status: ('A' for Active; 'I' for Inactive)
REMARK    1  A    between atoms: C_1  and  C_2
REMARK    2  A    between atoms: C_2  and  C_3
REMARK    3  A    between atoms: C_3  and  C_17
REMARK    4  A    between atoms: N_6  and  C_10
REMARK    5  A    between atoms: C_10  and  C_11
REMARK    6  A    between atoms: C_20  and  C_24
REMARK    7  A    between atoms: C_21  and  C_23
REMARK                            x       y       z     vdW  Elec       q    Type
REMARK                         _______ _______ _______ _____ _____    ______ ____
ROOT
ATOM      1  C   UNL     1       0.718  -0.497  -1.257  0.00  0.00    +0.138 C 
ATOM      2  C   UNL     1       2.144   0.016  -1.295  0.00  0.00    +0.251 C 
ATOM      3  O   UNL     1       3.025  -0.210  -0.494  0.00  0.00    -0.272 OA
ATOM      4  N   UNL     1       2.228   0.775  -2.405  0.00  0.00    -0.224 N 
ATOM      5  C   UNL     1       1.066   0.812  -3.067  0.00  0.00    +0.310 C 
ATOM      6  O   UNL     1       0.895   1.432  -4.099  0.00  0.00    -0.252 OA
ATOM      7  N   UNL     1       0.107   0.087  -2.463  0.00  0.00    -0.281 N 
ATOM      8  H   UNL     1      -0.807  -0.029  -2.764  0.00  0.00    +0.152 HD
ENDROOT
BRANCH   1   9
ATOM      9  C   UNL     1       0.691  -2.003  -1.325  0.00  0.00    -0.015 A 
ATOM     10  C   UNL     1       0.664  -2.747  -0.160  0.00  0.00    +0.006 A 
ATOM     11  C   UNL     1       0.639  -4.127  -0.222  0.00  0.00    +0.004 A 
ATOM     12  C   UNL     1       0.641  -4.764  -1.449  0.00  0.00    -0.048 A 
ATOM     13  C   UNL     1       0.667  -4.020  -2.614  0.00  0.00    -0.047 A 
ATOM     14  C   UNL     1       0.688  -2.639  -2.552  0.00  0.00    +0.009 A 
ATOM     15  C   UNL     1       0.670  -4.714  -3.951  0.00  0.00    +0.044 C 
ATOM     16  C   UNL     1       0.615  -6.269  -1.517  0.00  0.00    +0.044 C 
ENDBRANCH   1   9
BRANCH   1  18
ATOM     17  C   UNL     1      -0.019   1.526   0.010  0.00  0.00    +0.007 C 
ATOM     18  C   UNL     1       0.002  -0.004   0.002  0.00  0.00    +0.037 C 
ENDBRANCH   1  18
BRANCH   4  19
ATOM     19  C   UNL     1       3.442   1.474  -2.834  0.00  0.00    +0.121 C 
BRANCH  19  20
ATOM     20  C   UNL     1       4.263   0.558  -3.746  0.00  0.00    +0.003 C 
ATOM     21  C   UNL     1       4.762  -0.648  -2.945  0.00  0.00    -0.014 C 
ATOM     22  C   UNL     1       5.647  -1.517  -3.841  0.00  0.00    -0.082 C 
ATOM     23  N   UNL     1       6.794  -0.732  -4.312  0.00  0.00    +0.379 N 
ATOM     24  C   UNL     1       6.326   0.385  -5.141  0.00  0.00    -0.082 C 
ATOM     25  C   UNL     1       5.467   1.328  -4.295  0.00  0.00    -0.014 C 
ATOM     26  H   UNL     1       7.302  -0.371  -3.518  0.00  0.00    -0.086 HD
ATOM     27  H   UNL     1       7.403  -1.323  -4.858  0.00  0.00    -0.086 HD
ENDBRANCH  19  20
ENDBRANCH   4  19
TORSDOF 4
