REMARK  Name = ZINC66175546
REMARK  12 active torsions:
REMARK  status: ('A' for Active; 'I' for Inactive)
REMARK    1  A    between atoms: C_1  and  C_2
REMARK    2  A    between atoms: C_2  and  C_3
REMARK    3  A    between atoms: C_3  and  C_5
REMARK    4  A    between atoms: C_3  and  N_6
REMARK    5  A    between atoms: N_6  and  C_7
REMARK    6  A    between atoms: N_6  and  C_8
REMARK    7  A    between atoms: C_8  and  C_9
REMARK    8  A    between atoms: C_9  and  N_10
REMARK    9  A    between atoms: N_13  and  C_14
REMARK   10  A    between atoms: C_14  and  C_15
REMARK   11  A    between atoms: C_15  and  C_16
REMARK   12  A    between atoms: C_16  and  N_17
REMARK                            x       y       z     vdW  Elec       q    Type
REMARK                         _______ _______ _______ _____ _____    ______ ____
ROOT
ATOM      1  N   UNL     1       4.629  -0.116  -3.857  0.00  0.00    -0.301 N 
ATOM      2  C   UNL     1       5.924   0.177  -4.090  0.00  0.00    +0.300 C 
ATOM      3  O   UNL     1       6.602   0.673  -3.211  0.00  0.00    -0.253 OA
ATOM      4  N   UNL     1       6.466  -0.079  -5.297  0.00  0.00    -0.299 N 
ATOM      5  H   UNL     1       4.087  -0.511  -4.558  0.00  0.00    +0.150 HD
ATOM      6  H   UNL     1       5.925  -0.474  -5.998  0.00  0.00    +0.150 HD
ENDROOT
BRANCH   1   7
ATOM      7  C   UNL     1       4.039   0.163  -2.545  0.00  0.00    +0.087 C 
BRANCH   7   8
ATOM      8  C   UNL     1       2.569  -0.261  -2.546  0.00  0.00    -0.060 C 
BRANCH   8   9
ATOM      9  N   UNL     1       1.978   0.018  -1.231  0.00  0.00    +0.381 N 
ATOM     10  C   UNL     1       1.964   1.468  -0.998  0.00  0.00    -0.096 C 
ATOM     11  H   UNL     1       2.526  -0.433  -0.513  0.00  0.00    -0.082 HD
BRANCH   9  12
ATOM     12  C   UNL     1       0.603  -0.497  -1.193  0.00  0.00    -0.072 C 
ATOM     13  C   UNL     1      -0.188   0.072  -2.373  0.00  0.00    -0.013 C 
BRANCH  12  15
ATOM     14  C   UNL     1       1.307  -2.599  -0.040  0.00  0.00    +0.002 C 
ATOM     15  C   UNL     1       0.627  -2.024  -1.284  0.00  0.00    -0.019 C 
ENDBRANCH  12  15
ENDBRANCH   9  12
ENDBRANCH   8   9
ENDBRANCH   7   8
ENDBRANCH   1   7
BRANCH   4  16
ATOM     16  C   UNL     1       7.873   0.240  -5.550  0.00  0.00    +0.107 C 
BRANCH  16  17
ATOM     17  C   UNL     1       8.234  -0.147  -6.986  0.00  0.00    +0.038 C 
BRANCH  17  18
ATOM     18  C   UNL     1       9.704   0.186  -7.250  0.00  0.00    +0.119 C 
BRANCH  18  19
ATOM     19  N   UNL     1      10.048  -0.184  -8.625  0.00  0.00    -0.224 N 
ATOM     20  C   UNL     1      10.516  -1.397  -8.990  0.00  0.00    +0.246 C 
ATOM     21  O   UNL     1      10.722  -2.353  -8.272  0.00  0.00    -0.273 OA
ATOM     22  C   UNL     1      10.725  -1.311 -10.480  0.00  0.00    +0.113 C 
ATOM     23  C   UNL     1       9.868  -2.349 -11.218  0.00  0.00    +0.035 C 
ATOM     24  C   UNL     1      10.750  -2.777 -12.419  0.00  0.00    +0.003 C 
ATOM     25  C   UNL     1      12.177  -2.783 -11.814  0.00  0.00    +0.003 C 
ATOM     26  C   UNL     1      12.186  -1.573 -10.852  0.00  0.00    +0.035 C 
ATOM     27  N   UNL     1      10.321   0.052 -10.829  0.00  0.00    -0.285 N 
ATOM     28  C   UNL     1       9.934   0.637  -9.677  0.00  0.00    +0.309 C 
ATOM     29  O   UNL     1       9.531   1.781  -9.601  0.00  0.00    -0.252 OA
ATOM     30  H   UNL     1      10.327   0.454 -11.712  0.00  0.00    +0.151 HD
ENDBRANCH  18  19
ENDBRANCH  17  18
ENDBRANCH  16  17
ENDBRANCH   4  16
TORSDOF 9
