REMARK  Name = ZINC15676013
REMARK  5 active torsions:
REMARK  status: ('A' for Active; 'I' for Inactive)
REMARK    1  A    between atoms: C_1  and  C_2
REMARK    2  A    between atoms: C_2  and  C_3
REMARK    3  A    between atoms: C_2  and  C_4
REMARK    4  A    between atoms: C_6  and  C_9
REMARK    5  A    between atoms: N_22  and  C_23
REMARK                            x       y       z     vdW  Elec       q    Type
REMARK                         _______ _______ _______ _____ _____    ______ ____
ROOT
ATOM      1  C   UNL     1      -4.142  -2.425  -1.421  0.00  0.00    +0.172 C 
ATOM      2  C   UNL     1      -5.156  -1.523  -2.137  0.00  0.00    +0.087 C 
ATOM      3  C   UNL     1      -6.161  -1.029  -1.130  0.00  0.00    +0.040 A 
ATOM      4  C   UNL     1      -6.375  -1.584   0.083  0.00  0.00    +0.054 A 
ATOM      5  N   UNL     1      -7.336  -0.888   0.694  0.00  0.00    -0.348 N 
ATOM      6  C   UNL     1      -7.727   0.082  -0.091  0.00  0.00    +0.171 A 
ATOM      7  N   UNL     1      -7.015   0.027  -1.240  0.00  0.00    -0.349 N 
ATOM      8  H   UNL     1      -7.096   0.626  -1.998  0.00  0.00    +0.166 HD
ATOM      9  C   UNL     1      -5.617  -2.783   0.602  0.00  0.00    +0.165 C 
ATOM     10  N   UNL     1      -4.862  -3.349  -0.532  0.00  0.00    -0.268 N 
ATOM     11  C   UNL     1      -4.833  -4.679  -0.749  0.00  0.00    +0.303 C 
ATOM     12  O   UNL     1      -4.287  -5.121  -1.741  0.00  0.00    -0.253 OA
ATOM     13  N   UNL     1      -5.409  -5.519   0.134  0.00  0.00    -0.296 N 
ATOM     14  H   UNL     1      -5.907  -5.163   0.887  0.00  0.00    +0.151 HD
ATOM     15  H   UNL     1      -7.688  -1.072   1.579  0.00  0.00    +0.166 HD
ENDROOT
BRANCH  13  16
ATOM     16  C   UNL     1      -5.285  -6.967  -0.044  0.00  0.00    +0.074 C 
ATOM     17  C   UNL     1      -6.373  -7.459  -1.000  0.00  0.00    +0.022 C 
ATOM     18  C   UNL     1      -6.243  -8.972  -1.186  0.00  0.00    +0.002 C 
ATOM     19  C   UNL     1      -6.401  -9.668   0.168  0.00  0.00    +0.000 C 
ATOM     20  C   UNL     1      -5.312  -9.176   1.124  0.00  0.00    +0.002 C 
ATOM     21  C   UNL     1      -5.442  -7.663   1.310  0.00  0.00    +0.022 C 
ENDBRANCH  13  16
BRANCH   1  24
ATOM     22  C   UNL     1      -1.414  -0.526   0.026  0.00  0.00    +0.174 A 
ATOM     23  N   UNL     1      -1.959  -1.305  -0.915  0.00  0.00    -0.194 NA
ATOM     24  C   UNL     1      -3.197  -1.577  -0.609  0.00  0.00    +0.248 A 
ATOM     25  O   UNL     1      -3.485  -0.973   0.550  0.00  0.00    -0.336 OA
ATOM     26  N   UNL     1      -2.303  -0.296   0.950  0.00  0.00    -0.061 NA
BRANCH  22  28
ATOM     27  C   UNL     1      -0.021   1.525   0.029  0.00  0.00    +0.015 C 
ATOM     28  C   UNL     1      -0.000  -0.005   0.021  0.00  0.00    +0.054 C 
ATOM     29  C   UNL     1       0.735  -0.512   1.264  0.00  0.00    +0.015 C 
ENDBRANCH  22  28
ENDBRANCH   1  24
TORSDOF 3
