REMARK  Name = ZINC63746542
REMARK  6 active torsions:
REMARK  status: ('A' for Active; 'I' for Inactive)
REMARK    1  A    between atoms: C_1  and  N_2
REMARK    2  A    between atoms: C_3  and  C_5
REMARK    3  A    between atoms: C_5  and  N_6
REMARK    4  A    between atoms: C_7  and  C_9
REMARK    5  A    between atoms: C_9  and  S_10
REMARK    6  A    between atoms: S_10  and  C_11
REMARK                            x       y       z     vdW  Elec       q    Type
REMARK                         _______ _______ _______ _____ _____    ______ ____
ROOT
ATOM      1  S   UNL     1      -4.127  -6.371   0.007  0.00  0.00    -0.106 S 
ENDROOT
BRANCH   1   2
ATOM      2  C   UNL     1      -5.881  -6.834   0.021  0.00  0.00    +0.236 C 
ATOM      3  N   UNL     1      -6.571  -6.229  -1.125  0.00  0.00    -0.355 N 
ATOM      4  C   UNL     1      -7.501  -5.449  -0.654  0.00  0.00    +0.061 A 
ATOM      5  C   UNL     1      -8.503  -4.588  -1.296  0.00  0.00    +0.027 A 
ATOM      6  C   UNL     1      -9.357  -3.878  -0.533  0.00  0.00    +0.002 A 
ATOM      7  C   UNL     1      -9.335  -3.922   0.872  0.00  0.00    +0.002 A 
ATOM      8  C   UNL     1      -8.457  -4.678   1.562  0.00  0.00    +0.027 A 
ATOM      9  C   UNL     1      -7.477  -5.496   0.834  0.00  0.00    +0.061 A 
ATOM     10  N   UNL     1      -6.533  -6.302   1.225  0.00  0.00    -0.355 N 
ATOM     11  H   UNL     1      -6.371  -6.383  -2.061  0.00  0.00    +0.162 HD
ATOM     12  H   UNL     1      -6.303  -6.514   2.143  0.00  0.00    +0.162 HD
ENDBRANCH   1   2
BRANCH   1  13
ATOM     13  C   UNL     1      -4.152  -4.558   0.017  0.00  0.00    +0.168 C 
BRANCH  13  15
ATOM     14  N   UNL     1      -2.510  -2.708   0.011  0.00  0.00    -0.306 N 
ATOM     15  C   UNL     1      -2.738  -4.036   0.006  0.00  0.00    +0.223 C 
ATOM     16  O   UNL     1      -1.806  -4.811  -0.006  0.00  0.00    -0.275 OA
ATOM     17  H   UNL     1      -3.256  -2.087   0.022  0.00  0.00    +0.149 HD
BRANCH  14  18
ATOM     18  C   UNL     1      -1.135  -2.201   0.001  0.00  0.00    +0.200 C 
BRANCH  18  21
ATOM     19  C   UNL     1      -0.018   1.461   0.010  0.00  0.00    +0.128 C 
ATOM     20  N   UNL     1       0.002  -0.004   0.002  0.00  0.00    -0.317 N 
ATOM     21  C   UNL     1      -1.156  -0.694   0.009  0.00  0.00    +0.230 C 
ATOM     22  O   UNL     1      -2.214  -0.102   0.023  0.00  0.00    -0.274 OA
ATOM     23  H   UNL     1       0.849  -0.478  -0.009  0.00  0.00    +0.148 HD
ENDBRANCH  18  21
ENDBRANCH  14  18
ENDBRANCH  13  15
ENDBRANCH   1  13
TORSDOF 5
