REMARK  Name = ZINC50196456
REMARK  8 active torsions:
REMARK  status: ('A' for Active; 'I' for Inactive)
REMARK    1  A    between atoms: C_1  and  C_2
REMARK    2  A    between atoms: C_2  and  C_3
REMARK    3  A    between atoms: C_2  and  C_4
REMARK    4  A    between atoms: C_2  and  N_19
REMARK    5  A    between atoms: C_4  and  C_5
REMARK    6  A    between atoms: C_5  and  C_6
REMARK    7  A    between atoms: C_8  and  C_11
REMARK    8  A    between atoms: C_11  and  C_12
REMARK                            x       y       z     vdW  Elec       q    Type
REMARK                         _______ _______ _______ _____ _____    ______ ____
ROOT
ATOM      1  C   UNL     1      -3.549  -0.653  -1.275  0.00  0.00    +0.227 A 
ATOM      2  N   UNL     1      -4.594  -0.019  -0.820  0.00  0.00    -0.196 NA
ATOM      3  C   UNL     1      -5.689  -0.774  -0.966  0.00  0.00    +0.176 A 
ATOM      4  N   UNL     1      -5.351  -1.904  -1.519  0.00  0.00    -0.061 NA
ATOM      5  O   UNL     1      -3.949  -1.844  -1.736  0.00  0.00    -0.338 OA
ENDROOT
BRANCH   1   6
ATOM      6  C   UNL     1      -2.135  -0.131  -1.286  0.00  0.00    +0.097 C 
BRANCH   6   7
ATOM      7  C   UNL     1      -1.433  -0.534   0.013  0.00  0.00    -0.004 C 
BRANCH   7   9
ATOM      8  C   UNL     1      -0.019   1.526   0.010  0.00  0.00    -0.011 C 
ATOM      9  C   UNL     1       0.002  -0.004   0.002  0.00  0.00    -0.076 C 
ATOM     10  C   UNL     1       0.742  -0.511   1.242  0.00  0.00    -0.011 C 
BRANCH   9  11
ATOM     11  N   UNL     1       0.690  -0.478  -1.207  0.00  0.00    +0.381 N 
ATOM     12  H   UNL     1       1.636  -0.129  -1.214  0.00  0.00    -0.089 HD
ATOM     13  H   UNL     1       0.703  -1.487  -1.212  0.00  0.00    -0.089 HD
ATOM     14  H   UNL     1       0.202  -0.144  -2.024  0.00  0.00    -0.089 HD
ENDBRANCH   9  11
ENDBRANCH   7   9
ENDBRANCH   6   7
ENDBRANCH   1   6
BRANCH   3  15
ATOM     15  C   UNL     1      -7.085  -0.382  -0.556  0.00  0.00    +0.114 C 
BRANCH  15  16
ATOM     16  C   UNL     1      -7.768   0.314  -1.705  0.00  0.00    -0.040 A 
ATOM     17  C   UNL     1      -7.666   1.685  -1.842  0.00  0.00    +0.005 A 
ATOM     18  C   UNL     1      -8.292   2.324  -2.896  0.00  0.00    +0.015 A 
ATOM     19  C   UNL     1      -9.022   1.590  -3.814  0.00  0.00    +0.018 A 
ATOM     20  C   UNL     1      -9.124   0.217  -3.676  0.00  0.00    +0.015 A 
ATOM     21  C   UNL     1      -8.493  -0.421  -2.625  0.00  0.00    +0.005 A 
ATOM     22 BR   UNL     1      -9.880   2.462  -5.255  0.00  0.00    -0.050 Br
ENDBRANCH  15  16
ENDBRANCH   3  15
TORSDOF 6
