REMARK  Name = ZINC15377235
REMARK  9 active torsions:
REMARK  status: ('A' for Active; 'I' for Inactive)
REMARK    1  A    between atoms: C_1  and  C_2
REMARK    2  A    between atoms: C_2  and  C_3
REMARK    3  A    between atoms: C_2  and  C_4
REMARK    4  A    between atoms: C_2  and  N_50
REMARK    5  A    between atoms: C_5  and  C_6
REMARK    6  A    between atoms: C_5  and  N_50
REMARK    7  A    between atoms: N_11  and  S_14
REMARK    8  A    between atoms: S_14  and  C_17
REMARK    9  A    between atoms: C_17  and  C_18
REMARK                            x       y       z     vdW  Elec       q    Type
REMARK                         _______ _______ _______ _____ _____    ______ ____
ROOT
ATOM      1  C   UNL     1       2.844   1.961   1.996  0.00  0.00    +0.199 C 
ATOM      2  O   UNL     1       3.464   1.369   2.855  0.00  0.00    -0.278 OA
ATOM      3  N   UNL     1       2.183   1.271   1.046  0.00  0.00    -0.300 N 
ATOM      4  C   UNL     1       1.429   1.975  -0.001  0.00  0.00    +0.125 C 
ATOM      5  C   UNL     1      -0.018   1.465   0.010  0.00  0.00    +0.128 C 
ATOM      6  N   UNL     1       0.002  -0.004   0.002  0.00  0.00    -0.178 NA
ATOM      7  C   UNL     1       0.756  -0.708   1.049  0.00  0.00    +0.128 C 
ATOM      8  C   UNL     1       2.203  -0.198   1.038  0.00  0.00    +0.125 C 
ENDROOT
BRANCH   6   9
ATOM      9  S   UNL     1      -0.811  -0.852  -1.165  0.00  0.00    +0.036 S 
ATOM     10  O   UNL     1      -1.103  -2.106  -0.566  0.00  0.00    -0.158 OA
ATOM     11  O   UNL     1      -1.859   0.015  -1.579  0.00  0.00    -0.158 OA
BRANCH   9  12
ATOM     12  C   UNL     1       0.390  -1.065  -2.508  0.00  0.00    +0.220 C 
BRANCH  12  13
ATOM     13  C   UNL     1      -0.249  -1.832  -3.637  0.00  0.00    -0.025 A 
ATOM     14  C   UNL     1      -0.171  -3.212  -3.666  0.00  0.00    +0.005 A 
ATOM     15  C   UNL     1      -0.762  -3.916  -4.699  0.00  0.00    +0.000 A 
ATOM     16  C   UNL     1      -1.422  -3.240  -5.707  0.00  0.00    +0.000 A 
ATOM     17  C   UNL     1      -1.495  -1.859  -5.681  0.00  0.00    +0.000 A 
ATOM     18  C   UNL     1      -0.909  -1.156  -4.646  0.00  0.00    +0.005 A 
ENDBRANCH  12  13
ENDBRANCH   9  12
ENDBRANCH   6   9
BRANCH   1  19
ATOM     19  C   UNL     1       2.815   3.468   1.992  0.00  0.00    +0.016 C 
BRANCH  19  20
ATOM     20  N   UNL     1       3.611   3.970   3.127  0.00  0.00    +0.388 N 
ATOM     21  H   UNL     1       3.212   3.616   4.004  0.00  0.00    -0.084 HD
ATOM     22  H   UNL     1       4.579   3.640   3.034  0.00  0.00    -0.084 HD
BRANCH  20  24
ATOM     23  C   UNL     1       2.162   5.947   3.292  0.00  0.00    -0.011 C 
ATOM     24  C   UNL     1       3.600   5.445   3.147  0.00  0.00    -0.076 C 
ATOM     25  C   UNL     1       4.433   5.936   4.333  0.00  0.00    -0.011 C 
ATOM     26  C   UNL     1       4.200   5.982   1.846  0.00  0.00    -0.011 C 
ENDBRANCH  20  24
ENDBRANCH  19  20
ENDBRANCH   1  19
TORSDOF 6
