REMARK  Name = ZINC39769460
REMARK  7 active torsions:
REMARK  status: ('A' for Active; 'I' for Inactive)
REMARK    1  A    between atoms: C_1  and  C_2
REMARK    2  A    between atoms: C_2  and  C_3
REMARK    3  A    between atoms: N_17  and  N_18
REMARK    4  A    between atoms: C_19  and  C_20
REMARK    5  A    between atoms: C_23  and  O_28
REMARK    6  A    between atoms: C_24  and  O_26
REMARK    7  A    between atoms: O_26  and  C_27
REMARK                            x       y       z     vdW  Elec       q    Type
REMARK                         _______ _______ _______ _____ _____    ______ ____
ROOT
ATOM      1  C   UNL     1       0.707  -0.490  -1.238  0.00  0.00    -0.047 A 
ATOM      2  C   UNL     1      -0.045  -0.714  -2.399  0.00  0.00    +0.005 A 
ATOM      3  C   UNL     1       0.526  -1.144  -3.546  0.00  0.00    +0.026 A 
ATOM      4  C   UNL     1       1.974  -1.384  -3.581  0.00  0.00    +0.046 A 
ATOM      5  N   UNL     1       2.765  -1.824  -4.530  0.00  0.00    -0.358 N 
ATOM      6  C   UNL     1       4.140  -1.754  -4.065  0.00  0.00    +0.253 C 
ATOM      7  C   UNL     1       4.059  -1.451  -2.580  0.00  0.00    +0.115 C 
ATOM      8  C   UNL     1       2.741  -1.149  -2.331  0.00  0.00    +0.025 A 
ATOM      9  C   UNL     1       2.044  -0.689  -1.191  0.00  0.00    +0.015 A 
ATOM     10  N   UNL     1       5.106  -1.626  -1.769  0.00  0.00    -0.171 NA
ATOM     11  N   UNL     1       5.962  -2.526  -2.148  0.00  0.00    -0.247 N 
ATOM     12  C   UNL     1       5.769  -3.282  -3.256  0.00  0.00    +0.227 C 
ATOM     13  N   UNL     1       4.897  -2.998  -4.196  0.00  0.00    -0.220 NA
ATOM     14  N   UNL     1       6.538  -4.418  -3.408  0.00  0.00    -0.206 N 
ATOM     15  H   UNL     1       7.194  -4.654  -2.733  0.00  0.00    +0.177 HD
ATOM     16  H   UNL     1       6.765  -2.662  -1.621  0.00  0.00    +0.192 HD
ATOM     17  H   UNL     1       2.479  -2.144  -5.400  0.00  0.00    +0.162 HD
ENDROOT
BRANCH   1  19
ATOM     18  C   UNL     1      -0.019   1.526   0.010  0.00  0.00    +0.009 C 
ATOM     19  C   UNL     1       0.002  -0.004   0.002  0.00  0.00    +0.032 C 
ENDBRANCH   1  19
BRANCH  14  20
ATOM     20  N   UNL     1       6.373  -5.230  -4.538  0.00  0.00    -0.188 NA
ATOM     21  C   UNL     1       7.097  -6.298  -4.681  0.00  0.00    +0.138 C 
BRANCH  21  22
ATOM     22  C   UNL     1       6.923  -7.152  -5.870  0.00  0.00    -0.002 A 
ATOM     23  C   UNL     1       5.983  -6.811  -6.847  0.00  0.00    +0.013 A 
ATOM     24  C   UNL     1       5.822  -7.611  -7.958  0.00  0.00    +0.050 A 
ATOM     25  C   UNL     1       6.591  -8.755  -8.110  0.00  0.00    +0.158 A 
ATOM     26  C   UNL     1       7.529  -9.102  -7.141  0.00  0.00    +0.162 A 
ATOM     27  C   UNL     1       7.700  -8.303  -6.026  0.00  0.00    +0.058 A 
BRANCH  26  28
ATOM     28  O   UNL     1       8.281 -10.226  -7.293  0.00  0.00    -0.491 OA
ATOM     29  C   UNL     1       9.223 -10.521  -6.260  0.00  0.00    +0.277 C 
ENDBRANCH  26  28
BRANCH  25  30
ATOM     30  O   UNL     1       6.428  -9.541  -9.207  0.00  0.00    -0.503 OA
ATOM     31  H   UNL     1       6.995  -9.299  -9.952  0.00  0.00    +0.292 HD
ENDBRANCH  25  30
ENDBRANCH  21  22
ENDBRANCH  14  20
TORSDOF 5
