REMARK  Name = ZINC65385548
REMARK  9 active torsions:
REMARK  status: ('A' for Active; 'I' for Inactive)
REMARK    1  A    between atoms: C_1  and  C_2
REMARK    2  A    between atoms: C_2  and  C_3
REMARK    3  A    between atoms: C_5  and  C_10
REMARK    4  A    between atoms: C_7  and  C_9
REMARK    5  A    between atoms: C_12  and  C_25
REMARK    6  A    between atoms: N_16  and  C_17
REMARK    7  A    between atoms: C_17  and  C_18
REMARK    8  A    between atoms: C_18  and  C_19
REMARK    9  A    between atoms: C_19  and  C_20
REMARK                            x       y       z     vdW  Elec       q    Type
REMARK                         _______ _______ _______ _____ _____    ______ ____
ROOT
ATOM      1  C   UNL     1       0.831  -1.542  -4.694  0.00  0.00    +0.004 C 
ATOM      2  C   UNL     1       1.151  -0.358  -5.628  0.00  0.00    +0.074 C 
ATOM      3  N   UNL     1      -0.118  -0.046  -6.326  0.00  0.00    -0.327 NA
ATOM      4  C   UNL     1      -0.896  -1.311  -6.265  0.00  0.00    +0.006 C 
ATOM      5  N   UNL     1      -0.604  -1.845  -4.909  0.00  0.00    +0.395 N 
ATOM      6  H   UNL     1      -0.611   0.703  -5.863  0.00  0.00    +0.120 HD
ATOM      7  H   UNL     1      -1.170  -1.376  -4.217  0.00  0.00    -0.079 HD
ENDROOT
BRANCH   1  10
ATOM      8  C   UNL     1       0.707  -0.490  -1.238  0.00  0.00    +0.084 A 
ATOM      9  N   UNL     1       0.141  -0.740  -2.387  0.00  0.00    -0.348 N 
ATOM     10  C   UNL     1       1.073  -1.153  -3.259  0.00  0.00    +0.024 A 
ATOM     11  H   UNL     1       2.695  -0.629  -0.646  0.00  0.00    +0.167 HD
ATOM     12  C   UNL     1       2.262  -1.159  -2.626  0.00  0.00    +0.032 A 
ATOM     13  N   UNL     1       2.031  -0.734  -1.346  0.00  0.00    -0.347 N 
ATOM     14  C   UNL     1       3.591  -1.553  -3.217  0.00  0.00    +0.065 C 
ATOM     15  H   UNL     1      -0.805  -0.643  -2.579  0.00  0.00    +0.167 HD
BRANCH   8  17
ATOM     16  C   UNL     1      -0.019   1.526   0.010  0.00  0.00    +0.012 C 
ATOM     17  C   UNL     1       0.002  -0.004   0.002  0.00  0.00    +0.069 C 
ENDBRANCH   8  17
ENDBRANCH   1  10
BRANCH   2  18
ATOM     18  C   UNL     1       1.611   0.830  -4.823  0.00  0.00    -0.032 A 
ATOM     19  C   UNL     1       0.684   1.633  -4.186  0.00  0.00    +0.005 A 
ATOM     20  C   UNL     1       1.106   2.723  -3.447  0.00  0.00    +0.000 A 
ATOM     21  C   UNL     1       2.454   3.010  -3.346  0.00  0.00    +0.000 A 
ATOM     22  C   UNL     1       3.381   2.206  -3.983  0.00  0.00    +0.000 A 
ATOM     23  C   UNL     1       2.960   1.113  -4.718  0.00  0.00    +0.005 A 
ENDBRANCH   2  18
BRANCH   5  24
ATOM     24  C   UNL     1      -0.834  -3.295  -4.866  0.00  0.00    -0.076 C 
BRANCH  24  25
ATOM     25  C   UNL     1      -2.334  -3.576  -4.965  0.00  0.00    -0.011 C 
BRANCH  25  26
ATOM     26  C   UNL     1      -2.574  -5.087  -4.921  0.00  0.00    +0.078 C 
BRANCH  26  27
ATOM     27  C   UNL     1      -4.052  -5.364  -5.018  0.00  0.00    +0.177 A 
ATOM     28  N   UNL     1      -4.906  -5.460  -4.009  0.00  0.00    -0.111 NA
ATOM     29  N   UNL     1      -6.071  -5.704  -4.506  0.00  0.00    -0.021 NA
ATOM     30  N   UNL     1      -5.975  -5.763  -5.788  0.00  0.00    -0.021 NA
ATOM     31  N   UNL     1      -4.749  -5.553  -6.129  0.00  0.00    -0.111 NA
ENDBRANCH  26  27
ENDBRANCH  25  26
ENDBRANCH  24  25
ENDBRANCH   5  24
TORSDOF 7
