REMARK  Name = ZINC40545547
REMARK  5 active torsions:
REMARK  status: ('A' for Active; 'I' for Inactive)
REMARK    1  A    between atoms: C_3  and  O_14
REMARK    2  A    between atoms: C_4  and  C_10
REMARK    3  A    between atoms: C_6  and  N_7
REMARK    4  A    between atoms: C_11  and  C_12
REMARK    5  A    between atoms: C_12  and  O_13
REMARK                            x       y       z     vdW  Elec       q    Type
REMARK                         _______ _______ _______ _____ _____    ______ ____
ROOT
ATOM      1  C   UNL     1      -0.017   1.379   0.010  0.00  0.00    +0.036 A 
ATOM      2  C   UNL     1       1.167   2.094   0.002  0.00  0.00    +0.048 A 
ATOM      3  C   UNL     1       2.381   1.427  -0.013  0.00  0.00    +0.124 A 
ATOM      4  C   UNL     1       2.404   0.027  -0.021  0.00  0.00    +0.018 A 
ATOM      5  C   UNL     1       1.203  -0.683  -0.013  0.00  0.00    +0.044 A 
ATOM      6  C   UNL     1       0.002  -0.004   0.002  0.00  0.00    +0.127 A 
ENDROOT
BRANCH   6   7
ATOM      7  N   UNL     1      -1.271  -0.759   0.011  0.00  0.00    +0.056 N 
ATOM      8  O   UNL     1      -2.325  -0.166   0.024  0.00  0.00    -0.126 OA
ATOM      9  O   UNL     1      -1.258  -1.968   0.004  0.00  0.00    -0.126 OA
ENDBRANCH   6   7
BRANCH   4  10
ATOM     10  C   UNL     1       3.693  -0.694  -0.037  0.00  0.00    +0.009 C 
ATOM     11  C   UNL     1       3.711  -2.020  -0.045  0.00  0.00    +0.001 C 
BRANCH  11  12
ATOM     12  C   UNL     1       5.026  -2.756  -0.062  0.00  0.00    +0.183 C 
BRANCH  12  13
ATOM     13  O   UNL     1       4.986  -3.825   0.885  0.00  0.00    -0.391 OA
ATOM     14  H   UNL     1       5.801  -4.343   0.929  0.00  0.00    +0.210 HD
ENDBRANCH  12  13
ENDBRANCH  11  12
ENDBRANCH   4  10
BRANCH   3  15
ATOM     15  O   UNL     1       3.544   2.128  -0.021  0.00  0.00    -0.506 OA
ATOM     16  H   UNL     1       3.889   2.327   0.860  0.00  0.00    +0.292 HD
ENDBRANCH   3  15
TORSDOF 5
