REMARK  Name = ZINC42399661
REMARK  8 active torsions:
REMARK  status: ('A' for Active; 'I' for Inactive)
REMARK    1  A    between atoms: C_1  and  C_2
REMARK    2  A    between atoms: C_2  and  C_4
REMARK    3  A    between atoms: C_2  and  N_20
REMARK    4  A    between atoms: C_5  and  N_11
REMARK    5  A    between atoms: N_11  and  C_12
REMARK    6  A    between atoms: N_11  and  C_13
REMARK    7  A    between atoms: C_13  and  C_14
REMARK    8  A    between atoms: N_20  and  C_21
REMARK                            x       y       z     vdW  Elec       q    Type
REMARK                         _______ _______ _______ _____ _____    ______ ____
ROOT
ATOM      1  C   UNL     1      -1.412  -0.526   0.013  0.00  0.00    -0.005 A 
ATOM      2  C   UNL     1      -1.947  -1.059   1.178  0.00  0.00    +0.034 A 
ATOM      3  C   UNL     1      -3.251  -1.539   1.184  0.00  0.00    +0.023 A 
ATOM      4  C   UNL     1      -4.012  -1.484   0.032  0.00  0.00    +0.005 A 
ATOM      5  C   UNL     1      -3.478  -0.953  -1.127  0.00  0.00    +0.038 A 
ATOM      6  C   UNL     1      -2.180  -0.469  -1.136  0.00  0.00    +0.127 A 
ATOM      7  F   UNL     1      -1.662   0.055  -2.269  0.00  0.00    -0.205 F 
ENDROOT
BRANCH   1   9
ATOM      8  C   UNL     1      -0.019   1.526   0.010  0.00  0.00    -0.009 C 
ATOM      9  C   UNL     1       0.002  -0.004   0.002  0.00  0.00    -0.040 C 
BRANCH   9  10
ATOM     10  N   UNL     1       0.690  -0.478  -1.207  0.00  0.00    +0.382 N 
ATOM     11  C   UNL     1       2.100  -0.070  -1.159  0.00  0.00    -0.100 C 
ATOM     12  H   UNL     1       0.632  -1.484  -1.254  0.00  0.00    -0.085 HD
ATOM     13  H   UNL     1       0.251  -0.077  -2.022  0.00  0.00    -0.085 HD
ENDBRANCH   9  10
ENDBRANCH   1   9
BRANCH   2  14
ATOM     14  N   UNL     1      -1.176  -1.114   2.341  0.00  0.00    -0.328 N 
ATOM     15  C   UNL     1      -0.351  -2.293   2.618  0.00  0.00    +0.129 C 
BRANCH  14  16
ATOM     16  C   UNL     1      -1.193   0.006   3.284  0.00  0.00    +0.147 C 
BRANCH  16  17
ATOM     17  C   UNL     1      -2.285  -0.207   4.300  0.00  0.00    +0.008 A 
ATOM     18  C   UNL     1      -2.225  -0.837   5.499  0.00  0.00    +0.028 A 
ATOM     19  C   UNL     1      -3.367  -0.914   6.274  0.00  0.00    +0.025 A 
ATOM     20  C   UNL     1      -4.514  -0.358   5.811  0.00  0.00    +0.060 A 
ATOM     21  S   UNL     1      -3.993   0.309   4.239  0.00  0.00    -0.099 S 
ATOM     22 BR   UNL     1      -3.331  -1.783   7.953  0.00  0.00    -0.050 Br
ENDBRANCH  16  17
ENDBRANCH  14  16
ENDBRANCH   2  14
TORSDOF 5
