REMARK  Name = ZINC63863446
REMARK  8 active torsions:
REMARK  status: ('A' for Active; 'I' for Inactive)
REMARK    1  A    between atoms: C_1  and  C_2
REMARK    2  A    between atoms: C_2  and  C_3
REMARK    3  A    between atoms: C_2  and  C_4
REMARK    4  A    between atoms: C_4  and  C_5
REMARK    5  A    between atoms: C_4  and  N_21
REMARK    6  A    between atoms: N_7  and  C_8
REMARK    7  A    between atoms: N_14  and  S_17
REMARK    8  A    between atoms: S_17  and  N_20
REMARK                            x       y       z     vdW  Elec       q    Type
REMARK                         _______ _______ _______ _____ _____    ______ ____
ROOT
ATOM      1  C   UNL     1      -1.992   0.097  -3.680  0.00  0.00    +0.035 A 
ATOM      2  C   UNL     1      -2.521   1.379  -3.768  0.00  0.00    +0.024 A 
ATOM      3  C   UNL     1      -3.024   1.832  -4.971  0.00  0.00    +0.007 A 
ATOM      4  C   UNL     1      -3.003   1.016  -6.087  0.00  0.00    -0.023 A 
ATOM      5  C   UNL     1      -2.478  -0.266  -6.013  0.00  0.00    +0.057 A 
ATOM      6  C   UNL     1      -1.965  -0.721  -4.798  0.00  0.00    +0.048 A 
ATOM      7  N   UNL     1      -2.550  -0.923  -7.242  0.00  0.00    -0.193 N 
ATOM      8  C   UNL     1      -3.165  -0.049  -8.245  0.00  0.00    +0.137 C 
ATOM      9  C   UNL     1      -3.480   1.259  -7.501  0.00  0.00    +0.058 C 
ENDROOT
BRANCH   1  12
ATOM     10  C   UNL     1      -2.026   0.048  -1.302  0.00  0.00    +0.204 C 
ATOM     11  O   UNL     1      -3.007   0.760  -1.313  0.00  0.00    -0.277 OA
ATOM     12  N   UNL     1      -1.481  -0.367  -2.463  0.00  0.00    -0.287 N 
ATOM     13  H   UNL     1      -0.735  -0.986  -2.454  0.00  0.00    +0.155 HD
BRANCH  10  14
ATOM     14  C   UNL     1      -1.415  -0.374   0.010  0.00  0.00    +0.022 C 
BRANCH  14  15
ATOM     15  N   UNL     1      -2.337  -0.048   1.106  0.00  0.00    +0.387 N 
ATOM     16  C   UNL     1      -3.573  -0.865   0.996  0.00  0.00    -0.078 C 
ATOM     17  C   UNL     1      -4.142  -0.843   2.437  0.00  0.00    -0.020 C 
ATOM     18  C   UNL     1      -2.870  -0.911   3.313  0.00  0.00    -0.020 C 
ATOM     19  C   UNL     1      -1.731  -0.407   2.406  0.00  0.00    -0.078 C 
ATOM     20  H   UNL     1      -2.566   0.934   1.089  0.00  0.00    -0.081 HD
ENDBRANCH  14  15
BRANCH  14  22
ATOM     21  C   UNL     1       0.916  -0.084  -0.840  0.00  0.00    +0.006 C 
ATOM     22  C   UNL     1      -0.093   0.366   0.218  0.00  0.00    -0.022 C 
ATOM     23  C   UNL     1      -0.327   1.873   0.091  0.00  0.00    +0.006 C 
ENDBRANCH  14  22
ENDBRANCH  10  14
ENDBRANCH   1  12
BRANCH   7  24
ATOM     24  S   UNL     1      -2.018  -2.466  -7.526  0.00  0.00    +0.109 S 
ATOM     25  O   UNL     1      -1.749  -2.553  -8.919  0.00  0.00    -0.138 OA
ATOM     26  O   UNL     1      -1.033  -2.743  -6.541  0.00  0.00    -0.138 OA
BRANCH  24  27
ATOM     27  N   UNL     1      -3.289  -3.485  -7.226  0.00  0.00    -0.190 NA
ATOM     28  H   UNL     1      -4.143  -3.124  -6.939  0.00  0.00    +0.146 HD
ATOM     29  H   UNL     1      -3.179  -4.442  -7.335  0.00  0.00    +0.146 HD
ENDBRANCH  24  27
ENDBRANCH   7  24
TORSDOF 6
