REMARK  Name = ZINC49736636
REMARK  8 active torsions:
REMARK  status: ('A' for Active; 'I' for Inactive)
REMARK    1  A    between atoms: C_1  and  C_2
REMARK    2  A    between atoms: C_2  and  C_3
REMARK    3  A    between atoms: C_2  and  C_4
REMARK    4  A    between atoms: C_4  and  C_6
REMARK    5  A    between atoms: C_4  and  N_23
REMARK    6  A    between atoms: C_6  and  N_7
REMARK    7  A    between atoms: N_7  and  S_8
REMARK    8  A    between atoms: S_8  and  C_11
REMARK                            x       y       z     vdW  Elec       q    Type
REMARK                         _______ _______ _______ _____ _____    ______ ____
ROOT
ATOM      1  S   UNL     1      -3.282  -1.445  -3.660  0.00  0.00    +0.058 S 
ATOM      2  O   UNL     1      -4.238  -2.496  -3.694  0.00  0.00    -0.153 OA
ATOM      3  O   UNL     1      -3.652  -0.076  -3.751  0.00  0.00    -0.153 OA
ENDROOT
BRANCH   1   4
ATOM      4  C   UNL     1      -2.152  -1.749  -4.978  0.00  0.00    +0.107 A 
ATOM      5  C   UNL     1      -1.424  -0.702  -5.517  0.00  0.00    +0.030 A 
ATOM      6  C   UNL     1      -0.536  -0.931  -6.549  0.00  0.00    +0.030 A 
ATOM      7  C   UNL     1      -0.373  -2.214  -7.048  0.00  0.00    +0.067 A 
ATOM      8  C   UNL     1      -1.108  -3.270  -6.505  0.00  0.00    +0.069 A 
ATOM      9  C   UNL     1      -1.993  -3.031  -5.464  0.00  0.00    +0.056 A 
ATOM     10  N   UNL     1      -0.736  -4.419  -7.199  0.00  0.00    -0.306 N 
ATOM     11  H   UNL     1      -1.080  -5.312  -7.044  0.00  0.00    +0.170 HD
ATOM     12  C   UNL     1       0.183  -4.077  -8.122  0.00  0.00    +0.325 A 
ATOM     13  O   UNL     1       0.715  -4.848  -8.899  0.00  0.00    -0.247 OA
ATOM     14  N   UNL     1       0.422  -2.754  -8.056  0.00  0.00    -0.306 N 
ATOM     15  H   UNL     1       1.043  -2.261  -8.615  0.00  0.00    +0.170 HD
ENDBRANCH   1   4
BRANCH   1  16
ATOM     16  N   UNL     1      -2.441  -1.615  -2.244  0.00  0.00    -0.191 NA
ATOM     17  H   UNL     1      -2.667  -2.329  -1.628  0.00  0.00    +0.148 HD
BRANCH  16  18
ATOM     18  C   UNL     1      -1.354  -0.687  -1.922  0.00  0.00    +0.091 C 
BRANCH  18  19
ATOM     19  C   UNL     1      -1.063  -0.744  -0.421  0.00  0.00    -0.050 C 
BRANCH  19  20
ATOM     20  N   UNL     1      -2.133  -0.053   0.312  0.00  0.00    +0.383 N 
ATOM     21  C   UNL     1      -1.964  -0.282   1.752  0.00  0.00    -0.078 C 
ATOM     22  C   UNL     1      -3.027   0.500   2.525  0.00  0.00    -0.019 C 
ATOM     23  C   UNL     1      -4.418   0.027   2.091  0.00  0.00    -0.004 C 
ATOM     24  C   UNL     1      -4.555   0.202   0.576  0.00  0.00    -0.019 C 
ATOM     25  C   UNL     1      -3.435  -0.570  -0.125  0.00  0.00    -0.078 C 
ATOM     26  H   UNL     1      -2.084   0.936   0.123  0.00  0.00    -0.081 HD
ENDBRANCH  19  20
BRANCH  19  28
ATOM     27  C   UNL     1       0.042   1.431   0.121  0.00  0.00    +0.005 C 
ATOM     28  C   UNL     1       0.275  -0.060  -0.134  0.00  0.00    -0.030 C 
ATOM     29  C   UNL     1       0.918  -0.694   1.101  0.00  0.00    +0.005 C 
ENDBRANCH  19  28
ENDBRANCH  18  19
ENDBRANCH  16  18
ENDBRANCH   1  16
TORSDOF 6
