REMARK  Name = ZINC62203269
REMARK  3 active torsions:
REMARK  status: ('A' for Active; 'I' for Inactive)
REMARK    1  A    between atoms: C_1  and  C_2
REMARK    2  A    between atoms: C_4  and  N_17
REMARK    3  A    between atoms: C_9  and  C_16
REMARK                            x       y       z     vdW  Elec       q    Type
REMARK                         _______ _______ _______ _____ _____    ______ ____
ROOT
ATOM      1  C   UNL     1      -0.018   1.503   0.010  0.00  0.00    +0.067 C 
ATOM      2  C   UNL     1       0.002  -0.004   0.002  0.00  0.00    +0.062 A 
ATOM      3  C   UNL     1       0.008  -0.815  -1.137  0.00  0.00    +0.068 A 
ATOM      4  C   UNL     1       0.027  -2.112  -0.727  0.00  0.00    +0.123 A 
ATOM      5  N   UNL     1       0.034  -2.109   0.636  0.00  0.00    -0.184 N 
ATOM      6  N   UNL     1       0.023  -0.774   1.060  0.00  0.00    -0.167 NA
ATOM      7  C   UNL     1       0.053  -3.232   1.460  0.00  0.00    +0.253 A 
ATOM      8  N   UNL     1       0.072  -4.436   0.910  0.00  0.00    -0.216 NA
ATOM      9  C   UNL     1       0.091  -5.523   1.663  0.00  0.00    +0.047 A 
ATOM     10  C   UNL     1       0.090  -5.388   3.043  0.00  0.00    -0.005 A 
ATOM     11  C   UNL     1       0.070  -4.114   3.586  0.00  0.00    +0.050 A 
ATOM     12  N   UNL     1       0.056  -3.069   2.773  0.00  0.00    -0.215 NA
ATOM     13  C   UNL     1       0.073  -4.203   5.095  0.00  0.00    +0.056 C 
ATOM     14  C   UNL     1      -0.340  -5.656   5.415  0.00  0.00    +0.011 C 
ATOM     15  C   UNL     1       0.108  -6.417   4.149  0.00  0.00    +0.039 C 
ATOM     16  C   UNL     1       0.112  -6.891   1.030  0.00  0.00    +0.066 C 
ENDROOT
BRANCH   4  17
ATOM     17  N   UNL     1       0.038  -3.235  -1.547  0.00  0.00    -0.343 N 
ATOM     18  H   UNL     1       0.032  -3.131  -2.512  0.00  0.00    +0.144 HD
ATOM     19  H   UNL     1       0.052  -4.122  -1.155  0.00  0.00    +0.144 HD
ENDBRANCH   4  17
TORSDOF 1
