REMARK  Name = ZINC23989769
REMARK  10 active torsions:
REMARK  status: ('A' for Active; 'I' for Inactive)
REMARK    1  A    between atoms: C_1  and  C_2
REMARK    2  A    between atoms: C_3  and  C_25
REMARK    3  A    between atoms: N_12  and  C_24
REMARK    4  A    between atoms: N_16  and  C_17
REMARK    5  A    between atoms: C_17  and  C_18
REMARK    6  A    between atoms: C_18  and  N_19
REMARK    7  A    between atoms: N_19  and  C_20
REMARK    8  A    between atoms: C_20  and  C_21
REMARK    9  A    between atoms: C_21  and  C_22
REMARK   10  A    between atoms: C_22  and  O_23
REMARK                            x       y       z     vdW  Elec       q    Type
REMARK                         _______ _______ _______ _____ _____    ______ ____
ROOT
ATOM      1  C   UNL     1      -1.206  -0.904   0.009  0.00  0.00    +0.065 C 
ATOM      2  C   UNL     1       0.002  -0.004   0.002  0.00  0.00    +0.038 A 
ATOM      3  C   UNL     1      -0.016   1.326   0.009  0.00  0.00    +0.043 A 
ATOM      4  N   UNL     1       1.292   1.779  -0.001  0.00  0.00    -0.275 N 
ATOM      5  C   UNL     1       2.102   2.904  -0.003  0.00  0.00    +0.157 A 
ATOM      6  C   UNL     1       1.863   4.288   0.006  0.00  0.00    +0.280 A 
ATOM      7  O   UNL     1       0.722   4.716   0.019  0.00  0.00    -0.265 OA
ATOM      8  N   UNL     1       2.910   5.139   0.000  0.00  0.00    -0.273 N 
ATOM      9  H   UNL     1       2.736   6.225   0.007  0.00  0.00    +0.173 HD
ATOM     10  C   UNL     1       4.174   4.684  -0.014  0.00  0.00    +0.331 A 
ATOM     11  O   UNL     1       5.092   5.481  -0.019  0.00  0.00    -0.246 OA
ATOM     12  N   UNL     1       4.450   3.365  -0.024  0.00  0.00    -0.280 N 
ATOM     13  C   UNL     1       3.416   2.441  -0.018  0.00  0.00    +0.170 A 
ATOM     14  N   UNL     1       3.372   1.111  -0.024  0.00  0.00    -0.193 NA
ATOM     15  C   UNL     1       2.111   0.702  -0.014  0.00  0.00    +0.218 A 
ATOM     16  N   UNL     1       1.321  -0.417  -0.013  0.00  0.00    -0.315 N 
ATOM     17  C   UNL     1       5.842   2.908  -0.040  0.00  0.00    +0.155 C 
ATOM     18  C   UNL     1      -1.250   2.191   0.020  0.00  0.00    +0.066 C 
ENDROOT
BRANCH  16  19
ATOM     19  C   UNL     1       1.790  -1.805  -0.025  0.00  0.00    +0.106 C 
BRANCH  19  20
ATOM     20  C   UNL     1       1.940  -2.280  -1.471  0.00  0.00    -0.061 C 
BRANCH  20  21
ATOM     21  N   UNL     1       2.410  -3.672  -1.483  0.00  0.00    +0.380 N 
ATOM     22  H   UNL     1       3.383  -3.734  -0.974  0.00  0.00    -0.086 HD
ATOM     23  H   UNL     1       1.682  -4.310  -0.961  0.00  0.00    -0.086 HD
BRANCH  21  24
ATOM     24  C   UNL     1       2.566  -4.163  -2.859  0.00  0.00    -0.080 C 
BRANCH  24  25
ATOM     25  C   UNL     1       3.056  -5.612  -2.830  0.00  0.00    +0.009 C 
BRANCH  25  26
ATOM     26  C   UNL     1       3.218  -6.124  -4.263  0.00  0.00    +0.154 C 
BRANCH  26  27
ATOM     27  O   UNL     1       3.676  -7.477  -4.237  0.00  0.00    -0.395 OA
ATOM     28  H   UNL     1       3.851  -8.017  -5.179  0.00  0.00    +0.209 HD
ENDBRANCH  26  27
ENDBRANCH  25  26
ENDBRANCH  24  25
ENDBRANCH  21  24
ENDBRANCH  20  21
ENDBRANCH  19  20
ENDBRANCH  16  19
TORSDOF 7
