REMARK  Name = ZINC64057239
REMARK  5 active torsions:
REMARK  status: ('A' for Active; 'I' for Inactive)
REMARK    1  A    between atoms: C_1  and  C_2
REMARK    2  A    between atoms: C_8  and  C_12
REMARK    3  A    between atoms: N_14  and  C_15
REMARK    4  A    between atoms: C_15  and  C_16
REMARK    5  A    between atoms: C_16  and  C_17
REMARK                            x       y       z     vdW  Elec       q    Type
REMARK                         _______ _______ _______ _____ _____    ______ ____
ROOT
ATOM      1  C   UNL     1       2.887   0.211   1.819  0.00  0.00    +0.234 C 
ATOM      2  O   UNL     1       2.273   0.994   2.512  0.00  0.00    -0.274 OA
ATOM      3  N   UNL     1       4.235   0.233   1.809  0.00  0.00    -0.313 N 
ATOM      4  H   UNL     1       4.726  -0.394   1.254  0.00  0.00    +0.149 HD
ENDROOT
BRANCH   1  12
ATOM      5  C   UNL     1      -0.019   1.526   0.010  0.00  0.00    +0.044 C 
ATOM      6  C   UNL     1       0.002  -0.004   0.002  0.00  0.00    +0.082 C 
ATOM      7  C   UNL     1      -1.404  -0.622   0.037  0.00  0.00    +0.046 C 
ATOM      8  C   UNL     1      -1.621  -0.740   1.566  0.00  0.00    +0.099 C 
ATOM      9  C   UNL     1      -0.224  -0.854   2.133  0.00  0.00    +0.217 C 
ATOM     10  O   UNL     1       0.033  -1.143   3.282  0.00  0.00    -0.276 OA
ATOM     11  N   UNL     1       0.703  -0.589   1.174  0.00  0.00    -0.275 N 
ATOM     12  C   UNL     1       2.143  -0.788   0.970  0.00  0.00    +0.173 C 
ATOM     13  C   UNL     1       2.620  -0.629  -0.494  0.00  0.00    +0.103 C 
ATOM     14  S   UNL     1       0.998  -0.704  -1.380  0.00  0.00    -0.133 S 
ENDBRANCH   1  12
BRANCH   3  15
ATOM     15  C   UNL     1       4.958   1.203   2.634  0.00  0.00    +0.108 C 
BRANCH  15  16
ATOM     16  C   UNL     1       6.464   1.017   2.439  0.00  0.00    +0.052 C 
BRANCH  16  17
ATOM     17  C   UNL     1       7.208   2.015   3.289  0.00  0.00    -0.040 C 
ATOM     18  C   UNL     1       7.713   1.812   4.527  0.00  0.00    -0.001 A 
ATOM     19  C   UNL     1       7.721   0.647   5.419  0.00  0.00    +0.010 A 
ATOM     20  C   UNL     1       8.319   0.750   6.628  0.00  0.00    +0.001 A 
ATOM     21  C   UNL     1       8.930   1.940   7.048  0.00  0.00    +0.002 A 
ATOM     22  C   UNL     1       8.964   3.052   6.285  0.00  0.00    +0.026 A 
ATOM     23  C   UNL     1       8.366   3.056   4.994  0.00  0.00    +0.043 A 
ATOM     24  N   UNL     1       8.267   3.991   4.081  0.00  0.00    -0.380 N 
ATOM     25  C   UNL     1       7.545   3.444   2.927  0.00  0.00    +0.144 C 
ATOM     26  H   UNL     1       8.616   4.893   4.154  0.00  0.00    +0.160 HD
ENDBRANCH  16  17
ENDBRANCH  15  16
ENDBRANCH   3  15
TORSDOF 4
