REMARK  Name = ZINC49042650
REMARK  9 active torsions:
REMARK  status: ('A' for Active; 'I' for Inactive)
REMARK    1  A    between atoms: C_1  and  C_2
REMARK    2  A    between atoms: C_4  and  C_7
REMARK    3  A    between atoms: C_7  and  N_21
REMARK    4  A    between atoms: N_10  and  S_13
REMARK    5  A    between atoms: S_13  and  N_16
REMARK    6  A    between atoms: N_16  and  C_17
REMARK    7  A    between atoms: N_16  and  C_18
REMARK    8  A    between atoms: C_18  and  C_19
REMARK    9  A    between atoms: C_18  and  C_20
REMARK                            x       y       z     vdW  Elec       q    Type
REMARK                         _______ _______ _______ _____ _____    ______ ____
ROOT
ATOM      1  C   UNL     1      -1.588  -3.254  -0.008  0.00  0.00    -0.004 C 
ATOM      2  C   UNL     1      -2.465  -3.220   1.246  0.00  0.00    +0.012 C 
ATOM      3  C   UNL     1      -3.428  -4.411   1.223  0.00  0.00    +0.109 C 
ATOM      4  N   UNL     1      -2.648  -5.646   1.067  0.00  0.00    -0.166 NA
ATOM      5  C   UNL     1      -1.705  -5.749  -0.056  0.00  0.00    +0.109 C 
ATOM      6  C   UNL     1      -0.762  -4.543  -0.019  0.00  0.00    +0.012 C 
ENDROOT
BRANCH   1  10
ATOM      7  C   UNL     1      -0.018   1.503   0.010  0.00  0.00    +0.112 C 
ATOM      8  C   UNL     1       0.002  -0.004   0.002  0.00  0.00    +0.224 A 
ATOM      9  N   UNL     1      -1.044  -0.783   0.003  0.00  0.00    -0.198 NA
ATOM     10  C   UNL     1      -0.663  -2.065  -0.006  0.00  0.00    +0.161 A 
ATOM     11  N   UNL     1       0.638  -2.118  -0.012  0.00  0.00    -0.063 NA
ATOM     12  O   UNL     1       1.097  -0.774  -0.013  0.00  0.00    -0.338 OA
ENDBRANCH   1  10
BRANCH   1  13
ATOM     13  N   UNL     1      -2.440  -3.209  -1.203  0.00  0.00    +0.387 N 
ATOM     14  H   UNL     1      -1.862  -3.232  -2.030  0.00  0.00    -0.089 HD
ATOM     15  H   UNL     1      -3.060  -4.006  -1.205  0.00  0.00    -0.089 HD
ATOM     16  H   UNL     1      -2.985  -2.360  -1.196  0.00  0.00    -0.089 HD
ENDBRANCH   1  13
BRANCH   4  17
ATOM     17  S   UNL     1      -2.828  -6.899   2.135  0.00  0.00    +0.099 S 
ATOM     18  O   UNL     1      -1.625  -7.653   2.082  0.00  0.00    -0.141 OA
ATOM     19  O   UNL     1      -3.322  -6.335   3.342  0.00  0.00    -0.141 OA
BRANCH  17  20
ATOM     20  N   UNL     1      -4.026  -7.877   1.545  0.00  0.00    -0.167 NA
ATOM     21  C   UNL     1      -3.692  -8.982   0.642  0.00  0.00    +0.133 C 
BRANCH  20  22
ATOM     22  C   UNL     1      -5.421  -7.639   1.925  0.00  0.00    +0.074 C 
ATOM     23  C   UNL     1      -6.250  -7.355   0.671  0.00  0.00    +0.025 C 
ATOM     24  C   UNL     1      -5.975  -8.876   2.634  0.00  0.00    +0.025 C 
ENDBRANCH  20  22
ENDBRANCH  17  20
ENDBRANCH   4  17
TORSDOF 5
