REMARK  Name = ZINC40408585
REMARK  8 active torsions:
REMARK  status: ('A' for Active; 'I' for Inactive)
REMARK    1  A    between atoms: C_13  and  C_15
REMARK    2  A    between atoms: C_15  and  N_16
REMARK    3  A    between atoms: N_16  and  C_17
REMARK    4  A    between atoms: N_16  and  C_28
REMARK    5  A    between atoms: C_17  and  C_18
REMARK    6  A    between atoms: C_18  and  C_20
REMARK    7  A    between atoms: C_18  and  O_27
REMARK    8  A    between atoms: C_20  and  N_21
REMARK                            x       y       z     vdW  Elec       q    Type
REMARK                         _______ _______ _______ _____ _____    ______ ____
ROOT
ATOM      1  N   UNL     1       7.791  -2.901  -3.271  0.00  0.00    +0.388 N 
ATOM      2  H   UNL     1       7.832  -3.050  -2.273  0.00  0.00    -0.081 HD
ENDROOT
BRANCH   1   3
ATOM      3  C   UNL     1       6.821  -3.830  -3.865  0.00  0.00    -0.068 C 
ATOM      4  C   UNL     1       6.820  -3.663  -5.386  0.00  0.00    -0.015 C 
ATOM      5  C   UNL     1       5.809  -4.630  -6.005  0.00  0.00    -0.002 C 
ATOM      6  C   UNL     1       4.413  -4.327  -5.458  0.00  0.00    -0.000 C 
ATOM      7  C   UNL     1       4.413  -4.495  -3.938  0.00  0.00    -0.002 C 
ATOM      8  C   UNL     1       5.424  -3.528  -3.318  0.00  0.00    -0.015 C 
ENDBRANCH   1   3
BRANCH   1   9
ATOM      9  C   UNL     1       7.376  -1.519  -3.543  0.00  0.00    -0.003 C 
BRANCH   9  22
ATOM     10  C   UNL     1       1.004   0.902   2.268  0.00  0.00    +0.001 C 
ATOM     11  C   UNL     1       2.331   1.561   1.898  0.00  0.00    +0.005 C 
ATOM     12  C   UNL     1       2.713   1.224   0.462  0.00  0.00    +0.037 C 
ATOM     13  C   UNL     1       3.542  -0.057   0.428  0.00  0.00    -0.023 A 
ATOM     14  C   UNL     1       3.438  -1.007   1.381  0.00  0.00    -0.004 A 
ATOM     15  S   UNL     1       4.575  -2.279   0.892  0.00  0.00    -0.073 S 
ATOM     16  C   UNL     1       5.199  -1.524  -0.587  0.00  0.00    +0.116 A 
ATOM     17  C   UNL     1       4.498  -0.311  -0.653  0.00  0.00    +0.075 A 
ATOM     18  C   UNL     1       4.809   0.526  -1.775  0.00  0.00    +0.260 A 
ATOM     19  O   UNL     1       4.253   1.601  -1.920  0.00  0.00    -0.267 OA
ATOM     20  N   UNL     1       5.726   0.104  -2.666  0.00  0.00    -0.312 N 
ATOM     21  H   UNL     1       5.942   0.664  -3.427  0.00  0.00    +0.170 HD
ATOM     22  C   UNL     1       6.356  -1.090  -2.519  0.00  0.00    +0.094 A 
ATOM     23  N   UNL     1       6.094  -1.873  -1.507  0.00  0.00    -0.229 NA
ATOM     24  C   UNL     1       2.569  -0.994   2.599  0.00  0.00    +0.043 C 
ATOM     25  C   UNL     1       1.137  -0.616   2.197  0.00  0.00    +0.005 C 
ENDBRANCH   9  22
ENDBRANCH   1   9
BRANCH   1  26
ATOM     26  C   UNL     1       9.118  -3.139  -3.856  0.00  0.00    -0.045 C 
BRANCH  26  27
ATOM     27  C   UNL     1       9.628  -4.514  -3.421  0.00  0.00    +0.112 C 
BRANCH  27  28
ATOM     28  O   UNL     1       8.820  -5.532  -4.014  0.00  0.00    -0.392 OA
ATOM     29  H   UNL     1       8.882  -5.571  -4.978  0.00  0.00    +0.210 HD
ENDBRANCH  27  28
BRANCH  27  30
ATOM     30  C   UNL     1      11.079  -4.686  -3.874  0.00  0.00    +0.114 C 
BRANCH  30  31
ATOM     31  N   UNL     1      11.570  -6.006  -3.456  0.00  0.00    -0.296 NA
ATOM     32  C   UNL     1      11.655  -6.097  -1.992  0.00  0.00    +0.112 C 
ATOM     33  C   UNL     1      12.112  -7.504  -1.599  0.00  0.00    +0.175 C 
ATOM     34  O   UNL     1      13.362  -7.788  -2.233  0.00  0.00    -0.377 OA
ATOM     35  C   UNL     1      13.315  -7.709  -3.660  0.00  0.00    +0.175 C 
ATOM     36  C   UNL     1      12.871  -6.304  -4.073  0.00  0.00    +0.112 C 
ENDBRANCH  30  31
ENDBRANCH  27  30
ENDBRANCH  26  27
ENDBRANCH   1  26
TORSDOF 8
