REMARK  Name = ZINC21814420
REMARK  10 active torsions:
REMARK  status: ('A' for Active; 'I' for Inactive)
REMARK    1  A    between atoms: C_1  and  C_2
REMARK    2  A    between atoms: C_5  and  O_10
REMARK    3  A    between atoms: C_6  and  O_8
REMARK    4  A    between atoms: O_8  and  C_9
REMARK    5  A    between atoms: O_10  and  C_11
REMARK    6  A    between atoms: C_14  and  C_21
REMARK    7  A    between atoms: C_18  and  N_20
REMARK    8  A    between atoms: C_21  and  C_22
REMARK    9  A    between atoms: C_21  and  C_23
REMARK   10  A    between atoms: C_21  and  C_24
REMARK                            x       y       z     vdW  Elec       q    Type
REMARK                         _______ _______ _______ _____ _____    ______ ____
ROOT
ATOM      1  C   UNL     1      -1.073  -2.123  -0.110  0.00  0.00    +0.160 C 
ATOM      2  C   UNL     1      -2.263  -2.645  -0.918  0.00  0.00    +0.047 C 
ATOM      3  C   UNL     1      -2.164  -4.166  -1.046  0.00  0.00    -0.002 C 
ATOM      4  C   UNL     1      -2.178  -4.797   0.348  0.00  0.00    +0.003 C 
ATOM      5  C   UNL     1      -0.988  -4.275   1.156  0.00  0.00    -0.012 C 
ATOM      6  C   UNL     1      -1.087  -2.753   1.284  0.00  0.00    -0.034 C 
ENDROOT
BRANCH   6   7
ATOM      7  N   UNL     1      -2.337  -2.400   1.969  0.00  0.00    +0.382 N 
ATOM      8  H   UNL     1      -2.347  -2.854   2.971  0.00  0.00    -0.089 HD
ATOM      9  H   UNL     1      -3.192  -2.776   1.388  0.00  0.00    -0.089 HD
ATOM     10  H   UNL     1      -2.408  -1.306   2.061  0.00  0.00    -0.089 HD
ENDBRANCH   6   7
BRANCH   3  11
ATOM     11  C   UNL     1      -3.353  -4.688  -1.854  0.00  0.00    -0.035 C 
ATOM     12  C   UNL     1      -4.656  -4.320  -1.140  0.00  0.00    +0.011 C 
ATOM     13  C   UNL     1      -3.340  -4.057  -3.248  0.00  0.00    +0.011 C 
ATOM     14  C   UNL     1      -3.255  -6.210  -1.982  0.00  0.00    +0.011 C 
ENDBRANCH   3  11
BRANCH   1  15
ATOM     15  O   UNL     1      -1.165  -0.702   0.010  0.00  0.00    -0.487 OA
BRANCH  15  20
ATOM     16  C   UNL     1       3.647   2.110   0.855  0.00  0.00    +0.044 C 
ATOM     17  C   UNL     1       2.359   1.360   0.628  0.00  0.00    -0.047 A 
ATOM     18  C   UNL     1       2.358  -0.022   0.615  0.00  0.00    +0.007 A 
ATOM     19  C   UNL     1       1.180  -0.714   0.408  0.00  0.00    +0.050 A 
ATOM     20  C   UNL     1      -0.005  -0.022   0.213  0.00  0.00    +0.162 A 
ATOM     21  C   UNL     1      -0.004   1.369   0.226  0.00  0.00    +0.162 A 
ATOM     22  C   UNL     1       1.181   2.057   0.434  0.00  0.00    +0.052 A 
BRANCH  21  23
ATOM     23  O   UNL     1      -1.163   2.053   0.030  0.00  0.00    -0.491 OA
ATOM     24  C   UNL     1      -1.088   3.480   0.057  0.00  0.00    +0.277 C 
ENDBRANCH  21  23
ENDBRANCH  15  20
ENDBRANCH   1  15
TORSDOF 5
