REMARK  Name = ZINC45106386
REMARK  10 active torsions:
REMARK  status: ('A' for Active; 'I' for Inactive)
REMARK    1  A    between atoms: C_1  and  C_2
REMARK    2  A    between atoms: C_3  and  C_11
REMARK    3  A    between atoms: C_8  and  C_10
REMARK    4  A    between atoms: C_11  and  C_13
REMARK    5  A    between atoms: C_11  and  N_14
REMARK    6  A    between atoms: N_14  and  C_15
REMARK    7  A    between atoms: C_15  and  C_16
REMARK    8  A    between atoms: C_16  and  C_17
REMARK    9  A    between atoms: C_17  and  C_18
REMARK   10  A    between atoms: C_18  and  N_19
REMARK                            x       y       z     vdW  Elec       q    Type
REMARK                         _______ _______ _______ _____ _____    ______ ____
ROOT
ATOM      1  N   UNL     1      -3.296  -0.455   1.151  0.00  0.00    +0.384 N 
ATOM      2  H   UNL     1      -3.522  -1.430   1.021  0.00  0.00    -0.085 HD
ATOM      3  H   UNL     1      -2.770  -0.343   2.004  0.00  0.00    -0.085 HD
ENDROOT
BRANCH   1   4
ATOM      4  C   UNL     1      -2.492   0.017   0.015  0.00  0.00    -0.037 C 
ATOM      5  C   UNL     1      -3.238  -0.268  -1.290  0.00  0.00    -0.009 C 
BRANCH   4   8
ATOM      6  C   UNL     1      -0.018   1.503   0.010  0.00  0.00    +0.066 C 
ATOM      7  C   UNL     1       0.002  -0.004   0.002  0.00  0.00    +0.047 A 
ATOM      8  C   UNL     1      -1.167  -0.702   0.004  0.00  0.00    +0.024 A 
ATOM      9  C   UNL     1      -1.113  -2.111  -0.005  0.00  0.00    +0.253 A 
ATOM     10  O   UNL     1      -2.136  -2.774  -0.004  0.00  0.00    -0.268 OA
ATOM     11  N   UNL     1       0.097  -2.710  -0.014  0.00  0.00    -0.311 N 
ATOM     12  H   UNL     1       0.160  -3.678  -0.020  0.00  0.00    +0.170 HD
ATOM     13  C   UNL     1       1.218  -1.962  -0.015  0.00  0.00    +0.107 A 
ATOM     14  N   UNL     1       1.167  -0.657  -0.013  0.00  0.00    -0.239 NA
ATOM     15  C   UNL     1       2.560  -2.647  -0.026  0.00  0.00    +0.086 C 
ENDBRANCH   4   8
ENDBRANCH   1   4
BRANCH   1  16
ATOM     16  C   UNL     1      -4.535   0.328   1.232  0.00  0.00    -0.082 C 
BRANCH  16  17
ATOM     17  C   UNL     1      -5.372  -0.163   2.416  0.00  0.00    -0.017 C 
BRANCH  17  18
ATOM     18  C   UNL     1      -6.663   0.653   2.501  0.00  0.00    +0.020 C 
BRANCH  18  19
ATOM     19  C   UNL     1      -7.500   0.162   3.684  0.00  0.00    +0.122 C 
BRANCH  19  20
ATOM     20  N   UNL     1      -8.737   0.943   3.765  0.00  0.00    -0.338 N 
ATOM     21  C   UNL     1      -8.918   2.107   4.463  0.00  0.00    +0.104 A 
ATOM     22  C   UNL     1     -10.195   2.485   4.266  0.00  0.00    +0.101 A 
ATOM     23  N   UNL     1     -10.778   1.577   3.469  0.00  0.00    -0.352 N 
ATOM     24  C   UNL     1      -9.909   0.653   3.161  0.00  0.00    +0.173 A 
ATOM     25  H   UNL     1     -11.699   1.605   3.166  0.00  0.00    +0.166 HD
ENDBRANCH  19  20
ENDBRANCH  18  19
ENDBRANCH  17  18
ENDBRANCH  16  17
ENDBRANCH   1  16
TORSDOF 7
