REMARK  Name = ZINC63883673
REMARK  6 active torsions:
REMARK  status: ('A' for Active; 'I' for Inactive)
REMARK    1  A    between atoms: C_1  and  N_2
REMARK    2  A    between atoms: N_2  and  C_3
REMARK    3  A    between atoms: N_2  and  C_13
REMARK    4  A    between atoms: C_3  and  C_4
REMARK    5  A    between atoms: C_13  and  C_14
REMARK    6  A    between atoms: C_14  and  O_25
REMARK                            x       y       z     vdW  Elec       q    Type
REMARK                         _______ _______ _______ _____ _____    ______ ____
ROOT
ATOM      1  C   UNL     1       0.148  -0.698  -2.517  0.00  0.00    +0.067 C 
ATOM      2  C   UNL     1      -1.257  -1.160  -2.125  0.00  0.00    +0.032 C 
ATOM      3  C   UNL     1      -1.189  -2.630  -1.699  0.00  0.00    -0.016 C 
ATOM      4  C   UNL     1      -0.621  -3.453  -2.854  0.00  0.00    -0.078 C 
ATOM      5  N   UNL     1       0.734  -2.988  -3.190  0.00  0.00    +0.383 N 
ATOM      6  C   UNL     1       0.693  -1.592  -3.636  0.00  0.00    -0.035 C 
ATOM      7  C   UNL     1       2.106  -1.111  -3.984  0.00  0.00    -0.013 C 
ATOM      8  C   UNL     1       2.696  -1.992  -5.086  0.00  0.00    -0.003 C 
ATOM      9  C   UNL     1       2.692  -3.447  -4.605  0.00  0.00    -0.019 C 
ATOM     10  C   UNL     1       1.257  -3.848  -4.261  0.00  0.00    -0.078 C 
ATOM     11  H   UNL     1       1.326  -3.064  -2.377  0.00  0.00    -0.081 HD
ENDROOT
BRANCH   1  12
ATOM     12  O   UNL     1       0.092   0.655  -2.974  0.00  0.00    -0.389 OA
ATOM     13  H   UNL     1      -0.342   1.260  -2.357  0.00  0.00    +0.210 HD
ENDBRANCH   1  12
BRANCH   1  14
ATOM     14  C   UNL     1       1.071  -0.786  -1.300  0.00  0.00    +0.117 C 
BRANCH  14  16
ATOM     15  C   UNL     1       3.426  -0.703  -0.746  0.00  0.00    +0.105 C 
ATOM     16  N   UNL     1       2.370  -0.184  -1.626  0.00  0.00    -0.300 NA
BRANCH  16  17
ATOM     17  C   UNL     1       2.302   1.282  -1.559  0.00  0.00    +0.117 C 
BRANCH  17  18
ATOM     18  C   UNL     1       3.438   1.883  -2.389  0.00  0.00    +0.170 C 
ATOM     19  C   UNL     1       3.531   3.379  -2.166  0.00  0.00    -0.020 C 
ATOM     20  C   UNL     1       4.742   3.570  -1.644  0.00  0.00    +0.065 C 
ATOM     21  C   UNL     1       4.958   5.048  -1.372  0.00  0.00    +0.057 C 
ATOM     22  C   UNL     1       3.874   5.772  -2.200  0.00  0.00    +0.011 C 
ATOM     23  C   UNL     1       2.786   4.680  -2.315  0.00  0.00    +0.035 C 
ATOM     24  N   UNL     1       5.388   2.378  -1.526  0.00  0.00    -0.158 NA
ATOM     25  N   UNL     1       4.745   1.397  -1.913  0.00  0.00    -0.178 NA
ENDBRANCH  17  18
ENDBRANCH  16  17
ENDBRANCH  14  16
ENDBRANCH   1  14
TORSDOF 5
