REMARK  Name = ZINC50092749
REMARK  7 active torsions:
REMARK  status: ('A' for Active; 'I' for Inactive)
REMARK    1  A    between atoms: C_1  and  C_2
REMARK    2  A    between atoms: C_2  and  N_3
REMARK    3  A    between atoms: N_3  and  C_4
REMARK    4  A    between atoms: N_3  and  S_12
REMARK    5  A    between atoms: C_4  and  C_10
REMARK    6  A    between atoms: C_10  and  N_11
REMARK    7  A    between atoms: S_12  and  N_15
REMARK                            x       y       z     vdW  Elec       q    Type
REMARK                         _______ _______ _______ _____ _____    ______ ____
ROOT
ATOM      1  N   UNL     1      -1.203  -0.528   0.185  0.00  0.00    -0.162 NA
ENDROOT
BRANCH   1   2
ATOM      2  C   UNL     1      -1.561  -0.838  -1.202  0.00  0.00    +0.029 C 
ATOM      3  C   UNL     1      -1.651   0.459  -2.008  0.00  0.00    +0.022 C 
ATOM      4  C   UNL     1      -2.720   1.367  -1.396  0.00  0.00    +0.002 C 
ATOM      5  C   UNL     1      -4.073   0.653  -1.426  0.00  0.00    +0.000 C 
ATOM      6  C   UNL     1      -3.983  -0.645  -0.620  0.00  0.00    +0.002 C 
ATOM      7  C   UNL     1      -2.914  -1.552  -1.232  0.00  0.00    +0.022 C 
BRANCH   2   8
ATOM      8  C   UNL     1      -0.492  -1.745  -1.814  0.00  0.00    -0.062 C 
BRANCH   8   9
ATOM      9  N   UNL     1      -0.395  -2.985  -1.031  0.00  0.00    +0.379 N 
ATOM     10  H   UNL     1      -0.232  -2.758  -0.061  0.00  0.00    -0.090 HD
ATOM     11  H   UNL     1      -1.256  -3.504  -1.115  0.00  0.00    -0.090 HD
ATOM     12  H   UNL     1       0.370  -3.543  -1.379  0.00  0.00    -0.090 HD
ENDBRANCH   8   9
ENDBRANCH   2   8
ENDBRANCH   1   2
BRANCH   1  13
ATOM     13  S   UNL     1      -1.984  -1.288   1.431  0.00  0.00    +0.100 S 
ATOM     14  O   UNL     1      -2.893  -2.207   0.841  0.00  0.00    -0.141 OA
ATOM     15  O   UNL     1      -0.981  -1.693   2.352  0.00  0.00    -0.141 OA
BRANCH  13  16
ATOM     16  N   UNL     1      -2.902  -0.145   2.203  0.00  0.00    -0.166 NA
ATOM     17  C   UNL     1      -2.242   0.797   3.079  0.00  0.00    +0.110 C 
ATOM     18  C   UNL     1      -2.179   0.216   4.514  0.00  0.00    +0.017 C 
ATOM     19  C   UNL     1      -3.518   0.210   5.122  0.00  0.00    +0.001 C 
ATOM     20  C   UNL     1      -4.532  -0.673   4.401  0.00  0.00    +0.001 C 
ATOM     21  C   UNL     1      -5.154   0.103   3.266  0.00  0.00    +0.017 C 
ATOM     22  C   UNL     1      -4.358  -0.127   1.964  0.00  0.00    +0.110 C 
ENDBRANCH  13  16
ENDBRANCH   1  13
BRANCH   1  24
ATOM     23  C   UNL     1      -0.770   1.854   0.530  0.00  0.00    +0.022 C 
ATOM     24  C   UNL     1      -0.154   0.455   0.468  0.00  0.00    +0.108 C 
ENDBRANCH   1  24
TORSDOF 6
