REMARK  Name = ZINC19757871
REMARK  7 active torsions:
REMARK  status: ('A' for Active; 'I' for Inactive)
REMARK    1  A    between atoms: C_1  and  C_2
REMARK    2  A    between atoms: N_5  and  C_14
REMARK    3  A    between atoms: C_8  and  N_13
REMARK    4  A    between atoms: C_14  and  C_15
REMARK    5  A    between atoms: N_17  and  C_18
REMARK    6  A    between atoms: C_18  and  C_19
REMARK    7  A    between atoms: C_19  and  C_20
REMARK                            x       y       z     vdW  Elec       q    Type
REMARK                         _______ _______ _______ _____ _____    ______ ____
ROOT
ATOM      1  C   UNL     1       3.845   2.009  -0.170  0.00  0.00    +0.053 C 
ATOM      2  C   UNL     1       2.518   1.298  -0.442  0.00  0.00    +0.188 C 
ATOM      3  C   UNL     1       2.481  -0.038   0.313  0.00  0.00    +0.150 C 
ATOM      4  N   UNL     1       1.230  -0.728  -0.021  0.00  0.00    -0.315 N 
ATOM      5  C   UNL     1       0.113   0.099   0.137  0.00  0.00    +0.074 A 
ATOM      6  C   UNL     1      -1.138  -0.493   0.275  0.00  0.00    +0.049 A 
ATOM      7  C   UNL     1      -2.269   0.295   0.428  0.00  0.00    +0.027 A 
ATOM      8  C   UNL     1      -2.153   1.679   0.445  0.00  0.00    +0.026 A 
ATOM      9  C   UNL     1      -0.911   2.268   0.312  0.00  0.00    +0.049 A 
ATOM     10  C   UNL     1       0.224   1.484   0.157  0.00  0.00    +0.142 A 
ATOM     11  O   UNL     1       1.432   2.101   0.032  0.00  0.00    -0.486 OA
ENDROOT
BRANCH   7  12
ATOM     12  N   UNL     1      -3.526  -0.304   0.566  0.00  0.00    -0.358 N 
ATOM     13  H   UNL     1      -4.423   0.321   0.688  0.00  0.00    +0.142 HD
ATOM     14  H   UNL     1      -3.617  -1.401   0.553  0.00  0.00    +0.142 HD
ENDBRANCH   7  12
BRANCH   4  15
ATOM     15  C   UNL     1       1.085  -1.963   0.762  0.00  0.00    +0.201 C 
BRANCH  15  16
ATOM     16  C   UNL     1       1.027  -1.623   2.229  0.00  0.00    +0.230 C 
ATOM     17  O   UNL     1       0.985  -0.464   2.582  0.00  0.00    -0.274 OA
ATOM     18  N   UNL     1       1.022  -2.608   3.149  0.00  0.00    -0.314 N 
ATOM     19  H   UNL     1       1.060  -3.660   2.829  0.00  0.00    +0.149 HD
BRANCH  18  20
ATOM     20  C   UNL     1       0.965  -2.278   4.575  0.00  0.00    +0.109 C 
BRANCH  20  21
ATOM     21  C   UNL     1       0.971  -3.568   5.398  0.00  0.00    +0.054 C 
BRANCH  21  22
ATOM     22  C   UNL     1       0.913  -3.229   6.865  0.00  0.00    -0.046 A 
ATOM     23  C   UNL     1       2.083  -3.047   7.579  0.00  0.00    +0.004 A 
ATOM     24  C   UNL     1       2.030  -2.731   8.924  0.00  0.00    +0.000 A 
ATOM     25  C   UNL     1       0.807  -2.606   9.557  0.00  0.00    +0.000 A 
ATOM     26  C   UNL     1      -0.362  -2.793   8.844  0.00  0.00    +0.000 A 
ATOM     27  C   UNL     1      -0.309  -3.104   7.498  0.00  0.00    +0.004 A 
ENDBRANCH  21  22
ENDBRANCH  20  21
ENDBRANCH  18  20
ENDBRANCH  15  16
ENDBRANCH   4  15
TORSDOF 6
