REMARK  Name = ZINC00465147
REMARK  5 active torsions:
REMARK  status: ('A' for Active; 'I' for Inactive)
REMARK    1  A    between atoms: C_1  and  C_2
REMARK    2  A    between atoms: C_2  and  C_3
REMARK    3  A    between atoms: C_2  and  C_4
REMARK    4  A    between atoms: C_2  and  C_5
REMARK    5  A    between atoms: C_8  and  C_11
REMARK                            x       y       z     vdW  Elec       q    Type
REMARK                         _______ _______ _______ _____ _____    ______ ____
ROOT
ATOM      1  C   UNL     1      -6.818  -1.482   0.347  0.00  0.00    -0.042 A 
ATOM      2  C   UNL     1      -5.805  -2.425   0.337  0.00  0.00    +0.005 A 
ATOM      3  C   UNL     1      -4.489  -2.027   0.229  0.00  0.00    +0.013 A 
ATOM      4  C   UNL     1      -4.179  -0.669   0.130  0.00  0.00    +0.040 A 
ATOM      5  C   UNL     1      -5.206   0.278   0.146  0.00  0.00    +0.013 A 
ATOM      6  C   UNL     1      -6.518  -0.135   0.248  0.00  0.00    +0.005 A 
ENDROOT
BRANCH   4   7
ATOM      7  C   UNL     1      -2.772  -0.235   0.014  0.00  0.00    +0.266 C 
ATOM      8  O   UNL     1      -1.876  -1.050   0.103  0.00  0.00    -0.267 OA
ATOM      9  N   UNL     1      -2.483   1.065  -0.191  0.00  0.00    -0.236 N 
ATOM     10  C   UNL     1      -2.049   1.976   0.741  0.00  0.00    +0.233 A 
ATOM     11  N   UNL     1      -1.890   3.112   0.125  0.00  0.00    -0.136 NA
ATOM     12  N   UNL     1      -2.183   2.987  -1.120  0.00  0.00    -0.113 NA
ATOM     13  C   UNL     1      -2.559   1.757  -1.373  0.00  0.00    +0.221 A 
ATOM     14  N   UNL     1      -2.953   1.251  -2.599  0.00  0.00    -0.327 N 
ATOM     15  H   UNL     1      -3.209   0.319  -2.679  0.00  0.00    +0.145 HD
ATOM     16  H   UNL     1      -2.976   1.829  -3.377  0.00  0.00    +0.145 HD
ENDBRANCH   4   7
BRANCH   1  18
ATOM     17  C   UNL     1      -8.445  -2.690   1.776  0.00  0.00    +0.015 C 
ATOM     18  C   UNL     1      -8.254  -1.925   0.465  0.00  0.00    -0.013 C 
ATOM     19  C   UNL     1      -9.168  -0.698   0.452  0.00  0.00    +0.015 C 
ATOM     20  C   UNL     1      -8.605  -2.835  -0.713  0.00  0.00    +0.015 C 
ENDBRANCH   1  18
TORSDOF 2
