REMARK  Name = ZINC30492627
REMARK  13 active torsions:
REMARK  status: ('A' for Active; 'I' for Inactive)
REMARK    1  A    between atoms: C_1  and  C_2
REMARK    2  A    between atoms: C_2  and  C_4
REMARK    3  A    between atoms: C_2  and  N_16
REMARK    4  A    between atoms: C_7  and  O_12
REMARK    5  A    between atoms: C_8  and  O_10
REMARK    6  A    between atoms: O_10  and  C_11
REMARK    7  A    between atoms: O_12  and  C_13
REMARK    8  A    between atoms: C_13  and  C_14
REMARK    9  A    between atoms: C_13  and  C_15
REMARK   10  A    between atoms: N_16  and  C_17
REMARK   11  A    between atoms: C_17  and  C_19
REMARK   12  A    between atoms: C_17  and  C_20
REMARK   13  A    between atoms: N_25  and  C_26
REMARK                            x       y       z     vdW  Elec       q    Type
REMARK                         _______ _______ _______ _____ _____    ______ ____
ROOT
ATOM      1  N   UNL     1       0.609  -0.261  -1.310  0.00  0.00    +0.391 N 
ATOM      2  H   UNL     1       0.542  -1.245  -1.525  0.00  0.00    -0.084 HD
ATOM      3  H   UNL     1       0.123   0.271  -2.016  0.00  0.00    -0.084 HD
ENDROOT
BRANCH   1   5
ATOM      4  C   UNL     1      -0.008   1.502   0.273  0.00  0.00    -0.009 C 
ATOM      5  C   UNL     1       0.002  -0.004   0.002  0.00  0.00    -0.043 C 
BRANCH   5   6
ATOM      6  C   UNL     1      -1.411  -0.526   0.013  0.00  0.00    -0.058 A 
ATOM      7  C   UNL     1      -2.212  -0.371  -1.103  0.00  0.00    +0.006 A 
ATOM      8  C   UNL     1      -3.510  -0.848  -1.099  0.00  0.00    +0.049 A 
ATOM      9  C   UNL     1      -4.010  -1.484   0.026  0.00  0.00    +0.162 A 
ATOM     10  C   UNL     1      -3.204  -1.641   1.149  0.00  0.00    +0.162 A 
ATOM     11  C   UNL     1      -1.903  -1.165   1.136  0.00  0.00    +0.051 A 
BRANCH  10  12
ATOM     12  O   UNL     1      -3.690  -2.264   2.256  0.00  0.00    -0.491 OA
ATOM     13  C   UNL     1      -2.806  -2.390   3.371  0.00  0.00    +0.277 C 
ENDBRANCH  10  12
BRANCH   9  14
ATOM     14  O   UNL     1      -5.287  -1.954   0.033  0.00  0.00    -0.486 OA
BRANCH  14  15
ATOM     15  C   UNL     1      -6.016  -1.865  -1.193  0.00  0.00    +0.167 C 
ATOM     16  C   UNL     1      -7.111  -2.934  -1.212  0.00  0.00    +0.051 C 
ATOM     17  C   UNL     1      -6.654  -0.480  -1.308  0.00  0.00    +0.051 C 
ENDBRANCH  14  15
ENDBRANCH   9  14
ENDBRANCH   5   6
ENDBRANCH   1   5
BRANCH   1  18
ATOM     18  C   UNL     1       2.023   0.138  -1.283  0.00  0.00    +0.014 C 
ATOM     19  C   UNL     1       2.786  -0.754  -0.302  0.00  0.00    -0.004 C 
BRANCH  18  20
ATOM     20  C   UNL     1       2.614  -0.010  -2.661  0.00  0.00    +0.206 C 
ATOM     21  O   UNL     1       1.925  -0.410  -3.576  0.00  0.00    -0.277 OA
ATOM     22  N   UNL     1       3.907   0.301  -2.877  0.00  0.00    -0.242 N 
ATOM     23  C   UNL     1       4.436   0.168  -4.109  0.00  0.00    +0.306 C 
ATOM     24  O   UNL     1       3.746  -0.232  -5.027  0.00  0.00    -0.252 OA
ATOM     25  N   UNL     1       5.729   0.479  -4.325  0.00  0.00    -0.296 N 
ATOM     26  H   UNL     1       4.458   0.620  -2.145  0.00  0.00    +0.159 HD
ATOM     27  H   UNL     1       6.280   0.798  -3.593  0.00  0.00    +0.151 HD
BRANCH  25  28
ATOM     28  C   UNL     1       6.304   0.335  -5.665  0.00  0.00    +0.074 C 
ATOM     29  C   UNL     1       6.842  -1.098  -5.858  0.00  0.00    +0.022 C 
ATOM     30  C   UNL     1       8.129  -0.910  -6.698  0.00  0.00    +0.002 C 
ATOM     31  C   UNL     1       8.732   0.391  -6.114  0.00  0.00    +0.002 C 
ATOM     32  C   UNL     1       7.506   1.281  -5.828  0.00  0.00    +0.022 C 
ENDBRANCH  25  28
ENDBRANCH  18  20
ENDBRANCH   1  18
TORSDOF 8
