REMARK  Name = ZINC12757347
REMARK  2 active torsions:
REMARK  status: ('A' for Active; 'I' for Inactive)
REMARK    1  A    between atoms: C_1  and  C_2
REMARK    2  A    between atoms: N_10  and  C_11
REMARK                            x       y       z     vdW  Elec       q    Type
REMARK                         _______ _______ _______ _____ _____    ______ ____
ROOT
ATOM      1  C   UNL     1       9.508   5.263  -4.842  0.00  0.00    +0.089 C 
ATOM      2  C   UNL     1       8.573   4.084  -4.923  0.00  0.00    +0.136 A 
ATOM      3  C   UNL     1       7.560   3.796  -4.075  0.00  0.00    +0.091 A 
ATOM      4  C   UNL     1       7.007   2.596  -4.597  0.00  0.00    +0.169 A 
ATOM      5  N   UNL     1       7.716   2.297  -5.654  0.00  0.00    -0.063 NA
ATOM      6  O   UNL     1       8.584   3.115  -5.851  0.00  0.00    -0.358 OA
ATOM      7  N   UNL     1       5.928   1.878  -4.082  0.00  0.00    -0.252 N 
ATOM      8  C   UNL     1       5.297   2.313  -2.973  0.00  0.00    +0.305 C 
ATOM      9  O   UNL     1       5.668   3.331  -2.422  0.00  0.00    -0.252 OA
ATOM     10  N   UNL     1       4.254   1.619  -2.475  0.00  0.00    -0.296 N 
ATOM     11  H   UNL     1       5.631   1.066  -4.522  0.00  0.00    +0.158 HD
ATOM     12  H   UNL     1       3.958   0.807  -2.915  0.00  0.00    +0.151 HD
ENDROOT
BRANCH  10  13
ATOM     13  C   UNL     1       3.568   2.091  -1.270  0.00  0.00    +0.075 C 
ATOM     14  C   UNL     1       4.308   1.585  -0.031  0.00  0.00    +0.022 C 
ATOM     15  C   UNL     1       3.592   2.078   1.228  0.00  0.00    +0.005 C 
ATOM     16  C   UNL     1       2.157   1.548   1.239  0.00  0.00    -0.008 C 
ATOM     17  C   UNL     1       2.178   0.019   1.231  0.00  0.00    +0.004 C 
ATOM     18  C   UNL     1       0.742  -0.511   1.242  0.00  0.00    +0.000 C 
ATOM     19  C   UNL     1       0.002  -0.004   0.002  0.00  0.00    +0.000 C 
ATOM     20  C   UNL     1      -0.019   1.526   0.010  0.00  0.00    +0.004 C 
ATOM     21  C   UNL     1       1.417   2.055  -0.000  0.00  0.00    -0.006 C 
ATOM     22  C   UNL     1       2.133   1.562  -1.259  0.00  0.00    +0.026 C 
ENDBRANCH  10  13
TORSDOF 1
