REMARK  Name = ZINC19999494
REMARK  9 active torsions:
REMARK  status: ('A' for Active; 'I' for Inactive)
REMARK    1  A    between atoms: C_1  and  C_2
REMARK    2  A    between atoms: C_2  and  C_4
REMARK    3  A    between atoms: C_2  and  N_11
REMARK    4  A    between atoms: N_11  and  C_12
REMARK    5  A    between atoms: C_12  and  C_14
REMARK    6  A    between atoms: C_12  and  C_15
REMARK    7  A    between atoms: C_17  and  O_22
REMARK    8  A    between atoms: C_20  and  O_21
REMARK    9  A    between atoms: O_22  and  C_23
REMARK                            x       y       z     vdW  Elec       q    Type
REMARK                         _______ _______ _______ _____ _____    ______ ____
ROOT
ATOM      1  N   UNL     1      -2.280   1.942   5.819  0.00  0.00    +0.388 N 
ATOM      2  H   UNL     1      -2.652   1.229   5.068  0.00  0.00    -0.084 HD
ATOM      3  H   UNL     1      -2.386   2.967   5.435  0.00  0.00    -0.084 HD
ENDROOT
BRANCH   1   5
ATOM      4  C   UNL     1      -3.437   0.330   7.255  0.00  0.00    -0.009 C 
ATOM      5  C   UNL     1      -3.060   1.799   7.056  0.00  0.00    -0.042 C 
BRANCH   5   6
ATOM      6  C   UNL     1      -4.312   2.631   6.959  0.00  0.00    -0.043 A 
ATOM      7  C   UNL     1      -4.842   2.942   5.721  0.00  0.00    +0.003 A 
ATOM      8  C   UNL     1      -5.990   3.706   5.632  0.00  0.00    +0.000 A 
ATOM      9  C   UNL     1      -6.611   4.159   6.782  0.00  0.00    +0.001 A 
ATOM     10  C   UNL     1      -6.083   3.848   8.020  0.00  0.00    +0.020 A 
ATOM     11  C   UNL     1      -4.936   3.079   8.110  0.00  0.00    +0.043 A 
ATOM     12 CL   UNL     1      -4.276   2.683   9.666  0.00  0.00    -0.083 Cl
ENDBRANCH   5   6
ENDBRANCH   1   5
BRANCH   1  13
ATOM     13  C   UNL     1      -0.856   1.673   6.060  0.00  0.00    -0.040 C 
ATOM     14  C   UNL     1      -0.174   2.949   6.558  0.00  0.00    -0.009 C 
BRANCH  13  15
ATOM     15  C   UNL     1      -0.206   1.224   4.777  0.00  0.00    -0.017 A 
ATOM     16  C   UNL     1      -0.747   1.595   3.561  0.00  0.00    +0.051 A 
ATOM     17  C   UNL     1      -0.148   1.182   2.380  0.00  0.00    +0.121 A 
ATOM     18  C   UNL     1       0.991   0.392   2.420  0.00  0.00    +0.049 A 
ATOM     19  C   UNL     1       1.536   0.026   3.635  0.00  0.00    +0.049 A 
ATOM     20  C   UNL     1       0.937   0.439   4.816  0.00  0.00    +0.119 A 
BRANCH  20  21
ATOM     21  O   UNL     1       1.470   0.074   6.013  0.00  0.00    -0.507 OA
ATOM     22  H   UNL     1       2.376  -0.548   6.045  0.00  0.00    +0.292 HD
ENDBRANCH  20  21
BRANCH  17  23
ATOM     23  O   UNL     1      -0.682   1.547   1.184  0.00  0.00    -0.495 OA
ATOM     24  C   UNL     1      -0.013   1.086   0.008  0.00  0.00    +0.277 C 
ENDBRANCH  17  23
ENDBRANCH  13  15
ENDBRANCH   1  13
TORSDOF 6
