REMARK  Name = ZINC66115460
REMARK  8 active torsions:
REMARK  status: ('A' for Active; 'I' for Inactive)
REMARK    1  A    between atoms: C_4  and  O_21
REMARK    2  A    between atoms: C_5  and  C_7
REMARK    3  A    between atoms: C_7  and  N_8
REMARK    4  A    between atoms: C_14  and  C_16
REMARK    5  A    between atoms: C_16  and  C_17
REMARK    6  A    between atoms: N_19  and  N_20
REMARK    7  A    between atoms: O_21  and  C_22
REMARK    8  A    between atoms: C_22  and  C_23
REMARK                            x       y       z     vdW  Elec       q    Type
REMARK                         _______ _______ _______ _____ _____    ______ ____
ROOT
ATOM      1  N   UNL     1       1.606  -2.673   1.123  0.00  0.00    +0.391 N 
ATOM      2  C   UNL     1       2.937  -2.142   1.455  0.00  0.00    -0.058 C 
ATOM      3  C   UNL     1       3.157  -2.270   2.963  0.00  0.00    +0.085 C 
ATOM      4  N   UNL     1       2.866  -3.635   3.394  0.00  0.00    -0.318 N 
ATOM      5  C   UNL     1       2.156  -4.490   2.648  0.00  0.00    +0.200 C 
ATOM      6  O   UNL     1       1.936  -5.600   3.086  0.00  0.00    -0.278 OA
ATOM      7  C   UNL     1       1.621  -4.131   1.291  0.00  0.00    +0.028 C 
ATOM      8  H   UNL     1       3.200  -3.934   4.254  0.00  0.00    +0.149 HD
ATOM      9  H   UNL     1       0.916  -2.269   1.739  0.00  0.00    -0.080 HD
ENDROOT
BRANCH   1  10
ATOM     10  C   UNL     1       1.277  -2.341  -0.270  0.00  0.00    -0.038 C 
BRANCH  10  15
ATOM     11  C   UNL     1      -0.236   1.115  -0.412  0.00  0.00    +0.000 A 
ATOM     12  C   UNL     1       0.875   1.896  -0.670  0.00  0.00    +0.004 A 
ATOM     13  C   UNL     1       2.119   1.308  -0.800  0.00  0.00    +0.046 A 
ATOM     14  C   UNL     1       2.252  -0.067  -0.670  0.00  0.00    +0.122 A 
ATOM     15  C   UNL     1       1.136  -0.848  -0.411  0.00  0.00    -0.022 A 
ATOM     16  C   UNL     1      -0.106  -0.256  -0.282  0.00  0.00    +0.005 A 
BRANCH  14  17
ATOM     17  O   UNL     1       3.474  -0.647  -0.797  0.00  0.00    -0.489 OA
BRANCH  17  18
ATOM     18  C   UNL     1       4.579   0.219  -1.065  0.00  0.00    +0.260 C 
BRANCH  18  19
ATOM     19  C   UNL     1       5.861  -0.608  -1.175  0.00  0.00    +0.156 C 
ATOM     20  C   UNL     1       7.076   0.329  -1.343  0.00  0.00    +0.037 C 
ATOM     21  C   UNL     1       7.946  -0.442  -2.374  0.00  0.00    +0.031 C 
ATOM     22  C   UNL     1       6.850  -1.102  -3.248  0.00  0.00    +0.160 C 
ATOM     23  O   UNL     1       5.798  -1.451  -2.331  0.00  0.00    -0.373 OA
ENDBRANCH  18  19
ENDBRANCH  17  18
ENDBRANCH  14  17
ENDBRANCH  10  15
ENDBRANCH   1  10
BRANCH   7  24
ATOM     24  C   UNL     1       0.197  -4.673   1.148  0.00  0.00    +0.091 C 
BRANCH  24  25
ATOM     25  C   UNL     1      -0.674  -4.087   2.229  0.00  0.00    +0.225 C 
ATOM     26  O   UNL     1      -0.183  -3.396   3.097  0.00  0.00    -0.275 OA
ATOM     27  N   UNL     1      -2.000  -4.330   2.232  0.00  0.00    -0.254 N 
ATOM     28  H   UNL     1      -2.393  -4.882   1.539  0.00  0.00    +0.169 HD
BRANCH  27  29
ATOM     29  N   UNL     1      -2.790  -3.799   3.212  0.00  0.00    -0.254 NA
ATOM     30  H   UNL     1      -2.694  -2.795   3.249  0.00  0.00    +0.140 HD
ATOM     31  H   UNL     1      -3.754  -4.066   3.084  0.00  0.00    +0.140 HD
ENDBRANCH  27  29
ENDBRANCH  24  25
ENDBRANCH   7  24
TORSDOF 8
