REMARK  Name = ZINC39695435
REMARK  8 active torsions:
REMARK  status: ('A' for Active; 'I' for Inactive)
REMARK    1  A    between atoms: C_1  and  C_2
REMARK    2  A    between atoms: C_2  and  N_3
REMARK    3  A    between atoms: C_7  and  C_9
REMARK    4  A    between atoms: C_9  and  N_10
REMARK    5  A    between atoms: C_11  and  C_13
REMARK    6  A    between atoms: C_24  and  C_26
REMARK    7  A    between atoms: C_26  and  C_27
REMARK    8  A    between atoms: C_26  and  C_28
REMARK                            x       y       z     vdW  Elec       q    Type
REMARK                         _______ _______ _______ _____ _____    ______ ____
ROOT
ATOM      1  C   UNL     1      -3.522  -1.295   3.778  0.00  0.00    +0.100 C 
ATOM      2  C   UNL     1      -3.348   0.226   3.986  0.00  0.00    +0.121 C 
ATOM      3  N   UNL     1      -4.439   0.604   4.915  0.00  0.00    -0.300 N 
ATOM      4  C   UNL     1      -4.506  -0.518   5.881  0.00  0.00    +0.115 C 
ATOM      5  C   UNL     1      -4.282  -1.780   5.024  0.00  0.00    -0.004 C 
ATOM      6  C   UNL     1      -3.442  -2.796   5.793  0.00  0.00    -0.010 C 
ATOM      7  C   UNL     1      -4.242  -3.307   6.995  0.00  0.00    -0.082 C 
ATOM      8  N   UNL     1      -5.489  -3.925   6.529  0.00  0.00    +0.379 N 
ATOM      9  C   UNL     1      -6.332  -2.918   5.872  0.00  0.00    -0.082 C 
ATOM     10  C   UNL     1      -5.621  -2.391   4.623  0.00  0.00    -0.010 C 
ATOM     11  C   UNL     1      -5.199   1.717   4.887  0.00  0.00    +0.218 C 
ATOM     12  O   UNL     1      -6.060   1.884   5.725  0.00  0.00    -0.275 OA
ATOM     13  H   UNL     1      -5.274  -4.661   5.873  0.00  0.00    -0.086 HD
ATOM     14  H   UNL     1      -5.985  -4.315   7.316  0.00  0.00    -0.086 HD
ENDROOT
BRANCH   1  16
ATOM     15  N   UNL     1      -2.038  -3.102   2.971  0.00  0.00    -0.317 N 
ATOM     16  C   UNL     1      -2.177  -1.969   3.688  0.00  0.00    +0.218 C 
ATOM     17  O   UNL     1      -1.220  -1.493   4.260  0.00  0.00    -0.275 OA
ATOM     18  H   UNL     1      -2.804  -3.483   2.513  0.00  0.00    +0.149 HD
BRANCH  15  19
ATOM     19  C   UNL     1      -0.731  -3.758   2.883  0.00  0.00    +0.089 C 
BRANCH  19  24
ATOM     20  N   UNL     1      -1.413  -4.664   0.701  0.00  0.00    +0.382 N 
ATOM     21  C   UNL     1      -0.439  -5.040  -0.346  0.00  0.00    -0.078 C 
ATOM     22  C   UNL     1       0.933  -5.044   0.374  0.00  0.00    -0.020 C 
ATOM     23  C   UNL     1       0.553  -5.611   1.768  0.00  0.00    -0.016 C 
ATOM     24  C   UNL     1      -0.847  -5.013   2.017  0.00  0.00    -0.051 C 
ATOM     25  H   UNL     1      -1.588  -3.671   0.659  0.00  0.00    -0.081 HD
BRANCH  20  27
ATOM     26  C   UNL     1      -3.316  -4.939  -0.816  0.00  0.00    -0.017 C 
ATOM     27  C   UNL     1      -2.669  -5.397   0.493  0.00  0.00    -0.082 C 
ENDBRANCH  20  27
ENDBRANCH  19  24
ENDBRANCH  15  19
ENDBRANCH   1  16
BRANCH  11  28
ATOM     28  C   UNL     1      -4.980   2.753   3.815  0.00  0.00    +0.069 C 
ATOM     29  C   UNL     1      -5.966   3.906   4.010  0.00  0.00    +0.017 C 
ATOM     30  C   UNL     1      -3.548   3.285   3.906  0.00  0.00    +0.017 C 
ENDBRANCH  11  28
TORSDOF 5
