REMARK  Name = ZINC67459002
REMARK  8 active torsions:
REMARK  status: ('A' for Active; 'I' for Inactive)
REMARK    1  A    between atoms: C_1  and  C_2
REMARK    2  A    between atoms: C_7  and  C_8
REMARK    3  A    between atoms: C_12  and  O_14
REMARK    4  A    between atoms: N_18  and  C_20
REMARK    5  A    between atoms: C_20  and  C_21
REMARK    6  A    between atoms: C_21  and  C_22
REMARK    7  A    between atoms: C_22  and  C_23
REMARK    8  A    between atoms: C_23  and  O_24
REMARK                            x       y       z     vdW  Elec       q    Type
REMARK                         _______ _______ _______ _____ _____    ______ ____
ROOT
ATOM      1  C   UNL     1       0.025   0.022   2.495  0.00  0.00    -0.014 A 
ATOM      2  C   UNL     1      -0.882  -0.326   3.496  0.00  0.00    +0.014 A 
ATOM      3  C   UNL     1      -0.876   0.361   4.692  0.00  0.00    -0.018 A 
ATOM      4  C   UNL     1       0.014   1.396   4.902  0.00  0.00    +0.163 A 
ATOM      5  C   UNL     1       0.930   1.743   3.912  0.00  0.00    +0.159 A 
ATOM      6  C   UNL     1       0.938   1.053   2.712  0.00  0.00    +0.057 A 
ATOM      7  O   UNL     1      -0.025   2.095   6.072  0.00  0.00    -0.490 OA
ATOM      8  C   UNL     1      -1.191   2.904   6.262  0.00  0.00    +0.211 C 
ATOM      9  C   UNL     1      -2.322   2.090   6.849  0.00  0.00    -0.037 C 
ATOM     10  N   UNL     1      -2.826   1.048   5.960  0.00  0.00    +0.385 N 
ATOM     11  C   UNL     1      -1.844  -0.028   5.793  0.00  0.00    -0.039 C 
ATOM     12  H   UNL     1      -3.031   1.453   5.059  0.00  0.00    -0.081 HD
ENDROOT
BRANCH   1  19
ATOM     13  C   UNL     1      -0.018   1.503   0.010  0.00  0.00    +0.044 C 
ATOM     14  C   UNL     1       0.002  -0.004   0.002  0.00  0.00    -0.043 A 
ATOM     15  C   UNL     1       0.006  -0.689  -1.196  0.00  0.00    +0.004 A 
ATOM     16  C   UNL     1       0.025  -2.072  -1.206  0.00  0.00    +0.000 A 
ATOM     17  C   UNL     1       0.040  -2.776  -0.015  0.00  0.00    +0.001 A 
ATOM     18  C   UNL     1       0.036  -2.102   1.189  0.00  0.00    +0.009 A 
ATOM     19  C   UNL     1       0.023  -0.708   1.204  0.00  0.00    -0.015 A 
ENDBRANCH   1  19
BRANCH   5  20
ATOM     20  O   UNL     1       1.817   2.752   4.125  0.00  0.00    -0.503 OA
ATOM     21  H   UNL     1       2.652   2.465   4.520  0.00  0.00    +0.292 HD
ENDBRANCH   5  20
BRANCH  10  22
ATOM     22  C   UNL     1      -4.061   0.488   6.527  0.00  0.00    -0.078 C 
BRANCH  22  23
ATOM     23  C   UNL     1      -5.146   1.567   6.550  0.00  0.00    -0.016 C 
BRANCH  23  24
ATOM     24  C   UNL     1      -6.432   0.984   7.139  0.00  0.00    +0.026 C 
BRANCH  24  25
ATOM     25  C   UNL     1      -7.517   2.062   7.162  0.00  0.00    +0.156 C 
BRANCH  25  26
ATOM     26  O   UNL     1      -8.718   1.518   7.713  0.00  0.00    -0.395 OA
ATOM     27  H   UNL     1      -9.450   2.148   7.759  0.00  0.00    +0.209 HD
ENDBRANCH  25  26
ENDBRANCH  24  25
ENDBRANCH  23  24
ENDBRANCH  22  23
ENDBRANCH  10  22
TORSDOF 7
