REMARK  Name = ZINC38043408
REMARK  8 active torsions:
REMARK  status: ('A' for Active; 'I' for Inactive)
REMARK    1  A    between atoms: C_1  and  C_2
REMARK    2  A    between atoms: C_2  and  N_3
REMARK    3  A    between atoms: N_3  and  C_4
REMARK    4  A    between atoms: C_4  and  C_5
REMARK    5  A    between atoms: C_5  and  C_6
REMARK    6  A    between atoms: C_6  and  N_7
REMARK    7  A    between atoms: N_7  and  C_8
REMARK    8  A    between atoms: C_13  and  N_14
REMARK                            x       y       z     vdW  Elec       q    Type
REMARK                         _______ _______ _______ _____ _____    ______ ____
ROOT
ATOM      1  C   UNL     1      -4.378  -5.929   0.066  0.00  0.00    +0.060 A 
ATOM      2  C   UNL     1      -3.315  -6.816  -0.048  0.00  0.00    +0.052 A 
ATOM      3  C   UNL     1      -3.559  -8.177  -0.106  0.00  0.00    +0.078 A 
ATOM      4  C   UNL     1      -4.867  -8.655  -0.051  0.00  0.00    +0.145 A 
ATOM      5  C   UNL     1      -5.923  -7.768   0.064  0.00  0.00    +0.082 A 
ATOM      6  C   UNL     1      -5.679  -6.408   0.127  0.00  0.00    +0.150 A 
ATOM      7  O   UNL     1      -5.093  -9.996  -0.111  0.00  0.00    -0.481 OA
ATOM      8  C   UNL     1      -4.186 -10.765  -0.905  0.00  0.00    +0.325 C 
ATOM      9  C   UNL     1      -2.768 -10.361  -0.589  0.00  0.00    +0.255 C 
ATOM     10  O   UNL     1      -1.871 -11.174  -0.665  0.00  0.00    -0.272 OA
ATOM     11  N   UNL     1      -2.500  -9.089  -0.220  0.00  0.00    -0.280 N 
ATOM     12  H   UNL     1      -1.589  -8.811  -0.037  0.00  0.00    +0.155 HD
ENDROOT
BRANCH   6  13
ATOM     13  N   UNL     1      -6.810  -5.461   0.254  0.00  0.00    +0.058 N 
ATOM     14  O   UNL     1      -7.764  -5.747   0.940  0.00  0.00    -0.126 OA
ATOM     15  O   UNL     1      -6.779  -4.401  -0.327  0.00  0.00    -0.126 OA
ENDBRANCH   6  13
BRANCH   1  16
ATOM     16  N   UNL     1      -4.136  -4.552   0.125  0.00  0.00    -0.342 N 
ATOM     17  H   UNL     1      -4.869  -3.938   0.290  0.00  0.00    +0.146 HD
BRANCH  16  18
ATOM     18  C   UNL     1      -2.778  -4.038  -0.063  0.00  0.00    +0.100 C 
BRANCH  18  19
ATOM     19  C   UNL     1      -2.790  -2.512   0.048  0.00  0.00    -0.000 C 
BRANCH  19  20
ATOM     20  C   UNL     1      -1.371  -1.975  -0.148  0.00  0.00    -0.081 C 
BRANCH  20  21
ATOM     21  N   UNL     1      -1.382  -0.510  -0.041  0.00  0.00    +0.379 N 
ATOM     22  H   UNL     1      -1.720  -0.242   0.872  0.00  0.00    -0.086 HD
ATOM     23  H   UNL     1      -1.988  -0.126  -0.750  0.00  0.00    -0.086 HD
BRANCH  21  25
ATOM     24  C   UNL     1      -0.032   1.532  -0.117  0.00  0.00    -0.017 C 
ATOM     25  C   UNL     1      -0.020   0.006  -0.229  0.00  0.00    -0.086 C 
ENDBRANCH  21  25
ENDBRANCH  20  21
ENDBRANCH  19  20
ENDBRANCH  18  19
ENDBRANCH  16  18
ENDBRANCH   1  16
TORSDOF 7
