REMARK  Name = ZINC64557767
REMARK  5 active torsions:
REMARK  status: ('A' for Active; 'I' for Inactive)
REMARK    1  A    between atoms: C_4  and  S_7
REMARK    2  A    between atoms: S_7  and  C_10
REMARK    3  A    between atoms: N_14  and  C_24
REMARK    4  A    between atoms: C_15  and  C_17
REMARK    5  A    between atoms: C_20  and  O_23
REMARK                            x       y       z     vdW  Elec       q    Type
REMARK                         _______ _______ _______ _____ _____    ______ ____
ROOT
ATOM      1  C   UNL     1       4.406  -1.094   1.637  0.00  0.00    +0.148 C 
ATOM      2  C   UNL     1       4.526  -2.271   2.252  0.00  0.00    +0.264 C 
ATOM      3  C   UNL     1       4.941  -2.060   3.646  0.00  0.00    +0.293 C 
ATOM      4  O   UNL     1       5.133  -2.945   4.458  0.00  0.00    -0.266 OA
ATOM      5  N   UNL     1       5.077  -0.744   3.891  0.00  0.00    -0.252 N 
ATOM      6  C   UNL     1       4.758  -0.029   2.649  0.00  0.00    +0.164 C 
ATOM      7  O   UNL     1       4.299  -3.482   1.676  0.00  0.00    -0.281 OA
ENDROOT
BRANCH   5   8
ATOM      8  C   UNL     1       5.458  -0.163   5.106  0.00  0.00    +0.038 A 
ATOM      9  C   UNL     1       5.551   1.218   5.217  0.00  0.00    +0.025 A 
ATOM     10  C   UNL     1       5.927   1.789   6.417  0.00  0.00    +0.022 A 
ATOM     11  C   UNL     1       6.210   0.986   7.508  0.00  0.00    +0.041 A 
ATOM     12  C   UNL     1       6.118  -0.390   7.400  0.00  0.00    +0.022 A 
ATOM     13  C   UNL     1       5.737  -0.966   6.204  0.00  0.00    +0.025 A 
ATOM     14 CL   UNL     1       6.683   1.707   9.015  0.00  0.00    -0.084 Cl
ENDBRANCH   5   8
BRANCH   6  15
ATOM     15  C   UNL     1       5.953   0.760   2.178  0.00  0.00    -0.021 A 
ATOM     16  C   UNL     1       7.226   0.243   2.335  0.00  0.00    +0.009 A 
ATOM     17  C   UNL     1       8.323   0.964   1.905  0.00  0.00    +0.046 A 
ATOM     18  C   UNL     1       8.146   2.208   1.315  0.00  0.00    +0.117 A 
ATOM     19  C   UNL     1       6.868   2.724   1.159  0.00  0.00    +0.046 A 
ATOM     20  C   UNL     1       5.774   1.996   1.586  0.00  0.00    +0.009 A 
BRANCH  18  21
ATOM     21  O   UNL     1       9.224   2.919   0.892  0.00  0.00    -0.507 OA
ATOM     22  H   UNL     1       9.478   2.741  -0.024  0.00  0.00    +0.292 HD
ENDBRANCH  18  21
ENDBRANCH   6  15
BRANCH   1  23
ATOM     23  S   UNL     1       3.934  -0.832  -0.041  0.00  0.00    +0.027 S 
ATOM     24  O   UNL     1       3.674  -2.114  -0.595  0.00  0.00    -0.164 OA
ATOM     25  O   UNL     1       4.890   0.060  -0.597  0.00  0.00    -0.164 OA
BRANCH  23  29
ATOM     26  C   UNL     1      -0.017   1.378   0.010  0.00  0.00    +0.000 A 
ATOM     27  C   UNL     1       1.171   2.086   0.002  0.00  0.00    +0.002 A 
ATOM     28  C   UNL     1       2.377   1.411  -0.013  0.00  0.00    +0.027 A 
ATOM     29  C   UNL     1       2.396   0.029  -0.020  0.00  0.00    +0.093 A 
ATOM     30  C   UNL     1       1.208  -0.679  -0.012  0.00  0.00    +0.027 A 
ATOM     31  C   UNL     1       0.002  -0.004   0.002  0.00  0.00    +0.002 A 
ENDBRANCH  23  29
ENDBRANCH   1  23
TORSDOF 5
