REMARK  Name = ZINC62840286
REMARK  4 active torsions:
REMARK  status: ('A' for Active; 'I' for Inactive)
REMARK    1  A    between atoms: C_1  and  C_2
REMARK    2  A    between atoms: C_2  and  C_8
REMARK    3  A    between atoms: N_10  and  C_11
REMARK    4  A    between atoms: C_16  and  N_17
REMARK                            x       y       z     vdW  Elec       q    Type
REMARK                         _______ _______ _______ _____ _____    ______ ____
ROOT
ATOM      1  C   UNL     1      -1.415  -0.509   0.008  0.00  0.00    +0.223 C 
ATOM      2  O   UNL     1      -1.788  -1.227   0.911  0.00  0.00    -0.275 OA
ATOM      3  N   UNL     1      -2.259  -0.194  -0.995  0.00  0.00    -0.283 N 
ATOM      4  H   UNL     1      -1.983   0.431  -1.683  0.00  0.00    +0.155 HD
ENDROOT
BRANCH   1   6
ATOM      5  C   UNL     1      -0.049   1.561   0.025  0.00  0.00    +0.021 C 
ATOM      6  C   UNL     1      -0.009   0.032   0.007  0.00  0.00    +0.041 C 
ATOM      7  C   UNL     1       0.725  -0.447  -1.250  0.00  0.00    -0.003 C 
ATOM      8  C   UNL     1       0.831  -1.973  -1.222  0.00  0.00    -0.082 C 
ATOM      9  N   UNL     1       1.575  -2.393  -0.029  0.00  0.00    +0.379 N 
ATOM     10  C   UNL     1       0.841  -2.001   1.181  0.00  0.00    -0.082 C 
ATOM     11  C   UNL     1       0.736  -0.475   1.245  0.00  0.00    -0.003 C 
ATOM     12  H   UNL     1       1.690  -3.396  -0.041  0.00  0.00    -0.086 HD
ATOM     13  H   UNL     1       2.483  -1.953  -0.027  0.00  0.00    -0.086 HD
ENDBRANCH   1   6
BRANCH   3  14
ATOM     14  C   UNL     1      -3.534  -0.770  -1.044  0.00  0.00    +0.064 A 
ATOM     15  C   UNL     1      -4.226  -1.030   0.132  0.00  0.00    +0.027 A 
ATOM     16  C   UNL     1      -5.483  -1.597   0.081  0.00  0.00    +0.017 A 
ATOM     17  C   UNL     1      -6.054  -1.909  -1.141  0.00  0.00    +0.020 A 
ATOM     18  C   UNL     1      -5.367  -1.652  -2.314  0.00  0.00    +0.050 A 
ATOM     19  C   UNL     1      -4.111  -1.078  -2.269  0.00  0.00    +0.148 A 
ATOM     20 BR   UNL     1      -7.776  -2.688  -1.207  0.00  0.00    -0.050 Br
BRANCH  19  21
ATOM     21  N   UNL     1      -3.379  -0.798  -3.524  0.00  0.00    +0.058 N 
ATOM     22  O   UNL     1      -3.919  -0.976  -4.591  0.00  0.00    -0.126 OA
ATOM     23  O   UNL     1      -2.241  -0.391  -3.483  0.00  0.00    -0.126 OA
ENDBRANCH  19  21
ENDBRANCH   3  14
TORSDOF 3
