REMARK  Name = ZINC20569187
REMARK  5 active torsions:
REMARK  status: ('A' for Active; 'I' for Inactive)
REMARK    1  A    between atoms: C_1  and  C_2
REMARK    2  A    between atoms: C_4  and  C_15
REMARK    3  A    between atoms: C_4  and  O_21
REMARK    4  A    between atoms: C_5  and  N_9
REMARK    5  A    between atoms: N_7  and  O_8
REMARK                            x       y       z     vdW  Elec       q    Type
REMARK                         _______ _______ _______ _____ _____    ______ ____
ROOT
ATOM      1  C   UNL     1      -2.551   1.866   0.181  0.00  0.00    +0.065 C 
ATOM      2  C   UNL     1      -1.082   2.189   0.085  0.00  0.00    +0.040 C 
ATOM      3  C   UNL     1      -0.144   1.274   0.126  0.00  0.00    +0.038 C 
ATOM      4  C   UNL     1       1.206   1.943  -0.003  0.00  0.00    +0.147 C 
ATOM      5  C   UNL     1       0.866   3.441  -0.123  0.00  0.00    +0.222 C 
ATOM      6  N   UNL     1      -0.602   3.477  -0.052  0.00  0.00    -0.239 N 
ENDROOT
BRANCH   5   7
ATOM      7  N   UNL     1       1.458   4.194   0.991  0.00  0.00    -0.274 NA
ATOM      8  C   UNL     1       0.863   5.535   1.095  0.00  0.00    +0.114 C 
ATOM      9  C   UNL     1       1.463   6.261   2.302  0.00  0.00    +0.175 C 
ATOM     10  O   UNL     1       2.886   6.309   2.164  0.00  0.00    -0.377 OA
ATOM     11  C   UNL     1       3.498   5.021   2.061  0.00  0.00    +0.175 C 
ATOM     12  C   UNL     1       2.918   4.282   0.852  0.00  0.00    +0.114 C 
ENDBRANCH   5   7
BRANCH   4  13
ATOM     13  C   UNL     1       2.044   1.683   1.222  0.00  0.00    -0.009 A 
ATOM     14  C   UNL     1       3.301   1.123   1.094  0.00  0.00    +0.007 A 
ATOM     15  C   UNL     1       4.071   0.889   2.217  0.00  0.00    +0.000 A 
ATOM     16  C   UNL     1       3.581   1.207   3.470  0.00  0.00    +0.000 A 
ATOM     17  C   UNL     1       2.321   1.762   3.599  0.00  0.00    +0.000 A 
ATOM     18  C   UNL     1       1.553   2.000   2.475  0.00  0.00    +0.007 A 
ENDBRANCH   4  13
BRANCH   6  19
ATOM     19  O   UNL     1      -1.398   4.646  -0.119  0.00  0.00    -0.285 OA
ATOM     20  H   UNL     1      -0.921   5.631  -0.228  0.00  0.00    +0.244 HD
ENDBRANCH   6  19
BRANCH   4  21
ATOM     21  O   UNL     1       1.881   1.486  -1.177  0.00  0.00    -0.376 OA
ATOM     22  H   UNL     1       2.881   1.875  -1.422  0.00  0.00    +0.211 HD
ENDBRANCH   4  21
TORSDOF 4
