REMARK  Name = ZINC13174765
REMARK  11 active torsions:
REMARK  status: ('A' for Active; 'I' for Inactive)
REMARK    1  A    between atoms: C_1  and  C_2
REMARK    2  A    between atoms: C_6  and  C_36
REMARK    3  A    between atoms: C_7  and  N_8
REMARK    4  A    between atoms: C_9  and  C_11
REMARK    5  A    between atoms: C_11  and  S_12
REMARK    6  A    between atoms: S_12  and  C_13
REMARK    7  A    between atoms: C_14  and  C_34
REMARK    8  A    between atoms: C_15  and  C_25
REMARK    9  A    between atoms: C_28  and  O_33
REMARK   10  A    between atoms: C_29  and  O_31
REMARK   11  A    between atoms: O_31  and  C_32
REMARK                            x       y       z     vdW  Elec       q    Type
REMARK                         _______ _______ _______ _____ _____    ______ ____
ROOT
ATOM      1  C   UNL     1      -0.331   0.084   7.658  0.00  0.00    +0.080 C 
ATOM      2  C   UNL     1      -0.456  -0.455   8.901  0.00  0.00    +0.069 C 
ATOM      3  C   UNL     1      -0.505   0.416  10.121  0.00  0.00    +0.097 C 
ATOM      4  C   UNL     1      -0.835   1.842   9.759  0.00  0.00    +0.024 C 
ATOM      5  C   UNL     1      -0.692   2.287   8.493  0.00  0.00    +0.016 C 
ATOM      6  N   UNL     1      -0.250   1.448   7.504  0.00  0.00    -0.311 N 
ATOM      7  C   UNL     1      -1.003   3.719   8.133  0.00  0.00    +0.051 C 
ATOM      8  C   UNL     1      -2.118   4.246   9.039  0.00  0.00    +0.014 C 
ATOM      9  C   UNL     1      -1.657   4.125  10.496  0.00  0.00    +0.080 C 
ATOM     10  C   UNL     1      -1.297   2.692  10.778  0.00  0.00    +0.162 C 
ATOM     11  O   UNL     1      -1.409   2.262  11.909  0.00  0.00    -0.292 OA
ATOM     12  H   UNL     1       0.120   1.818   6.687  0.00  0.00    +0.152 HD
ENDROOT
BRANCH   3  13
ATOM     13  C   UNL     1       0.836   0.379  10.809  0.00  0.00    -0.031 A 
ATOM     14  C   UNL     1       1.966   0.806  10.138  0.00  0.00    +0.008 A 
ATOM     15  C   UNL     1       3.199   0.774  10.764  0.00  0.00    +0.049 A 
ATOM     16  C   UNL     1       3.302   0.315  12.067  0.00  0.00    +0.158 A 
ATOM     17  C   UNL     1       2.163  -0.114  12.742  0.00  0.00    +0.162 A 
ATOM     18  C   UNL     1       0.931  -0.075  12.111  0.00  0.00    +0.054 A 
BRANCH  17  19
ATOM     19  O   UNL     1       2.260  -0.566  14.021  0.00  0.00    -0.491 OA
ATOM     20  C   UNL     1       1.050  -0.991  14.652  0.00  0.00    +0.277 C 
ENDBRANCH  17  19
BRANCH  16  21
ATOM     21  O   UNL     1       4.513   0.283  12.684  0.00  0.00    -0.503 OA
ATOM     22  H   UNL     1       4.733   1.094  13.163  0.00  0.00    +0.292 HD
ENDBRANCH  16  21
ENDBRANCH   3  13
BRANCH   2  23
ATOM     23  C   UNL     1      -0.542  -1.877   9.046  0.00  0.00    +0.098 C 
ATOM     24  N   UNL     1      -0.610  -3.005   9.161  0.00  0.00    -0.191 NA
ENDBRANCH   2  23
BRANCH   1  25
ATOM     25  S   UNL     1      -0.266  -0.967   6.246  0.00  0.00    -0.100 S 
BRANCH  25  26
ATOM     26  C   UNL     1      -0.092   0.181   4.852  0.00  0.00    +0.171 C 
BRANCH  26  28
ATOM     27  N   UNL     1       0.107   0.050   2.390  0.00  0.00    -0.284 N 
ATOM     28  C   UNL     1      -0.024  -0.598   3.564  0.00  0.00    +0.227 C 
ATOM     29  O   UNL     1      -0.086  -1.810   3.585  0.00  0.00    -0.275 OA
ATOM     30  H   UNL     1       0.223   1.013   2.378  0.00  0.00    +0.155 HD
BRANCH  27  37
ATOM     31  C   UNL     1       2.558  -0.356   1.002  0.00  0.00    +0.045 C 
ATOM     32  C   UNL     1       1.248  -0.887   0.479  0.00  0.00    -0.029 A 
ATOM     33  C   UNL     1       1.214  -1.599  -0.704  0.00  0.00    +0.005 A 
ATOM     34  C   UNL     1       0.013  -2.087  -1.185  0.00  0.00    +0.001 A 
ATOM     35  C   UNL     1      -1.158  -1.863  -0.484  0.00  0.00    +0.005 A 
ATOM     36  C   UNL     1      -1.131  -1.152   0.700  0.00  0.00    -0.029 A 
ATOM     37  C   UNL     1       0.075  -0.666   1.188  0.00  0.00    +0.039 A 
ATOM     38  C   UNL     1      -2.407  -0.908   1.463  0.00  0.00    +0.045 C 
ENDBRANCH  27  37
ENDBRANCH  26  28
ENDBRANCH  25  26
ENDBRANCH   1  25
TORSDOF 8
