REMARK  Name = ZINC55303999
REMARK  2 active torsions:
REMARK  status: ('A' for Active; 'I' for Inactive)
REMARK    1  A    between atoms: C_6  and  C_7
REMARK    2  A    between atoms: C_7  and  C_9
REMARK                            x       y       z     vdW  Elec       q    Type
REMARK                         _______ _______ _______ _____ _____    ______ ____
ROOT
ATOM      1  C   UNL     1      -0.017   1.380   0.010  0.00  0.00    +0.007 A 
ATOM      2  C   UNL     1       1.167   2.093   0.002  0.00  0.00    +0.028 A 
ATOM      3  C   UNL     1       2.378   1.419  -0.013  0.00  0.00    +0.067 A 
ATOM      4  C   UNL     1       2.397   0.022  -0.021  0.00  0.00    +0.067 A 
ATOM      5  C   UNL     1       1.204  -0.684  -0.014  0.00  0.00    +0.033 A 
ATOM      6  C   UNL     1       0.002  -0.004   0.002  0.00  0.00    -0.025 A 
ATOM      7  N   UNL     1       3.736  -0.362  -0.035  0.00  0.00    -0.306 N 
ATOM      8  H   UNL     1       4.064  -1.275  -0.043  0.00  0.00    +0.170 HD
ATOM      9  C   UNL     1       4.496   0.749  -0.035  0.00  0.00    +0.325 A 
ATOM     10  O   UNL     1       5.713   0.766  -0.047  0.00  0.00    -0.247 OA
ATOM     11  N   UNL     1       3.706   1.839  -0.023  0.00  0.00    -0.306 N 
ATOM     12  H   UNL     1       4.010   2.760  -0.020  0.00  0.00    +0.170 HD
ENDROOT
BRANCH   6  13
ATOM     13  C   UNL     1      -1.294  -0.772   0.011  0.00  0.00    +0.141 C 
ATOM     14 CL   UNL     1      -2.322  -0.232  -1.369  0.00  0.00    -0.114 Cl
BRANCH  13  15
ATOM     15  C   UNL     1      -2.031  -0.514   1.327  0.00  0.00    +0.166 C 
ATOM     16  C   UNL     1      -3.284  -1.392   1.392  0.00  0.00    +0.193 C 
ATOM     17  O   UNL     1      -3.906  -1.228   2.671  0.00  0.00    -0.375 OA
ATOM     18  C   UNL     1      -3.049  -1.552   3.769  0.00  0.00    +0.188 C 
ATOM     19  C   UNL     1      -1.795  -0.674   3.704  0.00  0.00    +0.188 C 
ATOM     20  O   UNL     1      -1.173  -0.837   2.426  0.00  0.00    -0.370 OA
ENDBRANCH  13  15
ENDBRANCH   6  13
TORSDOF 2
