REMARK  Name = ZINC62079913
REMARK  8 active torsions:
REMARK  status: ('A' for Active; 'I' for Inactive)
REMARK    1  A    between atoms: C_1  and  C_2
REMARK    2  A    between atoms: C_2  and  C_4
REMARK    3  A    between atoms: C_2  and  C_17
REMARK    4  A    between atoms: C_4  and  N_5
REMARK    5  A    between atoms: C_6  and  C_8
REMARK    6  A    between atoms: C_8  and  C_14
REMARK    7  A    between atoms: C_14  and  N_16
REMARK    8  A    between atoms: C_17  and  N_18
REMARK                            x       y       z     vdW  Elec       q    Type
REMARK                         _______ _______ _______ _____ _____    ______ ____
ROOT
ATOM      1  N   UNL     1       2.154  -0.143   1.156  0.00  0.00    -0.314 N 
ATOM      2  C   UNL     1       2.998  -0.442   2.163  0.00  0.00    +0.225 C 
ATOM      3  O   UNL     1       2.576  -0.969   3.171  0.00  0.00    -0.275 OA
ATOM      4  H   UNL     1       2.477   0.344   0.381  0.00  0.00    +0.149 HD
ENDROOT
BRANCH   2   5
ATOM      5  C   UNL     1       4.465  -0.122   2.038  0.00  0.00    +0.091 C 
ATOM      6  C   UNL     1       5.220  -0.716   3.228  0.00  0.00    +0.023 C 
ATOM      7  C   UNL     1       5.029  -2.234   3.247  0.00  0.00    +0.001 C 
ATOM      8  C   UNL     1       5.573  -2.832   1.948  0.00  0.00    +0.000 C 
ATOM      9  C   UNL     1       4.817  -2.238   0.757  0.00  0.00    +0.001 C 
ATOM     10  C   UNL     1       5.008  -0.720   0.739  0.00  0.00    +0.023 C 
BRANCH   5  11
ATOM     11  C   UNL     1       4.653   1.373   2.020  0.00  0.00    +0.061 C 
ATOM     12  S   UNL     1       5.226   2.091   0.711  0.00  0.00    -0.040 S 
BRANCH  11  13
ATOM     13  N   UNL     1       4.338   2.106   3.107  0.00  0.00    -0.355 N 
ATOM     14  H   UNL     1       3.923   1.681   3.874  0.00  0.00    +0.143 HD
ATOM     15  H   UNL     1       4.527   3.057   3.122  0.00  0.00    +0.143 HD
ENDBRANCH  11  13
ENDBRANCH   5  11
ENDBRANCH   2   5
BRANCH   1  16
ATOM     16  C   UNL     1       0.750  -0.552   1.230  0.00  0.00    +0.105 C 
BRANCH  16  18
ATOM     17  C   UNL     1      -0.009   1.437  -0.077  0.00  0.00    +0.007 C 
ATOM     18  C   UNL     1       0.017  -0.092  -0.032  0.00  0.00    -0.014 C 
BRANCH  18  19
ATOM     19  C   UNL     1      -1.417  -0.626  -0.012  0.00  0.00    -0.074 C 
BRANCH  19  20
ATOM     20  N   UNL     1      -2.083  -0.286  -1.276  0.00  0.00    +0.380 N 
ATOM     21  C   UNL     1      -1.482  -1.057  -2.395  0.00  0.00    -0.079 C 
ATOM     22  C   UNL     1      -2.593  -1.039  -3.475  0.00  0.00    -0.020 C 
ATOM     23  C   UNL     1      -3.889  -1.167  -2.641  0.00  0.00    -0.020 C 
ATOM     24  C   UNL     1      -3.506  -0.690  -1.228  0.00  0.00    -0.079 C 
ATOM     25  H   UNL     1      -2.008   0.704  -1.455  0.00  0.00    -0.082 HD
ENDBRANCH  19  20
ENDBRANCH  18  19
ENDBRANCH  16  18
ENDBRANCH   1  16
TORSDOF 7
