REMARK  Name = ZINC43321905
REMARK  5 active torsions:
REMARK  status: ('A' for Active; 'I' for Inactive)
REMARK    1  A    between atoms: C_1  and  C_2
REMARK    2  A    between atoms: C_5  and  C_9
REMARK    3  A    between atoms: C_7  and  N_8
REMARK    4  A    between atoms: N_13  and  C_14
REMARK    5  A    between atoms: C_19  and  C_20
REMARK                            x       y       z     vdW  Elec       q    Type
REMARK                         _______ _______ _______ _____ _____    ______ ____
ROOT
ATOM      1  C   UNL     1      -0.542  -3.843  -0.208  0.00  0.00    +0.187 A 
ATOM      2  N   UNL     1      -0.762  -4.504   0.910  0.00  0.00    -0.108 NA
ATOM      3  N   UNL     1      -0.442  -5.739   0.773  0.00  0.00    -0.022 NA
ATOM      4  N   UNL     1      -0.000  -5.965  -0.416  0.00  0.00    -0.039 NA
ATOM      5  N   UNL     1      -0.051  -4.742  -1.109  0.00  0.00    -0.192 N 
ENDROOT
BRANCH   5   6
ATOM      6  C   UNL     1       0.325  -4.499  -2.437  0.00  0.00    +0.075 A 
ATOM      7  C   UNL     1       1.303  -3.554  -2.721  0.00  0.00    +0.028 A 
ATOM      8  C   UNL     1       1.672  -3.316  -4.030  0.00  0.00    +0.005 A 
ATOM      9  C   UNL     1       1.070  -4.017  -5.059  0.00  0.00    +0.039 A 
ATOM     10  C   UNL     1       0.095  -4.960  -4.780  0.00  0.00    +0.128 A 
ATOM     11  C   UNL     1      -0.275  -5.206  -3.470  0.00  0.00    +0.010 A 
ATOM     12  C   UNL     1      -1.332  -6.236  -3.165  0.00  0.00    +0.049 C 
ATOM     13  F   UNL     1      -0.491  -5.643  -5.787  0.00  0.00    -0.205 F 
ENDBRANCH   5   6
BRANCH   1  18
ATOM     14  C   UNL     1      -1.496   1.760  -1.140  0.00  0.00    +0.045 C 
ATOM     15  C   UNL     1      -1.246   0.295  -0.894  0.00  0.00    -0.030 A 
ATOM     16  C   UNL     1      -1.129  -0.573  -1.964  0.00  0.00    +0.006 A 
ATOM     17  C   UNL     1      -0.900  -1.916  -1.746  0.00  0.00    +0.012 A 
ATOM     18  C   UNL     1      -0.786  -2.403  -0.443  0.00  0.00    +0.023 A 
ATOM     19  C   UNL     1      -0.905  -1.529   0.635  0.00  0.00    +0.034 A 
ATOM     20  C   UNL     1      -1.129  -0.179   0.407  0.00  0.00    +0.028 A 
BRANCH  20  21
ATOM     21  N   UNL     1      -1.243   0.702   1.485  0.00  0.00    -0.358 N 
ATOM     22  H   UNL     1      -1.404   1.645   1.325  0.00  0.00    +0.142 HD
ATOM     23  H   UNL     1      -1.162   0.371   2.393  0.00  0.00    +0.142 HD
ENDBRANCH  20  21
ENDBRANCH   1  18
TORSDOF 3
