REMARK  Name = ZINC62300107
REMARK  8 active torsions:
REMARK  status: ('A' for Active; 'I' for Inactive)
REMARK    1  A    between atoms: C_1  and  C_2
REMARK    2  A    between atoms: C_2  and  C_3
REMARK    3  A    between atoms: C_2  and  C_4
REMARK    4  A    between atoms: C_4  and  C_5
REMARK    5  A    between atoms: C_5  and  N_6
REMARK    6  A    between atoms: C_7  and  C_13
REMARK    7  A    between atoms: C_8  and  C_11
REMARK    8  A    between atoms: C_11  and  N_12
REMARK                            x       y       z     vdW  Elec       q    Type
REMARK                         _______ _______ _______ _____ _____    ______ ____
ROOT
ATOM      1  N   UNL     1      -2.790  -2.565  -0.111  0.00  0.00    -0.241 N 
ATOM      2  C   UNL     1      -3.520  -2.940   0.986  0.00  0.00    +0.125 A 
ATOM      3  C   UNL     1      -4.739  -3.342   0.518  0.00  0.00    +0.076 A 
ATOM      4  N   UNL     1      -4.752  -3.219  -0.806  0.00  0.00    -0.136 NA
ATOM      5  N   UNL     1      -3.625  -2.758  -1.222  0.00  0.00    -0.065 NA
ENDROOT
BRANCH   2   6
ATOM      6  C   UNL     1      -3.078  -2.914   2.391  0.00  0.00    +0.156 A 
ATOM      7  C   UNL     1      -3.801  -2.453   3.448  0.00  0.00    +0.052 A 
ATOM      8  C   UNL     1      -2.997  -2.619   4.593  0.00  0.00    +0.057 A 
ATOM      9  C   UNL     1      -1.835  -3.166   4.184  0.00  0.00    +0.171 A 
ATOM     10  O   UNL     1      -1.889  -3.349   2.854  0.00  0.00    -0.447 OA
ATOM     11 BR   UNL     1      -0.373  -3.611   5.298  0.00  0.00    -0.008 Br
ENDBRANCH   2   6
BRANCH   1  12
ATOM     12  C   UNL     1      -1.416  -2.058  -0.121  0.00  0.00    +0.146 C 
BRANCH  12  13
ATOM     13  C   UNL     1      -1.433  -0.534   0.013  0.00  0.00    +0.026 C 
BRANCH  13  15
ATOM     14  C   UNL     1      -0.019   1.526   0.010  0.00  0.00    +0.007 C 
ATOM     15  C   UNL     1       0.002  -0.004   0.002  0.00  0.00    -0.015 C 
ATOM     16  C   UNL     1       0.742  -0.511   1.242  0.00  0.00    +0.007 C 
ENDBRANCH  13  15
ENDBRANCH  12  13
ENDBRANCH   1  12
BRANCH   3  17
ATOM     17  C   UNL     1      -5.881  -3.844   1.364  0.00  0.00    -0.026 C 
BRANCH  17  18
ATOM     18  N   UNL     1      -6.728  -2.713   1.765  0.00  0.00    +0.382 N 
ATOM     19  H   UNL     1      -6.179  -2.054   2.297  0.00  0.00    -0.090 HD
ATOM     20  H   UNL     1      -7.093  -2.258   0.942  0.00  0.00    -0.090 HD
ATOM     21  H   UNL     1      -7.492  -3.049   2.331  0.00  0.00    -0.090 HD
ENDBRANCH  17  18
ENDBRANCH   3  17
TORSDOF 6
