REMARK  Name = ZINC61406428
REMARK  8 active torsions:
REMARK  status: ('A' for Active; 'I' for Inactive)
REMARK    1  A    between atoms: C_1  and  C_2
REMARK    2  A    between atoms: C_2  and  C_3
REMARK    3  A    between atoms: C_3  and  C_5
REMARK    4  A    between atoms: C_3  and  N_23
REMARK    5  A    between atoms: C_5  and  C_7
REMARK    6  A    between atoms: C_5  and  S_13
REMARK    7  A    between atoms: C_10  and  C_12
REMARK    8  A    between atoms: S_13  and  C_14
REMARK                            x       y       z     vdW  Elec       q    Type
REMARK                         _______ _______ _______ _____ _____    ______ ____
ROOT
ATOM      1  C   UNL     1       0.776  -2.044   1.245  0.00  0.00    +0.106 C 
ENDROOT
BRANCH   1   2
ATOM      2  C   UNL     1       1.262  -2.596   2.561  0.00  0.00    +0.117 A 
ATOM      3  C   UNL     1       0.560  -3.393   3.386  0.00  0.00    +0.046 A 
ATOM      4  C   UNL     1       1.394  -3.669   4.495  0.00  0.00    +0.044 A 
ATOM      5  C   UNL     1       2.555  -3.025   4.280  0.00  0.00    +0.102 A 
ATOM      6  O   UNL     1       2.471  -2.381   3.104  0.00  0.00    -0.464 OA
ATOM      7  C   UNL     1       3.748  -3.029   5.200  0.00  0.00    +0.086 C 
ENDBRANCH   1   2
BRANCH   1   8
ATOM      8  C   UNL     1       0.801  -0.515   1.294  0.00  0.00    -0.054 C 
BRANCH   8   9
ATOM      9  N   UNL     1      -0.051  -0.046   2.396  0.00  0.00    +0.381 N 
ATOM     10  H   UNL     1      -0.035   0.962   2.428  0.00  0.00    -0.090 HD
ATOM     11  H   UNL     1      -0.997  -0.363   2.247  0.00  0.00    -0.090 HD
ATOM     12  H   UNL     1       0.294  -0.416   3.269  0.00  0.00    -0.090 HD
ENDBRANCH   8   9
BRANCH   8  14
ATOM     13  C   UNL     1       0.427   1.569  -0.033  0.00  0.00    +0.002 C 
ATOM     14  C   UNL     1       0.277   0.046  -0.029  0.00  0.00    -0.018 C 
ENDBRANCH   8  14
ENDBRANCH   1   8
BRANCH   1  15
ATOM     15  S   UNL     1       1.858  -2.623  -0.091  0.00  0.00    -0.076 S 
BRANCH  15  16
ATOM     16  C   UNL     1       1.551  -4.357  -0.166  0.00  0.00    +0.197 A 
ATOM     17  N   UNL     1       0.776  -5.046   0.641  0.00  0.00    -0.122 NA
ATOM     18  N   UNL     1       0.774  -6.288   0.306  0.00  0.00    -0.129 NA
ATOM     19  C   UNL     1       1.555  -6.466  -0.744  0.00  0.00    +0.162 A 
ATOM     20  N   UNL     1       2.069  -5.230  -1.076  0.00  0.00    -0.278 N 
ATOM     21  C   UNL     1       2.918  -5.097  -2.139  0.00  0.00    +0.095 A 
ATOM     22  C   UNL     1       3.261  -6.170  -2.878  0.00  0.00    +0.018 A 
ATOM     23  C   UNL     1       2.751  -7.444  -2.566  0.00  0.00    +0.005 A 
ATOM     24  C   UNL     1       1.912  -7.596  -1.507  0.00  0.00    +0.049 A 
ENDBRANCH  15  16
ENDBRANCH   1  15
TORSDOF 6
