REMARK  Name = ZINC63027416
REMARK  11 active torsions:
REMARK  status: ('A' for Active; 'I' for Inactive)
REMARK    1  A    between atoms: C_1  and  C_2
REMARK    2  A    between atoms: C_2  and  C_4
REMARK    3  A    between atoms: C_2  and  N_23
REMARK    4  A    between atoms: C_4  and  C_6
REMARK    5  A    between atoms: C_4  and  C_20
REMARK    6  A    between atoms: C_9  and  S_15
REMARK    7  A    between atoms: C_11  and  N_12
REMARK    8  A    between atoms: S_15  and  N_18
REMARK    9  A    between atoms: N_18  and  C_19
REMARK   10  A    between atoms: C_20  and  C_21
REMARK   11  A    between atoms: C_20  and  C_22
REMARK                            x       y       z     vdW  Elec       q    Type
REMARK                         _______ _______ _______ _____ _____    ______ ____
ROOT
ATOM      1  C   UNL     1       0.453  -1.874   1.461  0.00  0.00    -0.015 A 
ATOM      2  C   UNL     1      -0.767  -2.523   1.409  0.00  0.00    +0.008 A 
ATOM      3  C   UNL     1      -0.822  -3.900   1.504  0.00  0.00    +0.029 A 
ATOM      4  C   UNL     1       0.343  -4.630   1.651  0.00  0.00    +0.107 A 
ATOM      5  C   UNL     1       1.563  -3.982   1.702  0.00  0.00    +0.061 A 
ATOM      6  C   UNL     1       1.618  -2.604   1.603  0.00  0.00    +0.131 A 
ENDROOT
BRANCH   6   7
ATOM      7  N   UNL     1       2.925  -1.910   1.652  0.00  0.00    +0.057 N 
ATOM      8  O   UNL     1       3.949  -2.551   1.679  0.00  0.00    -0.126 OA
ATOM      9  O   UNL     1       2.967  -0.702   1.667  0.00  0.00    -0.126 OA
ENDBRANCH   6   7
BRANCH   4  10
ATOM     10  S   UNL     1       0.273  -6.386   1.774  0.00  0.00    +0.058 S 
ATOM     11  O   UNL     1       1.454  -6.794   2.452  0.00  0.00    -0.153 OA
ATOM     12  O   UNL     1      -1.027  -6.709   2.247  0.00  0.00    -0.153 OA
BRANCH  10  13
ATOM     13  N   UNL     1       0.380  -6.989   0.235  0.00  0.00    -0.193 NA
ATOM     14  C   UNL     1       1.606  -6.796  -0.544  0.00  0.00    +0.127 C 
ATOM     15  H   UNL     1      -0.369  -7.470  -0.151  0.00  0.00    +0.148 HD
ENDBRANCH  10  13
ENDBRANCH   4  10
BRANCH   1  16
ATOM     16  C   UNL     1       0.513  -0.372   1.357  0.00  0.00    +0.009 C 
BRANCH  16  17
ATOM     17  C   UNL     1      -0.709   0.236   2.049  0.00  0.00    -0.011 C 
ATOM     18  C   UNL     1      -0.685  -0.124   3.536  0.00  0.00    +0.008 C 
ATOM     19  C   UNL     1      -0.679   1.758   1.892  0.00  0.00    +0.008 C 
ENDBRANCH  16  17
BRANCH  16  21
ATOM     20  C   UNL     1       1.776  -0.517  -0.793  0.00  0.00    -0.014 C 
ATOM     21  C   UNL     1       0.521   0.038  -0.117  0.00  0.00    -0.071 C 
BRANCH  21  22
ATOM     22  N   UNL     1      -0.672  -0.502  -0.781  0.00  0.00    +0.380 N 
ATOM     23  H   UNL     1      -0.631  -1.511  -0.781  0.00  0.00    -0.090 HD
ATOM     24  H   UNL     1      -1.499  -0.200  -0.287  0.00  0.00    -0.090 HD
ATOM     25  H   UNL     1      -0.708  -0.168  -1.733  0.00  0.00    -0.090 HD
ENDBRANCH  21  22
ENDBRANCH  16  21
ENDBRANCH   1  16
TORSDOF 7
