REMARK  Name = ZINC40053082
REMARK  8 active torsions:
REMARK  status: ('A' for Active; 'I' for Inactive)
REMARK    1  A    between atoms: C_8  and  C_10
REMARK    2  A    between atoms: C_10  and  C_12
REMARK    3  A    between atoms: N_16  and  C_26
REMARK    4  A    between atoms: C_17  and  C_19
REMARK    5  A    between atoms: C_22  and  O_25
REMARK    6  A    between atoms: C_26  and  C_27
REMARK    7  A    between atoms: C_27  and  C_28
REMARK    8  A    between atoms: C_28  and  O_29
REMARK                            x       y       z     vdW  Elec       q    Type
REMARK                         _______ _______ _______ _____ _____    ______ ____
ROOT
ATOM      1  C   UNL     1       5.418  -3.405  -0.040  0.00  0.00    +0.079 C 
ATOM      2  C   UNL     1       6.347  -4.379  -0.179  0.00  0.00    +0.249 C 
ATOM      3  C   UNL     1       7.680  -3.761  -0.329  0.00  0.00    +0.288 C 
ATOM      4  O   UNL     1       8.720  -4.373  -0.473  0.00  0.00    -0.266 OA
ATOM      5  N   UNL     1       7.574  -2.421  -0.282  0.00  0.00    -0.283 N 
ATOM      6  C   UNL     1       6.155  -2.087  -0.105  0.00  0.00    +0.145 C 
ATOM      7  O   UNL     1       6.094  -5.709  -0.181  0.00  0.00    -0.282 OA
ENDROOT
BRANCH   6   8
ATOM      8  C   UNL     1       5.963  -1.322   1.179  0.00  0.00    -0.022 A 
ATOM      9  C   UNL     1       6.653  -1.697   2.316  0.00  0.00    +0.009 A 
ATOM     10  C   UNL     1       6.478  -0.997   3.494  0.00  0.00    +0.046 A 
ATOM     11  C   UNL     1       5.609   0.083   3.535  0.00  0.00    +0.117 A 
ATOM     12  C   UNL     1       4.917   0.458   2.392  0.00  0.00    +0.046 A 
ATOM     13  C   UNL     1       5.100  -0.242   1.215  0.00  0.00    +0.009 A 
BRANCH  11  14
ATOM     14  O   UNL     1       5.434   0.773   4.693  0.00  0.00    -0.507 OA
ATOM     15  H   UNL     1       6.046   1.514   4.806  0.00  0.00    +0.292 HD
ENDBRANCH  11  14
ENDBRANCH   6   8
BRANCH   1  16
ATOM     16  C   UNL     1       3.974  -3.591   0.134  0.00  0.00    +0.230 C 
ATOM     17  O   UNL     1       3.544  -4.105   1.151  0.00  0.00    -0.283 OA
BRANCH  16  25
ATOM     18  C   UNL     1      -0.220  -2.019  -3.921  0.00  0.00    +0.001 A 
ATOM     19  C   UNL     1       0.886  -1.493  -4.575  0.00  0.00    +0.004 A 
ATOM     20  C   UNL     1       2.146  -1.601  -4.027  0.00  0.00    +0.047 A 
ATOM     21  C   UNL     1       2.317  -2.241  -2.805  0.00  0.00    +0.136 A 
ATOM     22  C   UNL     1       1.192  -2.772  -2.145  0.00  0.00    +0.021 A 
ATOM     23  C   UNL     1      -0.077  -2.652  -2.719  0.00  0.00    +0.011 A 
ATOM     24  C   UNL     1       1.700  -3.367  -0.911  0.00  0.00    +0.061 A 
ATOM     25  C   UNL     1       3.045  -3.159  -0.919  0.00  0.00    +0.176 A 
ATOM     26  O   UNL     1       3.396  -2.494  -2.039  0.00  0.00    -0.452 OA
ENDBRANCH  16  25
ENDBRANCH   1  16
BRANCH   5  27
ATOM     27  C   UNL     1       8.677  -1.464  -0.394  0.00  0.00    +0.111 C 
BRANCH  27  28
ATOM     28  C   UNL     1       8.884  -1.094  -1.865  0.00  0.00    +0.047 C 
BRANCH  28  29
ATOM     29  C   UNL     1      10.037  -0.095  -1.982  0.00  0.00    +0.157 C 
BRANCH  29  30
ATOM     30  O   UNL     1      10.230   0.250  -3.355  0.00  0.00    -0.395 OA
ATOM     31  H   UNL     1      10.947   0.882  -3.505  0.00  0.00    +0.209 HD
ENDBRANCH  29  30
ENDBRANCH  28  29
ENDBRANCH  27  28
ENDBRANCH   5  27
TORSDOF 8
