REMARK  Name = ZINC35429760
REMARK  8 active torsions:
REMARK  status: ('A' for Active; 'I' for Inactive)
REMARK    1  A    between atoms: C_1  and  C_2
REMARK    2  A    between atoms: C_2  and  N_3
REMARK    3  A    between atoms: N_3  and  C_4
REMARK    4  A    between atoms: N_3  and  C_11
REMARK    5  A    between atoms: C_9  and  C_10
REMARK    6  A    between atoms: C_12  and  C_19
REMARK    7  A    between atoms: C_19  and  N_20
REMARK    8  A    between atoms: N_20  and  C_21
REMARK                            x       y       z     vdW  Elec       q    Type
REMARK                         _______ _______ _______ _____ _____    ______ ____
ROOT
ATOM      1  C   UNL     1      -0.092  -1.022  -2.286  0.00  0.00    +0.146 A 
ATOM      2  C   UNL     1       0.442  -1.348  -3.481  0.00  0.00    +0.049 A 
ATOM      3  N   UNL     1      -0.586  -1.315  -4.426  0.00  0.00    -0.297 N 
ATOM      4  C   UNL     1      -0.747  -1.529  -5.777  0.00  0.00    +0.100 A 
ATOM      5  C   UNL     1      -1.942  -1.393  -6.352  0.00  0.00    +0.067 A 
ATOM      6  S   UNL     1      -2.968  -0.933  -4.965  0.00  0.00    -0.058 S 
ATOM      7  C   UNL     1      -1.702  -0.960  -3.716  0.00  0.00    +0.179 A 
ATOM      8  N   UNL     1      -1.405  -0.795  -2.458  0.00  0.00    -0.206 NA
ENDROOT
BRANCH   1   9
ATOM      9  N   UNL     1       0.604  -0.940  -1.069  0.00  0.00    -0.284 N 
BRANCH   9  10
ATOM     10  C   UNL     1       1.977  -1.192  -1.032  0.00  0.00    +0.038 A 
ATOM     11  C   UNL     1       2.442  -2.484  -0.814  0.00  0.00    +0.024 A 
ATOM     12  C   UNL     1       3.800  -2.730  -0.777  0.00  0.00    +0.002 A 
ATOM     13  C   UNL     1       4.697  -1.692  -0.957  0.00  0.00    +0.000 A 
ATOM     14  C   UNL     1       4.238  -0.406  -1.173  0.00  0.00    +0.005 A 
ATOM     15  C   UNL     1       2.881  -0.154  -1.218  0.00  0.00    -0.029 A 
ATOM     16  C   UNL     1       2.382   1.247  -1.461  0.00  0.00    +0.045 C 
ENDBRANCH   9  10
BRANCH   9  18
ATOM     17  C   UNL     1      -0.220   0.933   0.270  0.00  0.00    +0.025 C 
ATOM     18  C   UNL     1      -0.110  -0.589   0.160  0.00  0.00    +0.109 C 
ENDBRANCH   9  18
ENDBRANCH   1   9
BRANCH   2  19
ATOM     19  C   UNL     1       1.886  -1.687  -3.748  0.00  0.00    -0.025 C 
BRANCH  19  20
ATOM     20  N   UNL     1       2.588  -0.491  -4.232  0.00  0.00    +0.381 N 
ATOM     21  C   UNL     1       3.996  -0.821  -4.493  0.00  0.00    -0.100 C 
ATOM     22  H   UNL     1       2.155  -0.169  -5.085  0.00  0.00    -0.086 HD
ATOM     23  H   UNL     1       2.537   0.235  -3.534  0.00  0.00    -0.086 HD
ENDBRANCH  19  20
ENDBRANCH   2  19
TORSDOF 5
