REMARK  Name = ZINC39336874
REMARK  9 active torsions:
REMARK  status: ('A' for Active; 'I' for Inactive)
REMARK    1  A    between atoms: C_1  and  C_2
REMARK    2  A    between atoms: C_5  and  N_8
REMARK    3  A    between atoms: C_10  and  C_31
REMARK    4  A    between atoms: C_13  and  S_15
REMARK    5  A    between atoms: S_15  and  C_16
REMARK    6  A    between atoms: C_16  and  C_17
REMARK    7  A    between atoms: N_22  and  C_23
REMARK    8  A    between atoms: C_26  and  O_29
REMARK    9  A    between atoms: O_29  and  C_30
REMARK                            x       y       z     vdW  Elec       q    Type
REMARK                         _______ _______ _______ _____ _____    ______ ____
ROOT
ATOM      1  N   UNL     1       0.058  -4.167  -0.021  0.00  0.00    -0.304 N 
ATOM      2  C   UNL     1       0.070  -5.038  -1.214  0.00  0.00    +0.131 C 
ATOM      3  C   UNL     1      -0.485  -6.385  -0.688  0.00  0.00    +0.110 C 
ATOM      4  N   UNL     1       0.097  -6.447   0.681  0.00  0.00    -0.281 NA
ATOM      5  C   UNL     1       0.075  -5.047   1.158  0.00  0.00    +0.203 C 
ATOM      6  H   UNL     1      -0.453  -7.044   1.280  0.00  0.00    +0.125 HD
ENDROOT
BRANCH   1  11
ATOM      7  C   UNL     1      -0.018   1.503   0.010  0.00  0.00    +0.044 C 
ATOM      8  C   UNL     1       0.002  -0.004   0.002  0.00  0.00    -0.050 A 
ATOM      9  C   UNL     1       0.006  -0.687  -1.200  0.00  0.00    +0.005 A 
ATOM     10  C   UNL     1       0.024  -2.068  -1.212  0.00  0.00    +0.023 A 
ATOM     11  C   UNL     1       0.040  -2.771  -0.013  0.00  0.00    +0.032 A 
ATOM     12  C   UNL     1       0.036  -2.081   1.193  0.00  0.00    +0.023 A 
ATOM     13  C   UNL     1       0.023  -0.700   1.197  0.00  0.00    +0.005 A 
ENDBRANCH   1  11
BRANCH   3  14
ATOM     14  C   UNL     1       0.002  -7.534  -1.532  0.00  0.00    +0.008 A 
ATOM     15  C   UNL     1      -0.642  -8.198  -2.523  0.00  0.00    +0.013 A 
ATOM     16  C   UNL     1       0.008  -9.233  -3.170  0.00  0.00    +0.008 A 
ATOM     17  C   UNL     1       1.270  -9.553  -2.793  0.00  0.00    +0.045 A 
ATOM     18  S   UNL     1       1.579  -8.370  -1.492  0.00  0.00    -0.100 S 
ENDBRANCH   3  14
BRANCH   5  19
ATOM     19  S   UNL     1      -1.412  -4.765   2.156  0.00  0.00    -0.115 S 
BRANCH  19  20
ATOM     20  C   UNL     1      -2.778  -5.163   1.031  0.00  0.00    +0.149 C 
BRANCH  20  21
ATOM     21  C   UNL     1      -4.091  -4.968   1.746  0.00  0.00    +0.149 A 
ATOM     22  N   UNL     1      -4.734  -5.865   2.438  0.00  0.00    -0.132 NA
ATOM     23  N   UNL     1      -5.819  -5.364   2.912  0.00  0.00    -0.121 NA
ATOM     24  C   UNL     1      -5.929  -4.108   2.545  0.00  0.00    +0.207 A 
ATOM     25  S   UNL     1      -7.244  -3.009   2.952  0.00  0.00    -0.009 SA
ATOM     26  N   UNL     1      -4.825  -3.813   1.792  0.00  0.00    -0.273 N 
BRANCH  26  27
ATOM     27  C   UNL     1      -4.513  -2.584   1.191  0.00  0.00    +0.050 A 
ATOM     28  C   UNL     1      -3.392  -1.875   1.602  0.00  0.00    +0.030 A 
ATOM     29  C   UNL     1      -3.084  -0.666   1.010  0.00  0.00    +0.047 A 
ATOM     30  C   UNL     1      -3.896  -0.160   0.005  0.00  0.00    +0.120 A 
ATOM     31  C   UNL     1      -5.016  -0.868  -0.406  0.00  0.00    +0.047 A 
ATOM     32  C   UNL     1      -5.321  -2.079   0.181  0.00  0.00    +0.030 A 
BRANCH  30  33
ATOM     33  O   UNL     1      -3.593   1.031  -0.578  0.00  0.00    -0.495 OA
ATOM     34  C   UNL     1      -4.471   1.492  -1.606  0.00  0.00    +0.277 C 
ENDBRANCH  30  33
ENDBRANCH  26  27
ENDBRANCH  20  21
ENDBRANCH  19  20
ENDBRANCH   5  19
TORSDOF 7
