REMARK  Name = ZINC66593684
REMARK  8 active torsions:
REMARK  status: ('A' for Active; 'I' for Inactive)
REMARK    1  A    between atoms: C_1  and  C_2
REMARK    2  A    between atoms: C_2  and  C_3
REMARK    3  A    between atoms: C_6  and  C_8
REMARK    4  A    between atoms: C_8  and  N_9
REMARK    5  A    between atoms: N_9  and  C_10
REMARK    6  A    between atoms: C_10  and  C_11
REMARK    7  A    between atoms: C_14  and  C_17
REMARK    8  A    between atoms: C_17  and  C_24
REMARK                            x       y       z     vdW  Elec       q    Type
REMARK                         _______ _______ _______ _____ _____    ______ ____
ROOT
ATOM      1  C   UNL     1      -6.413  -5.371   1.878  0.00  0.00    -0.064 A 
ATOM      2  C   UNL     1      -6.777  -6.199   0.832  0.00  0.00    +0.002 A 
ATOM      3  C   UNL     1      -6.731  -7.572   0.989  0.00  0.00    +0.006 A 
ATOM      4  C   UNL     1      -6.318  -8.117   2.191  0.00  0.00    -0.016 A 
ATOM      5  C   UNL     1      -5.953  -7.289   3.236  0.00  0.00    +0.006 A 
ATOM      6  C   UNL     1      -5.995  -5.916   3.078  0.00  0.00    +0.002 A 
ENDROOT
BRANCH   4   7
ATOM      7  C   UNL     1      -6.268  -9.613   2.361  0.00  0.00    +0.135 C 
ATOM      8  C   UNL     1      -7.663 -10.204   2.300  0.00  0.00    +0.248 C 
ATOM      9  O   UNL     1      -8.435 -10.162   1.366  0.00  0.00    -0.273 OA
ATOM     10  N   UNL     1      -7.865 -10.787   3.498  0.00  0.00    -0.238 N 
ATOM     11  C   UNL     1      -6.803 -10.648   4.300  0.00  0.00    +0.307 C 
ATOM     12  O   UNL     1      -6.747 -11.090   5.430  0.00  0.00    -0.252 OA
ATOM     13  N   UNL     1      -5.803  -9.965   3.714  0.00  0.00    -0.282 N 
ATOM     14  C   UNL     1      -5.365 -10.245   1.300  0.00  0.00    +0.047 C 
ATOM     15  H   UNL     1      -8.680 -11.250   3.748  0.00  0.00    +0.159 HD
ATOM     16  H   UNL     1      -4.943  -9.747   4.106  0.00  0.00    +0.152 HD
ENDBRANCH   4   7
BRANCH   1  17
ATOM     17  C   UNL     1      -6.464  -3.875   1.707  0.00  0.00    -0.046 C 
BRANCH  17  18
ATOM     18  N   UNL     1      -5.173  -3.396   1.194  0.00  0.00    +0.385 N 
ATOM     19  H   UNL     1      -4.984  -3.830   0.303  0.00  0.00    -0.085 HD
ATOM     20  H   UNL     1      -4.442  -3.636   1.847  0.00  0.00    -0.085 HD
BRANCH  18  21
ATOM     21  C   UNL     1      -5.223  -1.938   1.027  0.00  0.00    -0.039 C 
BRANCH  21  25
ATOM     22  C   UNL     1      -1.412  -0.526   0.013  0.00  0.00    -0.010 A 
ATOM     23  C   UNL     1      -2.221  -0.821  -1.034  0.00  0.00    +0.011 A 
ATOM     24  C   UNL     1      -3.495  -1.293  -0.784  0.00  0.00    +0.009 A 
ATOM     25  C   UNL     1      -3.899  -1.446   0.501  0.00  0.00    -0.027 A 
ATOM     26  S   UNL     1      -2.453  -0.923   1.407  0.00  0.00    -0.100 S 
BRANCH  22  28
ATOM     27  C   UNL     1      -0.019   1.526   0.010  0.00  0.00    +0.009 C 
ATOM     28  C   UNL     1       0.002  -0.004   0.002  0.00  0.00    +0.039 C 
ENDBRANCH  22  28
ENDBRANCH  21  25
ENDBRANCH  18  21
ENDBRANCH  17  18
ENDBRANCH   1  17
TORSDOF 6
