REMARK  Name = ZINC62858473
REMARK  5 active torsions:
REMARK  status: ('A' for Active; 'I' for Inactive)
REMARK    1  A    between atoms: C_1  and  C_2
REMARK    2  A    between atoms: C_2  and  C_8
REMARK    3  A    between atoms: N_10  and  C_11
REMARK    4  A    between atoms: C_14  and  C_18
REMARK    5  A    between atoms: C_15  and  O_17
REMARK                            x       y       z     vdW  Elec       q    Type
REMARK                         _______ _______ _______ _____ _____    ______ ____
ROOT
ATOM      1  C   UNL     1      -1.410  -0.529   0.009  0.00  0.00    +0.221 C 
ATOM      2  O   UNL     1      -1.787  -1.245   0.913  0.00  0.00    -0.275 OA
ATOM      3  N   UNL     1      -2.254  -0.207  -0.992  0.00  0.00    -0.285 N 
ATOM      4  H   UNL     1      -1.975   0.418  -1.679  0.00  0.00    +0.155 HD
ENDROOT
BRANCH   1   6
ATOM      5  C   UNL     1      -0.029   1.531   0.024  0.00  0.00    +0.019 C 
ATOM      6  C   UNL     1       0.000   0.002   0.005  0.00  0.00    +0.029 C 
ATOM      7  C   UNL     1       0.725  -0.481  -1.255  0.00  0.00    +0.012 C 
ATOM      8  C   UNL     1       0.818  -2.009  -1.225  0.00  0.00    -0.018 C 
ATOM      9  C   UNL     1       1.529  -2.447   0.057  0.00  0.00    -0.083 C 
ATOM     10  N   UNL     1       0.774  -1.978   1.225  0.00  0.00    +0.380 N 
ATOM     11  C   UNL     1       0.742  -0.511   1.242  0.00  0.00    -0.067 C 
ATOM     12  H   UNL     1      -0.170  -2.333   1.178  0.00  0.00    -0.086 HD
ATOM     13  H   UNL     1       1.216  -2.314   2.067  0.00  0.00    -0.086 HD
ENDBRANCH   1   6
BRANCH   3  14
ATOM     14  C   UNL     1      -3.526  -0.773  -1.039  0.00  0.00    +0.037 A 
ATOM     15  C   UNL     1      -4.218  -1.026   0.144  0.00  0.00    +0.024 A 
ATOM     16  C   UNL     1      -5.465  -1.580   0.110  0.00  0.00    +0.020 A 
ATOM     17  C   UNL     1      -6.058  -1.899  -1.118  0.00  0.00    +0.105 A 
ATOM     18  C   UNL     1      -5.364  -1.645  -2.313  0.00  0.00    +0.133 A 
ATOM     19  C   UNL     1      -4.103  -1.078  -2.266  0.00  0.00    +0.069 A 
BRANCH  17  20
ATOM     20  C   UNL     1      -7.399  -2.495  -1.156  0.00  0.00    +0.390 C 
ATOM     21  O   UNL     1      -8.001  -2.715  -0.113  0.00  0.00    -0.240 OA
ATOM     22  O   UNL     1      -7.915  -2.773  -2.231  0.00  0.00    -0.240 OA
ENDBRANCH  17  20
BRANCH  18  23
ATOM     23  O   UNL     1      -5.929  -1.951  -3.508  0.00  0.00    -0.506 OA
ATOM     24  H   UNL     1      -6.451  -1.233  -3.891  0.00  0.00    +0.292 HD
ENDBRANCH  18  23
ENDBRANCH   3  14
TORSDOF 4
