REMARK  Name = ZINC64375889
REMARK  7 active torsions:
REMARK  status: ('A' for Active; 'I' for Inactive)
REMARK    1  A    between atoms: C_9  and  S_11
REMARK    2  A    between atoms: S_11  and  N_14
REMARK    3  A    between atoms: N_14  and  N_15
REMARK    4  A    between atoms: N_18  and  C_19
REMARK    5  A    between atoms: C_19  and  C_20
REMARK    6  A    between atoms: C_20  and  C_21
REMARK    7  A    between atoms: C_21  and  N_22
REMARK                            x       y       z     vdW  Elec       q    Type
REMARK                         _______ _______ _______ _____ _____    ______ ____
ROOT
ATOM      1  N   UNL     1       5.675  -3.056  -1.991  0.00  0.00    -0.107 NA
ATOM      2  H   UNL     1       5.789  -3.947  -2.357  0.00  0.00    +0.172 HD
ENDROOT
BRANCH   1   3
ATOM      3  N   UNL     1       5.897  -1.933  -2.799  0.00  0.00    -0.216 N 
ATOM      4  C   UNL     1       7.075  -1.785  -3.437  0.00  0.00    +0.315 C 
ATOM      5  O   UNL     1       7.269  -0.810  -4.138  0.00  0.00    -0.251 OA
ATOM      6  N   UNL     1       8.039  -2.716  -3.297  0.00  0.00    -0.298 N 
ATOM      7  H   UNL     1       5.204  -1.263  -2.899  0.00  0.00    +0.172 HD
ATOM      8  H   UNL     1       7.885  -3.494  -2.738  0.00  0.00    +0.150 HD
BRANCH   6   9
ATOM      9  C   UNL     1       9.320  -2.555  -3.990  0.00  0.00    +0.107 C 
BRANCH   9  10
ATOM     10  C   UNL     1      10.229  -3.742  -3.665  0.00  0.00    +0.040 C 
BRANCH  10  11
ATOM     11  C   UNL     1      11.566  -3.574  -4.389  0.00  0.00    +0.124 C 
BRANCH  11  12
ATOM     12  N   UNL     1      12.436  -4.710  -4.078  0.00  0.00    -0.338 N 
ATOM     13  C   UNL     1      13.316  -4.798  -3.033  0.00  0.00    +0.104 A 
ATOM     14  C   UNL     1      13.906  -6.005  -3.121  0.00  0.00    +0.101 A 
ATOM     15  N   UNL     1      13.401  -6.638  -4.190  0.00  0.00    -0.352 N 
ATOM     16  C   UNL     1      12.516  -5.870  -4.765  0.00  0.00    +0.173 A 
ATOM     17  H   UNL     1      13.651  -7.527  -4.486  0.00  0.00    +0.166 HD
ENDBRANCH  11  12
ENDBRANCH  10  11
ENDBRANCH   9  10
ENDBRANCH   6   9
ENDBRANCH   1   3
BRANCH   1  18
ATOM     18  S   UNL     1       5.216  -2.862  -0.411  0.00  0.00    +0.070 S 
ATOM     19  O   UNL     1       6.180  -2.007   0.189  0.00  0.00    -0.152 OA
ATOM     20  O   UNL     1       4.932  -4.160   0.091  0.00  0.00    -0.152 OA
BRANCH  18  29
ATOM     21  C   UNL     1      -0.017   1.380   0.010  0.00  0.00    +0.000 A 
ATOM     22  C   UNL     1       1.168   2.095   0.002  0.00  0.00    +0.001 A 
ATOM     23  C   UNL     1       2.378   1.432  -0.022  0.00  0.00    +0.008 A 
ATOM     24  C   UNL     1       2.403   0.041  -0.044  0.00  0.00    -0.020 A 
ATOM     25  C   UNL     1       1.205  -0.677  -0.016  0.00  0.00    -0.040 A 
ATOM     26  C   UNL     1       0.002  -0.004   0.002  0.00  0.00    +0.004 A 
ATOM     27  C   UNL     1       1.244  -2.182   0.016  0.00  0.00    +0.042 C 
ATOM     28  C   UNL     1       2.426  -2.691  -0.806  0.00  0.00    +0.061 C 
ATOM     29  C   UNL     1       3.692  -1.978  -0.416  0.00  0.00    +0.085 C 
ATOM     30  C   UNL     1       3.681  -0.699  -0.076  0.00  0.00    +0.032 C 
ENDBRANCH  18  29
ENDBRANCH   1  18
TORSDOF 7
