REMARK  Name = ZINC37515043
REMARK  2 active torsions:
REMARK  status: ('A' for Active; 'I' for Inactive)
REMARK    1  A    between atoms: C_3  and  N_8
REMARK    2  A    between atoms: C_6  and  N_7
REMARK                            x       y       z     vdW  Elec       q    Type
REMARK                         _______ _______ _______ _____ _____    ______ ____
ROOT
ATOM      1  N   UNL     1       3.587   2.132  -0.022  0.00  0.00    -0.193 N 
ATOM      2  C   UNL     1       4.817   1.561  -0.043  0.00  0.00    +0.248 C 
ATOM      3  O   UNL     1       5.092   0.390  -0.191  0.00  0.00    -0.273 OA
ATOM      4  C   UNL     1       5.761   2.715   0.159  0.00  0.00    +0.165 C 
ATOM      5  C   UNL     1       6.969   2.710  -0.816  0.00  0.00    +0.037 C 
ATOM      6  C   UNL     1       7.249   4.207  -0.779  0.00  0.00    +0.012 C 
ATOM      7  C   UNL     1       8.150   4.874  -1.772  0.00  0.00    +0.005 C 
ATOM      8  C   UNL     1       8.261   6.350  -1.338  0.00  0.00    +0.000 C 
ATOM      9  C   UNL     1       6.893   7.006  -1.196  0.00  0.00    +0.002 C 
ATOM     10  C   UNL     1       5.943   6.205  -0.289  0.00  0.00    +0.023 C 
ATOM     11  C   UNL     1       5.827   4.819  -0.951  0.00  0.00    +0.082 C 
ATOM     12  N   UNL     1       4.925   3.873  -0.273  0.00  0.00    -0.270 N 
ATOM     13  C   UNL     1       3.670   3.475  -0.017  0.00  0.00    +0.316 C 
ATOM     14  O   UNL     1       2.737   4.225   0.194  0.00  0.00    -0.252 OA
ENDROOT
BRANCH   1  17
ATOM     15  C   UNL     1      -0.017   1.385   0.010  0.00  0.00    +0.024 A 
ATOM     16  C   UNL     1       1.169   2.091   0.002  0.00  0.00    +0.026 A 
ATOM     17  C   UNL     1       2.381   1.413  -0.013  0.00  0.00    +0.046 A 
ATOM     18  C   UNL     1       2.400   0.025  -0.021  0.00  0.00    +0.026 A 
ATOM     19  C   UNL     1       1.214  -0.682  -0.014  0.00  0.00    +0.024 A 
ATOM     20  C   UNL     1       0.002  -0.004   0.002  0.00  0.00    +0.025 A 
BRANCH  20  21
ATOM     21  N   UNL     1      -1.199  -0.720   0.010  0.00  0.00    -0.358 N 
ATOM     22  H   UNL     1      -2.046  -0.246   0.020  0.00  0.00    +0.142 HD
ATOM     23  H   UNL     1      -1.186  -1.690   0.004  0.00  0.00    +0.142 HD
ENDBRANCH  20  21
ENDBRANCH   1  17
TORSDOF 2
