REMARK  Name = ZINC43477954
REMARK  6 active torsions:
REMARK  status: ('A' for Active; 'I' for Inactive)
REMARK    1  A    between atoms: C_1  and  N_2
REMARK    2  A    between atoms: N_2  and  C_3
REMARK    3  A    between atoms: C_3  and  C_4
REMARK    4  A    between atoms: C_7  and  O_11
REMARK    5  A    between atoms: O_11  and  C_12
REMARK    6  A    between atoms: C_19  and  O_21
REMARK                            x       y       z     vdW  Elec       q    Type
REMARK                         _______ _______ _______ _____ _____    ______ ____
ROOT
ATOM      1  C   UNL     1       0.373  -2.059  -0.560  0.00  0.00    -0.063 A 
ATOM      2  C   UNL     1       1.418  -2.757   0.016  0.00  0.00    +0.005 A 
ATOM      3  C   UNL     1       1.553  -4.114  -0.209  0.00  0.00    +0.047 A 
ATOM      4  C   UNL     1       0.638  -4.776  -1.014  0.00  0.00    +0.139 A 
ATOM      5  C   UNL     1      -0.411  -4.074  -1.592  0.00  0.00    +0.083 A 
ATOM      6  C   UNL     1      -0.544  -2.718  -1.359  0.00  0.00    +0.025 A 
ATOM      7 CL   UNL     1      -1.558  -4.899  -2.600  0.00  0.00    -0.080 Cl
ENDROOT
BRANCH   1   8
ATOM      8  C   UNL     1       0.229  -0.580  -0.313  0.00  0.00    -0.047 C 
BRANCH   8  10
ATOM      9  C   UNL     1      -0.739   1.081   1.122  0.00  0.00    -0.100 C 
ATOM     10  N   UNL     1      -0.599  -0.361   0.880  0.00  0.00    +0.380 N 
ATOM     11  H   UNL     1      -0.159  -0.794   1.679  0.00  0.00    -0.086 HD
ATOM     12  H   UNL     1      -1.511  -0.768   0.736  0.00  0.00    -0.086 HD
ENDBRANCH   8  10
ENDBRANCH   1   8
BRANCH   4  13
ATOM     13  O   UNL     1       0.769  -6.111  -1.238  0.00  0.00    -0.483 OA
BRANCH  13  14
ATOM     14  C   UNL     1       1.935  -6.746  -0.709  0.00  0.00    +0.224 C 
ATOM     15  C   UNL     1       1.690  -7.113   0.781  0.00  0.00    +0.213 C 
ATOM     16  S   UNL     1       2.986  -8.410   0.996  0.00  0.00    -0.025 S 
ATOM     17  O   UNL     1       4.242  -7.784   1.219  0.00  0.00    -0.174 OA
ATOM     18  O   UNL     1       2.518  -9.392   1.910  0.00  0.00    -0.174 OA
ATOM     19  C   UNL     1       2.950  -9.103  -0.710  0.00  0.00    +0.201 C 
ATOM     20  C   UNL     1       2.236  -8.005  -1.521  0.00  0.00    +0.177 C 
BRANCH  20  21
ATOM     21  O   UNL     1       1.006  -8.531  -2.023  0.00  0.00    -0.386 OA
ATOM     22  H   UNL     1       1.109  -9.335  -2.551  0.00  0.00    +0.210 HD
ENDBRANCH  20  21
ENDBRANCH  13  14
ENDBRANCH   4  13
TORSDOF 5
