REMARK  Name = ZINC44179642
REMARK  6 active torsions:
REMARK  status: ('A' for Active; 'I' for Inactive)
REMARK    1  A    between atoms: C_1  and  C_2
REMARK    2  A    between atoms: C_2  and  C_3
REMARK    3  A    between atoms: C_3  and  O_4
REMARK    4  A    between atoms: O_4  and  C_5
REMARK    5  A    between atoms: N_10  and  C_12
REMARK    6  A    between atoms: C_18  and  O_20
REMARK                            x       y       z     vdW  Elec       q    Type
REMARK                         _______ _______ _______ _____ _____    ______ ____
ROOT
ATOM      1  C   UNL     1       0.770  -5.700  -4.252  0.00  0.00    -0.034 C 
ATOM      2  C   UNL     1       1.459  -6.307  -5.477  0.00  0.00    +0.052 C 
ATOM      3  C   UNL     1       0.771  -7.622  -5.848  0.00  0.00    +0.169 C 
ATOM      4  C   UNL     1      -0.703  -7.365  -6.164  0.00  0.00    +0.067 C 
ATOM      5  C   UNL     1      -1.388  -6.756  -4.939  0.00  0.00    +0.035 C 
ATOM      6  C   UNL     1      -0.703  -5.438  -4.573  0.00  0.00    +0.101 C 
ATOM      7  O   UNL     1       1.416  -8.189  -7.000  0.00  0.00    -0.346 OA
ATOM      8  C   UNL     1       2.373  -9.132  -6.461  0.00  0.00    +0.191 C 
ATOM      9  C   UNL     1       1.609  -9.691  -5.235  0.00  0.00    +0.191 C 
ATOM     10  O   UNL     1       0.876  -8.545  -4.757  0.00  0.00    -0.346 OA
ENDROOT
BRANCH   1  15
ATOM     11  C   UNL     1       1.387  -2.493  -2.405  0.00  0.00    +0.102 C 
ATOM     12  C   UNL     1       2.876  -2.684  -2.102  0.00  0.00    +0.028 C 
ATOM     13  C   UNL     1       3.547  -3.363  -3.299  0.00  0.00    -0.016 C 
ATOM     14  C   UNL     1       2.840  -4.688  -3.590  0.00  0.00    -0.078 C 
ATOM     15  N   UNL     1       1.427  -4.435  -3.898  0.00  0.00    +0.385 N 
ATOM     16  C   UNL     1       0.759  -3.849  -2.729  0.00  0.00    -0.046 C 
ATOM     17  H   UNL     1       1.362  -3.795  -4.676  0.00  0.00    -0.081 HD
BRANCH  11  18
ATOM     18  O   UNL     1       0.738  -1.926  -1.265  0.00  0.00    -0.378 OA
BRANCH  18  19
ATOM     19  C   UNL     1       0.718  -0.497  -1.257  0.00  0.00    +0.160 C 
BRANCH  19  21
ATOM     20  C   UNL     1      -0.019   1.526   0.010  0.00  0.00    +0.006 C 
ATOM     21  C   UNL     1       0.002  -0.004   0.002  0.00  0.00    +0.025 C 
ENDBRANCH  19  21
ENDBRANCH  18  19
ENDBRANCH  11  18
ENDBRANCH   1  15
BRANCH   6  22
ATOM     22  O   UNL     1      -0.796  -4.532  -5.674  0.00  0.00    -0.393 OA
ATOM     23  H   UNL     1      -1.703  -4.320  -5.933  0.00  0.00    +0.210 HD
ENDBRANCH   6  22
TORSDOF 5
