REMARK  Name = ZINC40783334
REMARK  6 active torsions:
REMARK  status: ('A' for Active; 'I' for Inactive)
REMARK    1  A    between atoms: C_1  and  N_2
REMARK    2  A    between atoms: C_5  and  N_8
REMARK    3  A    between atoms: N_8  and  C_9
REMARK    4  A    between atoms: C_11  and  N_25
REMARK    5  A    between atoms: C_12  and  N_16
REMARK    6  A    between atoms: N_16  and  C_17
REMARK                            x       y       z     vdW  Elec       q    Type
REMARK                         _______ _______ _______ _____ _____    ______ ____
ROOT
ATOM      1  N   UNL     1       1.868  -3.352   0.140  0.00  0.00    -0.314 N 
ATOM      2  C   UNL     1       0.445  -3.696   0.097  0.00  0.00    +0.131 C 
ATOM      3  C   UNL     1       2.827  -4.356   0.086  0.00  0.00    +0.147 A 
ATOM      4  C   UNL     1       3.217  -5.027   1.246  0.00  0.00    +0.106 A 
ATOM      5  C   UNL     1       4.184  -6.028   1.136  0.00  0.00    +0.149 A 
ATOM      6  N   UNL     1       4.694  -6.302  -0.063  0.00  0.00    -0.219 NA
ATOM      7  C   UNL     1       4.299  -5.644  -1.133  0.00  0.00    +0.225 A 
ATOM      8  N   UNL     1       3.385  -4.696  -1.074  0.00  0.00    -0.219 NA
ENDROOT
BRANCH   1  13
ATOM      9  C   UNL     1       1.804   2.276   0.510  0.00  0.00    -0.096 C 
ATOM     10  N   UNL     1       1.515   0.839   0.410  0.00  0.00    +0.378 N 
ATOM     11  C   UNL     1       2.115   0.305  -0.819  0.00  0.00    -0.077 C 
ATOM     12  C   UNL     1       1.749  -1.173  -0.969  0.00  0.00    +0.004 C 
ATOM     13  C   UNL     1       2.280  -1.950   0.239  0.00  0.00    +0.071 C 
ATOM     14  C   UNL     1       1.706  -1.337   1.520  0.00  0.00    +0.004 C 
ATOM     15  C   UNL     1       2.074   0.147   1.578  0.00  0.00    -0.077 C 
ATOM     16  H   UNL     1       0.516   0.699   0.383  0.00  0.00    -0.082 HD
ENDBRANCH   1  13
BRANCH   4  17
ATOM     17  N   UNL     1       2.652  -4.705   2.491  0.00  0.00    -0.353 N 
ATOM     18  H   UNL     1       1.921  -4.068   2.541  0.00  0.00    +0.143 HD
ATOM     19  H   UNL     1       2.991  -5.118   3.300  0.00  0.00    +0.143 HD
ENDBRANCH   4  17
BRANCH   5  20
ATOM     20  N   UNL     1       4.608  -6.727   2.260  0.00  0.00    -0.297 N 
ATOM     21  H   UNL     1       4.166  -6.589   3.113  0.00  0.00    +0.154 HD
BRANCH  20  22
ATOM     22  C   UNL     1       5.672  -7.630   2.162  0.00  0.00    +0.051 A 
ATOM     23  C   UNL     1       6.617  -7.485   1.156  0.00  0.00    +0.026 A 
ATOM     24  C   UNL     1       7.667  -8.378   1.061  0.00  0.00    +0.022 A 
ATOM     25  C   UNL     1       7.777  -9.417   1.968  0.00  0.00    +0.042 A 
ATOM     26  C   UNL     1       6.837  -9.565   2.973  0.00  0.00    +0.041 A 
ATOM     27  C   UNL     1       5.787  -8.671   3.076  0.00  0.00    +0.063 A 
ATOM     28 CL   UNL     1       4.612  -8.853   4.340  0.00  0.00    -0.082 Cl
ATOM     29 CL   UNL     1       9.097 -10.538   1.846  0.00  0.00    -0.083 Cl
ENDBRANCH  20  22
ENDBRANCH   5  20
TORSDOF 4
