REMARK  Name = ZINC53207146
REMARK  12 active torsions:
REMARK  status: ('A' for Active; 'I' for Inactive)
REMARK    1  A    between atoms: C_1  and  C_2
REMARK    2  A    between atoms: C_2  and  C_3
REMARK    3  A    between atoms: C_3  and  C_4
REMARK    4  A    between atoms: C_4  and  N_5
REMARK    5  A    between atoms: C_9  and  C_11
REMARK    6  A    between atoms: C_11  and  C_13
REMARK    7  A    between atoms: C_11  and  N_14
REMARK    8  A    between atoms: N_14  and  C_15
REMARK    9  A    between atoms: N_14  and  C_16
REMARK   10  A    between atoms: C_16  and  C_17
REMARK   11  A    between atoms: N_19  and  C_20
REMARK   12  A    between atoms: C_24  and  C_26
REMARK                            x       y       z     vdW  Elec       q    Type
REMARK                         _______ _______ _______ _____ _____    ______ ____
ROOT
ATOM      1  N   UNL     1       3.457  -7.532  -5.367  0.00  0.00    +0.391 N 
ATOM      2  C   UNL     1       4.454  -7.864  -6.393  0.00  0.00    -0.094 C 
ATOM      3  H   UNL     1       2.600  -8.030  -5.557  0.00  0.00    -0.080 HD
ENDROOT
BRANCH   1   4
ATOM      4  C   UNL     1       3.198  -6.087  -5.385  0.00  0.00    +0.017 C 
ATOM      5  C   UNL     1       2.633  -5.687  -6.750  0.00  0.00    -0.004 C 
BRANCH   4  10
ATOM      6  N   UNL     1       1.298  -2.963  -2.263  0.00  0.00    -0.299 N 
ATOM      7  C   UNL     1       1.304  -4.198  -2.805  0.00  0.00    +0.306 C 
ATOM      8  O   UNL     1       0.506  -5.032  -2.425  0.00  0.00    -0.252 OA
ATOM      9  N   UNL     1       2.195  -4.507  -3.767  0.00  0.00    -0.242 N 
ATOM     10  C   UNL     1       2.201  -5.741  -4.309  0.00  0.00    +0.207 C 
ATOM     11  O   UNL     1       1.405  -6.573  -3.930  0.00  0.00    -0.277 OA
ATOM     12  H   UNL     1       1.935  -2.298  -2.566  0.00  0.00    +0.150 HD
ATOM     13  H   UNL     1       2.832  -3.841  -4.071  0.00  0.00    +0.159 HD
BRANCH   6  14
ATOM     14  C   UNL     1       0.329  -2.628  -1.217  0.00  0.00    +0.106 C 
BRANCH  14  15
ATOM     15  C   UNL     1       0.535  -1.176  -0.778  0.00  0.00    +0.018 C 
BRANCH  15  17
ATOM     16  C   UNL     1      -0.270   0.626   0.754  0.00  0.00    +0.004 C 
ATOM     17  C   UNL     1      -0.476  -0.826   0.315  0.00  0.00    -0.002 C 
ENDBRANCH  15  17
ENDBRANCH  14  15
ENDBRANCH   6  14
ENDBRANCH   4  10
ENDBRANCH   1   4
BRANCH   1  18
ATOM     18  C   UNL     1       3.966  -7.922  -4.045  0.00  0.00    +0.020 C 
BRANCH  18  19
ATOM     19  C   UNL     1       4.100  -9.422  -3.980  0.00  0.00    +0.201 C 
ATOM     20  O   UNL     1       3.800 -10.099  -4.941  0.00  0.00    -0.278 OA
ATOM     21  N   UNL     1       4.552 -10.010  -2.855  0.00  0.00    -0.287 N 
ATOM     22  H   UNL     1       4.859  -9.466  -2.113  0.00  0.00    +0.155 HD
BRANCH  21  23
ATOM     23  C   UNL     1       4.579 -11.406  -2.757  0.00  0.00    +0.034 A 
ATOM     24  C   UNL     1       5.569 -12.031  -2.008  0.00  0.00    +0.023 A 
ATOM     25  C   UNL     1       5.599 -13.409  -1.909  0.00  0.00    +0.003 A 
ATOM     26  C   UNL     1       4.647 -14.173  -2.552  0.00  0.00    +0.017 A 
ATOM     27  C   UNL     1       3.649 -13.555  -3.307  0.00  0.00    +0.026 A 
ATOM     28  C   UNL     1       3.615 -12.164  -3.403  0.00  0.00    +0.040 A 
BRANCH  27  29
ATOM     29  C   UNL     1       2.660 -14.346  -3.975  0.00  0.00    -0.070 C 
ATOM     30  C   UNL     1       1.849 -14.994  -4.524  0.00  0.00    +0.009 C 
ENDBRANCH  27  29
ENDBRANCH  21  23
ENDBRANCH  18  19
ENDBRANCH   1  18
TORSDOF 9
