REMARK  Name = ZINC39607742
REMARK  9 active torsions:
REMARK  status: ('A' for Active; 'I' for Inactive)
REMARK    1  A    between atoms: C_1  and  C_2
REMARK    2  A    between atoms: C_2  and  C_3
REMARK    3  A    between atoms: C_3  and  O_4
REMARK    4  A    between atoms: O_4  and  C_5
REMARK    5  A    between atoms: C_5  and  C_6
REMARK    6  A    between atoms: C_6  and  N_7
REMARK    7  A    between atoms: C_8  and  C_10
REMARK    8  A    between atoms: C_21  and  C_23
REMARK    9  A    between atoms: C_26  and  C_28
REMARK                            x       y       z     vdW  Elec       q    Type
REMARK                         _______ _______ _______ _____ _____    ______ ____
ROOT
ATOM      1  C   UNL     1      -1.748  -6.268  -2.401  0.00  0.00    +0.100 C 
ATOM      2  C   UNL     1      -2.401  -5.788  -3.717  0.00  0.00    +0.121 C 
ATOM      3  N   UNL     1      -2.235  -6.925  -4.653  0.00  0.00    -0.294 N 
ATOM      4  C   UNL     1      -2.474  -8.127  -3.819  0.00  0.00    +0.115 C 
ATOM      5  C   UNL     1      -1.802  -7.803  -2.470  0.00  0.00    -0.004 C 
ATOM      6  C   UNL     1      -0.391  -8.383  -2.433  0.00  0.00    -0.010 C 
ATOM      7  C   UNL     1      -0.472  -9.912  -2.445  0.00  0.00    -0.082 C 
ATOM      8  N   UNL     1      -1.244 -10.372  -1.284  0.00  0.00    +0.379 N 
ATOM      9  C   UNL     1      -2.626  -9.886  -1.376  0.00  0.00    -0.082 C 
ATOM     10  C   UNL     1      -2.635  -8.356  -1.318  0.00  0.00    -0.010 C 
ATOM     11  C   UNL     1      -1.934  -6.877  -5.966  0.00  0.00    +0.282 C 
ATOM     12  O   UNL     1      -1.832  -7.908  -6.605  0.00  0.00    -0.267 OA
ATOM     13  H   UNL     1      -1.244 -11.381  -1.261  0.00  0.00    -0.086 HD
ATOM     14  H   UNL     1      -0.820 -10.020  -0.439  0.00  0.00    -0.086 HD
ENDROOT
BRANCH  11  15
ATOM     15  C   UNL     1      -1.730  -5.584  -6.624  0.00  0.00    +0.190 A 
ATOM     16  C   UNL     1      -1.425  -5.392  -7.954  0.00  0.00    +0.055 A 
ATOM     17  C   UNL     1      -1.321  -4.011  -8.149  0.00  0.00    +0.051 A 
ATOM     18  C   UNL     1      -1.564  -3.416  -6.944  0.00  0.00    +0.139 A 
ATOM     19  O   UNL     1      -1.814  -4.373  -6.034  0.00  0.00    -0.450 OA
BRANCH  18  20
ATOM     20  C   UNL     1      -1.558  -1.963  -6.685  0.00  0.00    +0.052 A 
ATOM     21  C   UNL     1      -0.484  -1.179  -7.112  0.00  0.00    +0.014 A 
ATOM     22  C   UNL     1      -0.484   0.179  -6.867  0.00  0.00    +0.001 A 
ATOM     23  C   UNL     1      -1.546   0.766  -6.200  0.00  0.00    +0.003 A 
ATOM     24  C   UNL     1      -2.614  -0.003  -5.774  0.00  0.00    +0.039 A 
ATOM     25  C   UNL     1      -2.630  -1.363  -6.017  0.00  0.00    +0.134 A 
ATOM     26  F   UNL     1      -3.676  -2.113  -5.606  0.00  0.00    -0.205 F 
ENDBRANCH  18  20
ENDBRANCH  11  15
BRANCH   1  28
ATOM     27  N   UNL     1       0.254  -5.582  -1.120  0.00  0.00    -0.313 N 
ATOM     28  C   UNL     1      -0.319  -5.795  -2.321  0.00  0.00    +0.218 C 
ATOM     29  O   UNL     1       0.315  -5.607  -3.337  0.00  0.00    -0.275 OA
ATOM     30  H   UNL     1      -0.254  -5.732  -0.307  0.00  0.00    +0.149 HD
BRANCH  27  31
ATOM     31  C   UNL     1       1.643  -5.122  -1.042  0.00  0.00    +0.132 C 
BRANCH  31  32
ATOM     32  C   UNL     1       2.045  -4.960   0.425  0.00  0.00    +0.178 C 
BRANCH  32  33
ATOM     33  O   UNL     1       2.032  -6.237   1.067  0.00  0.00    -0.378 OA
BRANCH  33  34
ATOM     34  C   UNL     1       2.395  -6.196   2.448  0.00  0.00    +0.159 C 
BRANCH  34  36
ATOM     35  C   UNL     1       2.736  -7.568   4.509  0.00  0.00    +0.006 C 
ATOM     36  C   UNL     1       2.347  -7.611   3.030  0.00  0.00    +0.025 C 
ENDBRANCH  34  36
ENDBRANCH  33  34
ENDBRANCH  32  33
ENDBRANCH  31  32
ENDBRANCH  27  31
ENDBRANCH   1  28
TORSDOF 8
