REMARK  Name = ZINC05731194
REMARK  5 active torsions:
REMARK  status: ('A' for Active; 'I' for Inactive)
REMARK    1  A    between atoms: C_3  and  C_6
REMARK    2  A    between atoms: N_8  and  C_9
REMARK    3  A    between atoms: C_9  and  C_18
REMARK    4  A    between atoms: C_10  and  C_11
REMARK    5  A    between atoms: C_14  and  O_17
REMARK                            x       y       z     vdW  Elec       q    Type
REMARK                         _______ _______ _______ _____ _____    ______ ____
ROOT
ATOM      1  C   UNL     1      -3.660   1.630   0.117  0.00  0.00    +0.097 C 
ATOM      2  C   UNL     1      -2.575   0.835  -0.038  0.00  0.00    +0.036 C 
ENDROOT
BRANCH   2   3
ATOM      3  C   UNL     1      -1.225   1.414   0.025  0.00  0.00    -0.023 A 
ATOM      4  C   UNL     1      -0.149   0.751  -0.576  0.00  0.00    +0.011 A 
ATOM      5  C   UNL     1       1.113   1.300  -0.519  0.00  0.00    +0.046 A 
ATOM      6  C   UNL     1       1.319   2.507   0.138  0.00  0.00    +0.117 A 
ATOM      7  C   UNL     1       0.254   3.167   0.741  0.00  0.00    +0.046 A 
ATOM      8  C   UNL     1      -1.011   2.626   0.691  0.00  0.00    +0.011 A 
BRANCH   6   9
ATOM      9  O   UNL     1       2.565   3.045   0.190  0.00  0.00    -0.507 OA
ATOM     10  H   UNL     1       2.730   4.000   0.710  0.00  0.00    +0.292 HD
ENDBRANCH   6   9
ENDBRANCH   2   3
BRANCH   1  11
ATOM     11  C   UNL     1      -4.998   1.034   0.223  0.00  0.00    +0.256 C 
ATOM     12  O   UNL     1      -5.139  -0.169   0.113  0.00  0.00    -0.269 OA
ATOM     13  N   UNL     1      -6.071   1.820   0.444  0.00  0.00    -0.324 N 
ATOM     14  H   UNL     1      -7.073   1.374   0.523  0.00  0.00    +0.145 HD
ATOM     15  H   UNL     1      -5.944   2.909   0.543  0.00  0.00    +0.145 HD
ENDBRANCH   1  11
BRANCH   1  18
ATOM     16  C   UNL     1      -3.957   3.703   1.246  0.00  0.00    +0.284 C 
ATOM     17  O   UNL     1      -4.418   3.104   2.200  0.00  0.00    -0.266 OA
ATOM     18  N   UNL     1      -3.507   3.020   0.175  0.00  0.00    -0.275 N 
ATOM     19  H   UNL     1      -3.018   3.554  -0.653  0.00  0.00    +0.155 HD
BRANCH  16  22
ATOM     20  C   UNL     1      -4.063   7.299   1.867  0.00  0.00    +0.042 A 
ATOM     21  C   UNL     1      -4.313   5.979   2.276  0.00  0.00    +0.054 A 
ATOM     22  C   UNL     1      -3.893   5.168   1.261  0.00  0.00    +0.189 A 
ATOM     23  O   UNL     1      -3.404   5.950   0.276  0.00  0.00    -0.458 OA
ATOM     24  C   UNL     1      -3.510   7.236   0.636  0.00  0.00    +0.196 A 
ENDBRANCH  16  22
ENDBRANCH   1  18
TORSDOF 5
