REMARK  Name = ZINC39861958
REMARK  6 active torsions:
REMARK  status: ('A' for Active; 'I' for Inactive)
REMARK    1  A    between atoms: C_3  and  C_8
REMARK    2  A    between atoms: C_11  and  C_13
REMARK    3  A    between atoms: N_17  and  C_21
REMARK    4  A    between atoms: C_21  and  C_23
REMARK    5  A    between atoms: C_21  and  C_27
REMARK    6  A    between atoms: C_23  and  C_24
REMARK                            x       y       z     vdW  Elec       q    Type
REMARK                         _______ _______ _______ _____ _____    ______ ____
ROOT
ATOM      1  C   UNL     1       5.599   5.148  -0.017  0.00  0.00    +0.066 C 
ATOM      2  C   UNL     1       4.754   6.217  -0.100  0.00  0.00    +0.080 C 
ATOM      3  C   UNL     1       3.283   6.253  -0.098  0.00  0.00    +0.259 C 
ATOM      4  O   UNL     1       2.619   5.235  -0.014  0.00  0.00    -0.269 OA
ATOM      5  N   UNL     1       2.716   7.444  -0.191  0.00  0.00    -0.241 N 
ATOM      6  C   UNL     1       3.454   8.569  -0.284  0.00  0.00    +0.121 C 
ATOM      7  S   UNL     1       2.914  10.188  -0.412  0.00  0.00    -0.027 S 
ATOM      8  S   UNL     1       5.132   7.960  -0.233  0.00  0.00    -0.061 S 
ENDROOT
BRANCH   1  12
ATOM      9  C   UNL     1       3.671   2.225   0.651  0.00  0.00    +0.136 A 
ATOM     10  C   UNL     1       4.903   1.651   0.509  0.00  0.00    +0.050 A 
ATOM     11  C   UNL     1       5.808   2.679   0.234  0.00  0.00    +0.050 A 
ATOM     12  C   UNL     1       5.081   3.857   0.221  0.00  0.00    +0.130 A 
ATOM     13  O   UNL     1       3.790   3.553   0.470  0.00  0.00    -0.455 OA
BRANCH   9  16
ATOM     14  C   UNL     1       0.047   1.534   1.343  0.00  0.00    +0.002 A 
ATOM     15  C   UNL     1       1.216   2.211   1.065  0.00  0.00    +0.011 A 
ATOM     16  C   UNL     1       2.417   1.507   0.949  0.00  0.00    +0.019 A 
ATOM     17  C   UNL     1       2.425   0.120   1.115  0.00  0.00    +0.031 A 
ATOM     18  C   UNL     1       1.248  -0.545   1.393  0.00  0.00    +0.042 A 
ATOM     19  C   UNL     1       0.061   0.160   1.507  0.00  0.00    +0.020 A 
ATOM     20 CL   UNL     1       1.255  -2.269   1.599  0.00  0.00    -0.084 Cl
ENDBRANCH   9  16
ENDBRANCH   1  12
BRANCH   5  21
ATOM     21  C   UNL     1       1.254   7.544  -0.194  0.00  0.00    +0.204 C 
BRANCH  21  22
ATOM     22  C   UNL     1       0.805   8.382   0.975  0.00  0.00    +0.377 C 
ATOM     23  O   UNL     1       1.526   9.269   1.401  0.00  0.00    -0.244 OA
ATOM     24  O   UNL     1      -0.278   8.174   1.494  0.00  0.00    -0.244 OA
ENDBRANCH  21  22
BRANCH  21  25
ATOM     25  C   UNL     1       0.790   8.196  -1.498  0.00  0.00    +0.130 C 
BRANCH  25  26
ATOM     26  C   UNL     1       1.131   7.298  -2.659  0.00  0.00    +0.213 C 
ATOM     27  O   UNL     1       1.690   6.239  -2.462  0.00  0.00    -0.276 OA
ATOM     28  N   UNL     1       0.815   7.670  -3.915  0.00  0.00    -0.329 N 
ATOM     29  H   UNL     1       0.368   8.516  -4.072  0.00  0.00    +0.145 HD
ATOM     30  H   UNL     1       1.034   7.091  -4.662  0.00  0.00    +0.145 HD
ENDBRANCH  25  26
ENDBRANCH  21  25
ENDBRANCH   5  21
TORSDOF 6
