REMARK  Name = ZINC57804296
REMARK  9 active torsions:
REMARK  status: ('A' for Active; 'I' for Inactive)
REMARK    1  A    between atoms: C_1  and  C_2
REMARK    2  A    between atoms: C_2  and  C_3
REMARK    3  A    between atoms: C_2  and  C_4
REMARK    4  A    between atoms: C_2  and  C_5
REMARK    5  A    between atoms: N_13  and  C_14
REMARK    6  A    between atoms: C_14  and  C_15
REMARK    7  A    between atoms: C_15  and  C_16
REMARK    8  A    between atoms: C_15  and  C_17
REMARK    9  A    between atoms: C_15  and  N_18
REMARK                            x       y       z     vdW  Elec       q    Type
REMARK                         _______ _______ _______ _____ _____    ______ ____
ROOT
ATOM      1  C   UNL     1       0.459  -0.694  -1.957  0.00  0.00    +0.116 A 
ATOM      2  N   UNL     1      -0.209  -0.959  -3.042  0.00  0.00    -0.232 NA
ATOM      3  C   UNL     1       0.584  -0.761  -4.127  0.00  0.00    +0.093 A 
ATOM      4  C   UNL     1       0.381  -0.894  -5.504  0.00  0.00    +0.079 A 
ATOM      5  C   UNL     1       1.407  -0.611  -6.382  0.00  0.00    +0.164 A 
ATOM      6  C   UNL     1       2.648  -0.191  -5.902  0.00  0.00    +0.164 A 
ATOM      7  C   UNL     1       2.860  -0.059  -4.541  0.00  0.00    +0.077 A 
ATOM      8  C   UNL     1       1.835  -0.341  -3.649  0.00  0.00    +0.073 A 
ATOM      9  N   UNL     1       1.724  -0.304  -2.272  0.00  0.00    -0.328 N 
ATOM     10  O   UNL     1       3.665   0.098  -6.762  0.00  0.00    -0.485 OA
ATOM     11  C   UNL     1       3.539  -0.401  -8.098  0.00  0.00    +0.270 C 
ATOM     12  C   UNL     1       2.119  -0.097  -8.593  0.00  0.00    +0.270 C 
ATOM     13  O   UNL     1       1.191  -0.750  -7.720  0.00  0.00    -0.485 OA
ENDROOT
BRANCH   1  15
ATOM     14  C   UNL     1       0.054   0.551   0.149  0.00  0.00    +0.019 C 
ATOM     15  C   UNL     1      -0.090  -0.799  -0.558  0.00  0.00    +0.020 C 
ATOM     16  C   UNL     1       0.687  -1.865   0.217  0.00  0.00    +0.019 C 
ATOM     17  C   UNL     1      -1.568  -1.188  -0.617  0.00  0.00    +0.019 C 
ENDBRANCH   1  15
BRANCH   9  18
ATOM     18  C   UNL     1       2.775   0.081  -1.326  0.00  0.00    +0.110 C 
BRANCH  18  19
ATOM     19  C   UNL     1       3.048   1.582  -1.450  0.00  0.00    -0.058 C 
ATOM     20  C   UNL     1       3.442   1.910  -2.892  0.00  0.00    -0.009 C 
ATOM     21  C   UNL     1       1.786   2.362  -1.076  0.00  0.00    -0.009 C 
BRANCH  19  22
ATOM     22  N   UNL     1       4.142   1.957  -0.545  0.00  0.00    +0.383 N 
ATOM     23  H   UNL     1       4.974   1.442  -0.792  0.00  0.00    -0.089 HD
ATOM     24  H   UNL     1       4.322   2.946  -0.627  0.00  0.00    -0.089 HD
ATOM     25  H   UNL     1       3.882   1.740   0.405  0.00  0.00    -0.089 HD
ENDBRANCH  19  22
ENDBRANCH  18  19
ENDBRANCH   9  18
TORSDOF 4
