REMARK  Name = ZINC31165173
REMARK  13 active torsions:
REMARK  status: ('A' for Active; 'I' for Inactive)
REMARK    1  A    between atoms: C_1  and  C_2
REMARK    2  A    between atoms: C_5  and  O_29
REMARK    3  A    between atoms: C_9  and  C_28
REMARK    4  A    between atoms: C_12  and  C_23
REMARK    5  A    between atoms: C_12  and  O_27
REMARK    6  A    between atoms: C_13  and  C_17
REMARK    7  A    between atoms: C_13  and  C_18
REMARK    8  A    between atoms: C_18  and  C_19
REMARK    9  A    between atoms: C_19  and  C_20
REMARK   10  A    between atoms: C_23  and  C_24
REMARK   11  A    between atoms: C_23  and  C_25
REMARK   12  A    between atoms: C_23  and  O_26
REMARK   13  A    between atoms: O_29  and  C_30
REMARK                            x       y       z     vdW  Elec       q    Type
REMARK                         _______ _______ _______ _____ _____    ______ ____
ROOT
ATOM      1  C   UNL     1       4.223   3.857  -1.625  0.00  0.00    +0.048 C 
ATOM      2  C   UNL     1       4.126   2.612  -0.781  0.00  0.00    -0.001 A 
ATOM      3  C   UNL     1       4.720   1.453  -1.206  0.00  0.00    +0.014 A 
ATOM      4  C   UNL     1       4.637   0.291  -0.429  0.00  0.00    +0.108 A 
ATOM      5  C   UNL     1       3.942   0.328   0.788  0.00  0.00    +0.141 A 
ATOM      6  C   UNL     1       3.344   1.507   1.210  0.00  0.00    +0.037 A 
ATOM      7  C   UNL     1       3.431   2.648   0.431  0.00  0.00    +0.131 A 
ATOM      8  O   UNL     1       2.854   3.816   0.806  0.00  0.00    -0.485 OA
ATOM      9  C   UNL     1       2.466   3.972   2.174  0.00  0.00    +0.112 C 
ATOM     10  C   UNL     1       1.550   5.194   2.308  0.00  0.00    +0.051 C 
ATOM     11  C   UNL     1       0.350   5.027   1.374  0.00  0.00    +0.042 C 
ATOM     12  C   UNL     1      -0.422   3.751   1.721  0.00  0.00    +0.100 C 
ATOM     13  C   UNL     1       0.499   2.532   1.639  0.00  0.00    +0.007 C 
ATOM     14  C   UNL     1       1.677   2.724   2.594  0.00  0.00    +0.046 C 
ATOM     15  C   UNL     1       2.607   1.513   2.526  0.00  0.00    +0.050 C 
ATOM     16  C   UNL     1       1.020   2.381   0.208  0.00  0.00    +0.014 C 
ATOM     17  C   UNL     1       3.703   4.138   3.059  0.00  0.00    +0.056 C 
ATOM     18  C   UNL     1       5.357  -0.779  -1.131  0.00  0.00    +0.343 C 
ATOM     19  O   UNL     1       5.476  -1.918  -0.725  0.00  0.00    -0.245 OA
ATOM     20  O   UNL     1       5.867  -0.318  -2.286  0.00  0.00    -0.456 OA
ATOM     21  C   UNL     1       5.521   1.087  -2.430  0.00  0.00    +0.269 C 
ENDROOT
BRANCH  12  22
ATOM     22  C   UNL     1      -1.598   3.567   0.760  0.00  0.00    +0.090 C 
ATOM     23  C   UNL     1      -2.423   4.855   0.711  0.00  0.00    +0.044 C 
ATOM     24  C   UNL     1      -1.068   3.247  -0.639  0.00  0.00    +0.044 C 
BRANCH  22  25
ATOM     25  O   UNL     1      -2.421   2.491   1.215  0.00  0.00    -0.386 OA
ATOM     26  H   UNL     1      -3.321   2.209   0.649  0.00  0.00    +0.210 HD
ENDBRANCH  22  25
ENDBRANCH  12  22
BRANCH  12  27
ATOM     27  O   UNL     1      -0.916   3.885   3.056  0.00  0.00    -0.385 OA
ATOM     28  H   UNL     1      -1.504   3.073   3.508  0.00  0.00    +0.210 HD
ENDBRANCH  12  27
BRANCH   5  29
ATOM     29  O   UNL     1       3.854  -0.789   1.553  0.00  0.00    -0.494 OA
ATOM     30  C   UNL     1       2.803  -1.706   1.244  0.00  0.00    +0.277 C 
ENDBRANCH   5  29
BRANCH  13  31
ATOM     31  C   UNL     1      -0.280   1.275   2.034  0.00  0.00    +0.021 C 
BRANCH  31  32
ATOM     32  C   UNL     1      -1.294   1.625   3.125  0.00  0.00    +0.126 C 
BRANCH  32  33
ATOM     33  C   UNL     1      -2.166   0.428   3.403  0.00  0.00    +0.356 C 
ATOM     34  O   UNL     1      -1.994  -0.600   2.791  0.00  0.00    -0.246 OA
ATOM     35  O   UNL     1      -3.134   0.504   4.330  0.00  0.00    -0.246 OA
ENDBRANCH  32  33
ENDBRANCH  31  32
ENDBRANCH  13  31
TORSDOF 7
