REMARK  Name = ZINC50251449
REMARK  4 active torsions:
REMARK  status: ('A' for Active; 'I' for Inactive)
REMARK    1  A    between atoms: C_2  and  C_20
REMARK    2  A    between atoms: C_6  and  N_7
REMARK    3  A    between atoms: C_13  and  C_16
REMARK    4  A    between atoms: C_16  and  N_17
REMARK                            x       y       z     vdW  Elec       q    Type
REMARK                         _______ _______ _______ _____ _____    ______ ____
ROOT
ATOM      1  N   UNL     1      -1.203  -0.721   0.010  0.00  0.00    -0.267 N 
ATOM      2  C   UNL     1      -2.375  -0.066   0.127  0.00  0.00    +0.307 C 
ATOM      3  O   UNL     1      -2.395   1.149   0.134  0.00  0.00    -0.252 OA
ATOM      4  N   UNL     1      -3.526  -0.760   0.236  0.00  0.00    -0.285 N 
ATOM      5  C   UNL     1      -3.646  -2.225   0.248  0.00  0.00    +0.109 C 
ATOM      6  C   UNL     1      -5.142  -2.561   0.418  0.00  0.00    +0.022 C 
ATOM      7  C   UNL     1      -5.718  -1.271   1.060  0.00  0.00    -0.010 C 
ATOM      8  C   UNL     1      -4.872  -0.174   0.370  0.00  0.00    +0.111 C 
ATOM      9  H   UNL     1      -1.193  -1.687  -0.078  0.00  0.00    +0.156 HD
ENDROOT
BRANCH   1  15
ATOM     10  C   UNL     1       0.069   1.232   0.629  0.00  0.00    +0.044 A 
ATOM     11  C   UNL     1       1.274   1.943   0.633  0.00  0.00    +0.100 A 
ATOM     12  C   UNL     1       2.405   1.396   0.015  0.00  0.00    +0.140 A 
ATOM     13  C   UNL     1       2.327   0.159  -0.596  0.00  0.00    +0.079 A 
ATOM     14  C   UNL     1       1.133  -0.542  -0.598  0.00  0.00    +0.147 A 
ATOM     15  C   UNL     1       0.003  -0.005   0.015  0.00  0.00    +0.071 A 
ATOM     16  F   UNL     1       1.064  -1.751  -1.196  0.00  0.00    -0.203 F 
ATOM     17  F   UNL     1       3.571   2.078   0.014  0.00  0.00    -0.205 F 
BRANCH  11  18
ATOM     18  C   UNL     1       1.351   3.261   1.284  0.00  0.00    +0.389 C 
ATOM     19  O   UNL     1       0.362   3.736   1.823  0.00  0.00    -0.240 OA
ATOM     20  O   UNL     1       2.406   3.881   1.286  0.00  0.00    -0.240 OA
ENDBRANCH  11  18
ENDBRANCH   1  15
BRANCH   7  21
ATOM     21  C   UNL     1      -7.203  -1.110   0.732  0.00  0.00    -0.081 C 
BRANCH  21  22
ATOM     22  N   UNL     1      -7.741   0.052   1.452  0.00  0.00    +0.378 N 
ATOM     23  H   UNL     1      -8.721   0.158   1.235  0.00  0.00    -0.090 HD
ATOM     24  H   UNL     1      -7.629  -0.085   2.445  0.00  0.00    -0.090 HD
ATOM     25  H   UNL     1      -7.242   0.883   1.169  0.00  0.00    -0.090 HD
ENDBRANCH  21  22
ENDBRANCH   7  21
TORSDOF 4
