REMARK  Name = ZINC44515173
REMARK  8 active torsions:
REMARK  status: ('A' for Active; 'I' for Inactive)
REMARK    1  A    between atoms: C_1  and  C_2
REMARK    2  A    between atoms: C_6  and  C_20
REMARK    3  A    between atoms: C_8  and  N_11
REMARK    4  A    between atoms: N_11  and  C_12
REMARK    5  A    between atoms: C_12  and  C_13
REMARK    6  A    between atoms: N_16  and  C_19
REMARK    7  A    between atoms: C_20  and  C_21
REMARK    8  A    between atoms: C_20  and  C_22
REMARK                            x       y       z     vdW  Elec       q    Type
REMARK                         _______ _______ _______ _____ _____    ______ ____
ROOT
ATOM      1  N   UNL     1       2.897  -0.443   2.438  0.00  0.00    +0.381 N 
ATOM      2  H   UNL     1       2.923  -1.452   2.451  0.00  0.00    -0.086 HD
ATOM      3  H   UNL     1       3.840  -0.083   2.426  0.00  0.00    -0.086 HD
ENDROOT
BRANCH   1   9
ATOM      4  C   UNL     1      -0.101   1.346  -0.020  0.00  0.00    +0.007 C 
ATOM      5  C   UNL     1       0.063  -0.174  -0.070  0.00  0.00    -0.016 C 
ATOM      6  C   UNL     1       0.863  -0.560  -1.315  0.00  0.00    +0.003 C 
ATOM      7  C   UNL     1       2.242   0.100  -1.260  0.00  0.00    +0.002 C 
ATOM      8  C   UNL     1       2.985  -0.374  -0.009  0.00  0.00    -0.022 C 
ATOM      9  C   UNL     1       2.184   0.012   1.236  0.00  0.00    -0.068 C 
ATOM     10  C   UNL     1       0.805  -0.648   1.181  0.00  0.00    -0.012 C 
BRANCH   8  11
ATOM     11  C   UNL     1       4.364   0.286   0.046  0.00  0.00    -0.016 C 
ATOM     12  C   UNL     1       5.205  -0.189  -1.141  0.00  0.00    +0.007 C 
ATOM     13  C   UNL     1       4.205   1.806  -0.017  0.00  0.00    +0.007 C 
ENDBRANCH   8  11
ENDBRANCH   1   9
BRANCH   1  14
ATOM     14  C   UNL     1       2.201   0.045   3.635  0.00  0.00    -0.079 C 
BRANCH  14  15
ATOM     15  C   UNL     1       2.943  -0.428   4.886  0.00  0.00    -0.032 C 
ATOM     16  C   UNL     1       2.867  -1.955   4.979  0.00  0.00    -0.017 C 
ATOM     17  C   UNL     1       3.542  -2.416   6.272  0.00  0.00    -0.079 C 
ATOM     18  N   UNL     1       2.858  -1.820   7.426  0.00  0.00    +0.378 N 
ATOM     19  C   UNL     1       2.989  -0.358   7.381  0.00  0.00    -0.079 C 
ATOM     20  C   UNL     1       2.292   0.182   6.130  0.00  0.00    -0.017 C 
ATOM     21  C   UNL     1       3.460  -2.326   8.666  0.00  0.00    -0.096 C 
ATOM     22  H   UNL     1       1.881  -2.070   7.402  0.00  0.00    -0.082 HD
ENDBRANCH  14  15
ENDBRANCH   1  14
TORSDOF 4
