REMARK  Name = ZINC37866837
REMARK  7 active torsions:
REMARK  status: ('A' for Active; 'I' for Inactive)
REMARK    1  A    between atoms: C_1  and  C_2
REMARK    2  A    between atoms: C_5  and  C_8
REMARK    3  A    between atoms: N_10  and  N_11
REMARK    4  A    between atoms: N_11  and  C_12
REMARK    5  A    between atoms: C_12  and  C_13
REMARK    6  A    between atoms: C_14  and  C_15
REMARK    7  A    between atoms: N_17  and  C_18
REMARK                            x       y       z     vdW  Elec       q    Type
REMARK                         _______ _______ _______ _____ _____    ______ ____
ROOT
ATOM      1  C   UNL     1       0.074  -7.027   2.410  0.00  0.00    +0.024 C 
ATOM      2  C   UNL     1      -0.242  -8.499   2.349  0.00  0.00    +0.062 C 
ATOM      3  C   UNL     1       0.125  -6.397   3.602  0.00  0.00    +0.087 C 
ENDROOT
BRANCH   3   4
ATOM      4  C   UNL     1       0.037  -7.143   4.800  0.00  0.00    +0.239 C 
ATOM      5  O   UNL     1       0.027  -8.360   4.760  0.00  0.00    -0.271 OA
ATOM      6  N   UNL     1      -0.035  -6.507   5.986  0.00  0.00    -0.306 N 
ATOM      7  H   UNL     1      -0.028  -5.537   6.018  0.00  0.00    +0.150 HD
BRANCH   6   8
ATOM      8  C   UNL     1      -0.126  -7.279   7.227  0.00  0.00    +0.036 C 
ATOM      9  C   UNL     1       1.107  -8.174   7.363  0.00  0.00    +0.029 C 
ATOM     10  C   UNL     1       1.013  -8.981   8.659  0.00  0.00    -0.008 C 
ATOM     11  C   UNL     1       0.943  -8.024   9.851  0.00  0.00    +0.007 C 
ATOM     12  C   UNL     1      -0.291  -7.130   9.716  0.00  0.00    -0.008 C 
ATOM     13  C   UNL     1      -0.196  -6.323   8.419  0.00  0.00    +0.029 C 
ATOM     14  C   UNL     1      -1.550  -7.998   9.685  0.00  0.00    +0.007 C 
ATOM     15  C   UNL     1      -1.480  -8.955   8.493  0.00  0.00    -0.008 C 
ATOM     16  C   UNL     1      -0.246  -9.850   8.628  0.00  0.00    +0.007 C 
ATOM     17  C   UNL     1      -1.385  -8.148   7.196  0.00  0.00    +0.029 C 
ENDBRANCH   6   8
ENDBRANCH   3   4
BRANCH   1  18
ATOM     18  N   UNL     1       0.309  -6.330   1.258  0.00  0.00    -0.268 N 
ATOM     19  H   UNL     1       0.272  -6.783   0.401  0.00  0.00    +0.170 HD
BRANCH  18  22
ATOM     20  C   UNL     1       0.834  -4.274   0.179  0.00  0.00    +0.260 C 
ATOM     21  O   UNL     1       0.788  -4.841  -0.895  0.00  0.00    -0.269 OA
ATOM     22  N   UNL     1       0.602  -4.961   1.315  0.00  0.00    -0.233 N 
ATOM     23  H   UNL     1       0.639  -4.508   2.172  0.00  0.00    +0.173 HD
BRANCH  20  28
ATOM     24  C   UNL     1       2.039   1.349   0.413  0.00  0.00    +0.044 C 
ATOM     25  C   UNL     1       1.723  -0.124   0.351  0.00  0.00    -0.050 A 
ATOM     26  C   UNL     1       1.672  -0.767  -0.873  0.00  0.00    +0.004 A 
ATOM     27  C   UNL     1       1.384  -2.115  -0.936  0.00  0.00    +0.013 A 
ATOM     28  C   UNL     1       1.144  -2.829   0.239  0.00  0.00    +0.038 A 
ATOM     29  C   UNL     1       1.197  -2.174   1.470  0.00  0.00    +0.013 A 
ATOM     30  C   UNL     1       1.491  -0.828   1.520  0.00  0.00    +0.004 A 
ENDBRANCH  20  28
ENDBRANCH  18  22
ENDBRANCH   1  18
TORSDOF 5
