REMARK  Name = ZINC40824854
REMARK  7 active torsions:
REMARK  status: ('A' for Active; 'I' for Inactive)
REMARK    1  A    between atoms: C_1  and  C_2
REMARK    2  A    between atoms: C_6  and  C_7
REMARK    3  A    between atoms: N_9  and  C_10
REMARK    4  A    between atoms: N_9  and  C_13
REMARK    5  A    between atoms: C_10  and  C_11
REMARK    6  A    between atoms: C_13  and  C_14
REMARK    7  A    between atoms: N_20  and  N_21
REMARK                            x       y       z     vdW  Elec       q    Type
REMARK                         _______ _______ _______ _____ _____    ______ ____
ROOT
ATOM      1  C   UNL     1       0.033   1.531   0.036  0.00  0.00    +0.048 C 
ATOM      2  C   UNL     1       0.096   0.026   0.017  0.00  0.00    +0.009 A 
ATOM      3  C   UNL     1       0.159  -0.798  -1.113  0.00  0.00    +0.042 A 
ATOM      4  C   UNL     1       0.200  -2.100  -0.674  0.00  0.00    +0.115 A 
ATOM      5  O   UNL     1       0.168  -2.086   0.657  0.00  0.00    -0.454 OA
ATOM      6  C   UNL     1       0.108  -0.809   1.099  0.00  0.00    +0.193 A 
ATOM      7  C   UNL     1       0.267  -3.280  -1.609  0.00  0.00    +0.075 C 
ATOM      8  C   UNL     1      -0.228  -2.859  -2.995  0.00  0.00    +0.014 C 
ATOM      9  C   UNL     1       0.523  -1.616  -3.483  0.00  0.00    +0.058 C 
ATOM     10  C   UNL     1       0.184  -0.460  -2.554  0.00  0.00    +0.072 C 
ATOM     11  N   UNL     1      -0.064   0.735  -2.993  0.00  0.00    -0.175 NA
ENDROOT
BRANCH  11  12
ATOM     12  N   UNL     1      -0.025   0.999  -4.368  0.00  0.00    -0.248 N 
ATOM     13  C   UNL     1      -0.287   2.260  -4.831  0.00  0.00    +0.187 C 
ATOM     14  N   UNL     1      -0.251   2.511  -6.139  0.00  0.00    -0.370 N 
ATOM     15  N   UNL     1      -0.579   3.238  -3.973  0.00  0.00    -0.370 N 
ATOM     16  H   UNL     1       0.187   0.288  -4.993  0.00  0.00    +0.192 HD
ATOM     17  H   UNL     1      -0.038   1.800  -6.764  0.00  0.00    +0.159 HD
ATOM     18  H   UNL     1      -0.606   3.055  -3.021  0.00  0.00    +0.159 HD
ATOM     19  H   UNL     1      -0.765   4.132  -4.301  0.00  0.00    +0.159 HD
ATOM     20  H   UNL     1      -0.436   3.405  -6.467  0.00  0.00    +0.159 HD
ENDBRANCH  11  12
BRANCH   6  21
ATOM     21  C   UNL     1       0.062  -0.391   2.505  0.00  0.00    +0.284 C 
ATOM     22  O   UNL     1       0.122   0.791   2.790  0.00  0.00    -0.267 OA
ATOM     23  N   UNL     1      -0.048  -1.315   3.480  0.00  0.00    -0.269 N 
BRANCH  23  24
ATOM     24  C   UNL     1      -0.186  -0.893   4.876  0.00  0.00    +0.228 C 
BRANCH  24  25
ATOM     25  C   UNL     1      -1.613  -0.852   5.237  0.00  0.00    +0.082 C 
ATOM     26  N   UNL     1      -2.714  -0.819   5.515  0.00  0.00    -0.195 NA
ENDBRANCH  24  25
ENDBRANCH  23  24
BRANCH  23  27
ATOM     27  C   UNL     1      -0.028  -2.740   3.143  0.00  0.00    +0.228 C 
BRANCH  27  28
ATOM     28  C   UNL     1       1.366  -3.196   3.017  0.00  0.00    +0.082 C 
ATOM     29  N   UNL     1       2.442  -3.547   2.919  0.00  0.00    -0.195 NA
ENDBRANCH  27  28
ENDBRANCH  23  27
ENDBRANCH   6  21
TORSDOF 6
