REMARK  Name = ZINC39695028
REMARK  8 active torsions:
REMARK  status: ('A' for Active; 'I' for Inactive)
REMARK    1  A    between atoms: C_1  and  C_2
REMARK    2  A    between atoms: C_3  and  C_9
REMARK    3  A    between atoms: C_9  and  N_10
REMARK    4  A    between atoms: C_11  and  C_13
REMARK    5  A    between atoms: C_24  and  C_26
REMARK    6  A    between atoms: C_26  and  C_28
REMARK    7  A    between atoms: C_26  and  O_29
REMARK    8  A    between atoms: O_29  and  C_30
REMARK                            x       y       z     vdW  Elec       q    Type
REMARK                         _______ _______ _______ _____ _____    ______ ____
ROOT
ATOM      1  C   UNL     1       3.278   1.936  -5.030  0.00  0.00    +0.100 C 
ATOM      2  C   UNL     1       3.622   2.749  -3.762  0.00  0.00    +0.121 C 
ATOM      3  N   UNL     1       4.256   3.987  -4.272  0.00  0.00    -0.297 N 
ATOM      4  C   UNL     1       3.468   4.336  -5.478  0.00  0.00    +0.115 C 
ATOM      5  C   UNL     1       3.177   2.982  -6.154  0.00  0.00    -0.004 C 
ATOM      6  C   UNL     1       4.216   2.697  -7.235  0.00  0.00    -0.010 C 
ATOM      7  C   UNL     1       4.059   3.716  -8.367  0.00  0.00    -0.082 C 
ATOM      8  N   UNL     1       2.704   3.624  -8.926  0.00  0.00    +0.379 N 
ATOM      9  C   UNL     1       1.715   3.989  -7.905  0.00  0.00    -0.082 C 
ATOM     10  C   UNL     1       1.774   2.982  -6.752  0.00  0.00    -0.010 C 
ATOM     11  C   UNL     1       5.312   4.648  -3.755  0.00  0.00    +0.256 C 
ATOM     12  O   UNL     1       5.718   5.657  -4.292  0.00  0.00    -0.272 OA
ATOM     13  H   UNL     1       2.622   4.252  -9.711  0.00  0.00    -0.086 HD
ATOM     14  H   UNL     1       2.533   2.679  -9.236  0.00  0.00    -0.086 HD
ENDROOT
BRANCH   1  16
ATOM     15  N   UNL     1       1.719   0.080  -5.526  0.00  0.00    -0.311 N 
ATOM     16  C   UNL     1       1.961   1.225  -4.856  0.00  0.00    +0.218 C 
ATOM     17  O   UNL     1       1.118   1.682  -4.114  0.00  0.00    -0.275 OA
ATOM     18  H   UNL     1       2.393  -0.285  -6.120  0.00  0.00    +0.149 HD
BRANCH  15  19
ATOM     19  C   UNL     1       0.439  -0.611  -5.357  0.00  0.00    +0.139 C 
BRANCH  19  22
ATOM     20  C   UNL     1       1.772  -3.006  -4.443  0.00  0.00    +0.045 C 
ATOM     21  C   UNL     1       1.061  -3.000  -5.771  0.00  0.00    -0.027 A 
ATOM     22  C   UNL     1       0.423  -1.854  -6.209  0.00  0.00    -0.026 A 
ATOM     23  C   UNL     1      -0.229  -1.849  -7.427  0.00  0.00    +0.005 A 
ATOM     24  C   UNL     1      -0.244  -2.989  -8.209  0.00  0.00    +0.002 A 
ATOM     25  C   UNL     1       0.393  -4.135  -7.773  0.00  0.00    +0.020 A 
ATOM     26  C   UNL     1       1.051  -4.139  -6.556  0.00  0.00    +0.044 A 
ATOM     27 CL   UNL     1       1.857  -5.577  -6.010  0.00  0.00    -0.083 Cl
ENDBRANCH  19  22
ENDBRANCH  15  19
ENDBRANCH   1  16
BRANCH  11  28
ATOM     28  C   UNL     1       5.988   4.132  -2.511  0.00  0.00    +0.256 C 
ATOM     29  C   UNL     1       5.014   4.209  -1.333  0.00  0.00    +0.062 C 
BRANCH  28  30
ATOM     30  O   UNL     1       7.140   4.929  -2.229  0.00  0.00    -0.480 OA
BRANCH  30  31
ATOM     31  C   UNL     1       8.133   4.345  -1.509  0.00  0.00    +0.122 A 
ATOM     32  C   UNL     1       7.961   3.067  -0.997  0.00  0.00    +0.045 A 
ATOM     33  C   UNL     1       8.972   2.475  -0.265  0.00  0.00    +0.004 A 
ATOM     34  C   UNL     1      10.155   3.156  -0.043  0.00  0.00    +0.000 A 
ATOM     35  C   UNL     1      10.329   4.429  -0.551  0.00  0.00    +0.004 A 
ATOM     36  C   UNL     1       9.323   5.023  -1.289  0.00  0.00    +0.045 A 
ENDBRANCH  30  31
ENDBRANCH  28  30
ENDBRANCH  11  28
TORSDOF 6
