REMARK  Name = ZINC34665065
REMARK  8 active torsions:
REMARK  status: ('A' for Active; 'I' for Inactive)
REMARK    1  A    between atoms: C_1  and  C_2
REMARK    2  A    between atoms: C_5  and  C_20
REMARK    3  A    between atoms: C_6  and  O_9
REMARK    4  A    between atoms: C_7  and  C_8
REMARK    5  A    between atoms: O_9  and  C_10
REMARK    6  A    between atoms: C_15  and  C_16
REMARK    7  A    between atoms: C_16  and  N_17
REMARK    8  A    between atoms: N_17  and  C_18
REMARK                            x       y       z     vdW  Elec       q    Type
REMARK                         _______ _______ _______ _____ _____    ______ ____
ROOT
ATOM      1  C   UNL     1       1.256  -3.083   2.903  0.00  0.00    +0.131 A 
ATOM      2  C   UNL     1       2.426  -2.691   2.267  0.00  0.00    +0.061 A 
ATOM      3  C   UNL     1       3.651  -3.005   2.823  0.00  0.00    +0.021 A 
ATOM      4  C   UNL     1       3.712  -3.709   4.013  0.00  0.00    +0.016 A 
ATOM      5  C   UNL     1       2.549  -4.100   4.647  0.00  0.00    +0.006 A 
ATOM      6  C   UNL     1       1.321  -3.784   4.098  0.00  0.00    -0.022 A 
ATOM      7 BR   UNL     1       5.246  -2.473   1.957  0.00  0.00    -0.050 Br
ENDROOT
BRANCH   1   8
ATOM      8  O   UNL     1       0.050  -2.776   2.358  0.00  0.00    -0.455 OA
BRANCH   8  14
ATOM      9  C   UNL     1      -0.018   1.503   0.010  0.00  0.00    +0.044 C 
ATOM     10  C   UNL     1       0.002  -0.004   0.002  0.00  0.00    -0.044 A 
ATOM     11  C   UNL     1       0.006  -0.688  -1.200  0.00  0.00    +0.004 A 
ATOM     12  C   UNL     1       0.024  -2.071  -1.211  0.00  0.00    +0.007 A 
ATOM     13  C   UNL     1       0.039  -2.772  -0.021  0.00  0.00    -0.008 A 
ATOM     14  C   UNL     1       0.035  -2.088   1.186  0.00  0.00    +0.134 A 
ATOM     15  C   UNL     1       0.023  -0.700   1.195  0.00  0.00    -0.005 A 
ATOM     16  C   UNL     1       0.026   0.046   2.504  0.00  0.00    +0.048 C 
ATOM     17  C   UNL     1       0.058  -4.279  -0.034  0.00  0.00    +0.047 C 
ENDBRANCH   8  14
ENDBRANCH   1   8
BRANCH   6  18
ATOM     18  C   UNL     1       0.052  -4.205   4.795  0.00  0.00    -0.043 C 
BRANCH  18  19
ATOM     19  N   UNL     1      -0.478  -5.416   4.156  0.00  0.00    +0.380 N 
ATOM     20  C   UNL     1      -1.715  -5.827   4.835  0.00  0.00    -0.100 C 
ATOM     21  H   UNL     1      -0.675  -5.226   3.185  0.00  0.00    -0.086 HD
ATOM     22  H   UNL     1       0.203  -6.157   4.222  0.00  0.00    -0.086 HD
ENDBRANCH  18  19
ENDBRANCH   6  18
TORSDOF 4
