REMARK  Name = ZINC48006049
REMARK  8 active torsions:
REMARK  status: ('A' for Active; 'I' for Inactive)
REMARK    1  A    between atoms: C_1  and  O_2
REMARK    2  A    between atoms: O_2  and  C_3
REMARK    3  A    between atoms: C_3  and  C_5
REMARK    4  A    between atoms: C_8  and  N_11
REMARK    5  A    between atoms: N_14  and  C_15
REMARK    6  A    between atoms: C_15  and  C_16
REMARK    7  A    between atoms: C_16  and  C_17
REMARK    8  A    between atoms: C_17  and  N_18
REMARK                            x       y       z     vdW  Elec       q    Type
REMARK                         _______ _______ _______ _____ _____    ______ ____
ROOT
ATOM      1  N   UNL     1      -1.409  -6.268  -0.017  0.00  0.00    -0.269 N 
ATOM      2  C   UNL     1      -2.596  -6.896   0.088  0.00  0.00    +0.304 C 
ATOM      3  O   UNL     1      -3.627  -6.251   0.096  0.00  0.00    -0.253 OA
ATOM      4  N   UNL     1      -2.641  -8.240   0.183  0.00  0.00    -0.299 N 
ATOM      5  H   UNL     1      -0.592  -6.784  -0.101  0.00  0.00    +0.156 HD
ATOM      6  H   UNL     1      -1.819  -8.754   0.176  0.00  0.00    +0.150 HD
ENDROOT
BRANCH   1  10
ATOM      7  C   UNL     1      -1.245  -2.106   0.023  0.00  0.00    +0.059 A 
ATOM      8  C   UNL     1      -2.213  -2.776   0.777  0.00  0.00    +0.017 A 
ATOM      9  C   UNL     1      -2.264  -4.152   0.762  0.00  0.00    +0.024 A 
ATOM     10  C   UNL     1      -1.354  -4.875  -0.004  0.00  0.00    +0.035 A 
ATOM     11  C   UNL     1      -0.390  -4.211  -0.755  0.00  0.00    +0.024 A 
ATOM     12  C   UNL     1      -0.336  -2.835  -0.749  0.00  0.00    +0.017 A 
BRANCH   7  13
ATOM     13  C   UNL     1      -1.188  -0.632   0.036  0.00  0.00    +0.339 C 
ATOM     14  O   UNL     1      -0.350  -0.051  -0.624  0.00  0.00    -0.245 OA
BRANCH  13  16
ATOM     15  C   UNL     1      -1.951   1.493   0.747  0.00  0.00    +0.280 C 
ATOM     16  O   UNL     1      -2.065   0.069   0.781  0.00  0.00    -0.464 OA
ENDBRANCH  13  16
ENDBRANCH   7  13
ENDBRANCH   1  10
BRANCH   4  17
ATOM     17  C   UNL     1      -3.932  -8.923   0.297  0.00  0.00    +0.107 C 
BRANCH  17  18
ATOM     18  C   UNL     1      -3.703 -10.433   0.389  0.00  0.00    +0.038 C 
BRANCH  18  19
ATOM     19  C   UNL     1      -5.051 -11.147   0.508  0.00  0.00    +0.119 C 
BRANCH  19  20
ATOM     20  N   UNL     1      -4.832 -12.593   0.597  0.00  0.00    -0.224 N 
ATOM     21  C   UNL     1      -4.771 -13.418  -0.470  0.00  0.00    +0.246 C 
ATOM     22  O   UNL     1      -4.881 -13.118  -1.640  0.00  0.00    -0.273 OA
ATOM     23  C   UNL     1      -4.534 -14.792   0.103  0.00  0.00    +0.113 C 
ATOM     24  C   UNL     1      -3.219 -15.388  -0.417  0.00  0.00    +0.035 C 
ATOM     25  C   UNL     1      -3.519 -16.904  -0.547  0.00  0.00    +0.003 C 
ATOM     26  C   UNL     1      -4.988 -16.923  -1.040  0.00  0.00    +0.003 C 
ATOM     27  C   UNL     1      -5.659 -15.756  -0.282  0.00  0.00    +0.035 C 
ATOM     28  N   UNL     1      -4.483 -14.582   1.551  0.00  0.00    -0.285 N 
ATOM     29  C   UNL     1      -4.662 -13.260   1.746  0.00  0.00    +0.309 C 
ATOM     30  O   UNL     1      -4.673 -12.733   2.841  0.00  0.00    -0.252 OA
ATOM     31  H   UNL     1      -4.344 -15.257   2.233  0.00  0.00    +0.151 HD
ENDBRANCH  19  20
ENDBRANCH  18  19
ENDBRANCH  17  18
ENDBRANCH   4  17
TORSDOF 7
