REMARK  Name = ZINC67476122
REMARK  10 active torsions:
REMARK  status: ('A' for Active; 'I' for Inactive)
REMARK    1  A    between atoms: C_1  and  C_2
REMARK    2  A    between atoms: C_2  and  C_4
REMARK    3  A    between atoms: C_2  and  O_17
REMARK    4  A    between atoms: N_6  and  C_7
REMARK    5  A    between atoms: C_9  and  C_15
REMARK    6  A    between atoms: C_9  and  C_16
REMARK    7  A    between atoms: C_11  and  C_13
REMARK    8  A    between atoms: C_11  and  C_14
REMARK    9  A    between atoms: O_17  and  C_18
REMARK   10  A    between atoms: C_22  and  C_24
REMARK                            x       y       z     vdW  Elec       q    Type
REMARK                         _______ _______ _______ _____ _____    ______ ____
ROOT
ATOM      1  C   UNL     1      -1.588   0.756   1.693  0.00  0.00    +0.254 C 
ATOM      2  O   UNL     1      -2.325   0.633   2.648  0.00  0.00    -0.272 OA
ATOM      3  N   UNL     1      -2.025   0.438   0.458  0.00  0.00    -0.310 N 
ATOM      4  H   UNL     1      -1.436   0.536  -0.306  0.00  0.00    +0.149 HD
ENDROOT
BRANCH   3   5
ATOM      5  C   UNL     1      -3.395  -0.059   0.270  0.00  0.00    +0.070 C 
ATOM      6  C   UNL     1      -3.411  -1.575   0.470  0.00  0.00    +0.009 C 
ATOM      7  C   UNL     1      -4.829  -2.109   0.265  0.00  0.00    -0.072 C 
ATOM      8  N   UNL     1      -5.384  -1.710  -1.019  0.00  0.00    +0.386 N 
ATOM      9  C   UNL     1      -5.244  -0.317  -1.412  0.00  0.00    -0.072 C 
ATOM     10  C   UNL     1      -3.847   0.241  -1.159  0.00  0.00    +0.009 C 
ATOM     11  C   UNL     1      -6.292   0.571  -0.737  0.00  0.00    -0.010 C 
ATOM     12  C   UNL     1      -5.499  -0.237  -2.936  0.00  0.00    -0.010 C 
ATOM     13  C   UNL     1      -5.723  -1.696   1.433  0.00  0.00    -0.010 C 
ATOM     14  C   UNL     1      -4.743  -3.653   0.277  0.00  0.00    -0.010 C 
ATOM     15  H   UNL     1      -4.963  -2.294  -1.746  0.00  0.00    -0.084 HD
ATOM     16  H   UNL     1      -6.379  -1.948  -1.027  0.00  0.00    -0.084 HD
ENDBRANCH   3   5
BRANCH   1  18
ATOM     17  C   UNL     1      -0.029   2.616   1.185  0.00  0.00    +0.062 C 
ATOM     18  C   UNL     1      -0.183   1.265   1.886  0.00  0.00    +0.255 C 
BRANCH  18  19
ATOM     19  O   UNL     1       0.080   1.420   3.282  0.00  0.00    -0.480 OA
BRANCH  19  20
ATOM     20  C   UNL     1       1.381   1.380   3.673  0.00  0.00    +0.123 A 
ATOM     21  C   UNL     1       2.390   1.321   2.722  0.00  0.00    +0.046 A 
ATOM     22  C   UNL     1       3.715   1.280   3.114  0.00  0.00    +0.005 A 
ATOM     23  C   UNL     1       4.044   1.296   4.454  0.00  0.00    +0.019 A 
ATOM     24  C   UNL     1       3.036   1.355   5.418  0.00  0.00    +0.055 A 
ATOM     25  C   UNL     1       1.699   1.402   5.021  0.00  0.00    +0.064 A 
BRANCH  24  26
ATOM     26  C   UNL     1       3.373   1.372   6.810  0.00  0.00    +0.099 C 
ATOM     27  N   UNL     1       3.640   1.386   7.914  0.00  0.00    -0.191 NA
ENDBRANCH  24  26
ENDBRANCH  19  20
ENDBRANCH  18  19
ENDBRANCH   1  18
TORSDOF 5
