REMARK  Name = ZINC14534413
REMARK  8 active torsions:
REMARK  status: ('A' for Active; 'I' for Inactive)
REMARK    1  A    between atoms: C_1  and  N_2
REMARK    2  A    between atoms: C_5  and  C_7
REMARK    3  A    between atoms: N_9  and  C_10
REMARK    4  A    between atoms: C_10  and  C_11
REMARK    5  A    between atoms: C_19  and  N_60
REMARK    6  A    between atoms: C_23  and  C_24
REMARK    7  A    between atoms: C_23  and  N_60
REMARK    8  A    between atoms: C_24  and  O_30
REMARK                            x       y       z     vdW  Elec       q    Type
REMARK                         _______ _______ _______ _____ _____    ______ ____
ROOT
ATOM      1  C   UNL     1      -3.552   2.969   2.968  0.00  0.00    +0.172 C 
ATOM      2  N   UNL     1      -2.280   2.399   2.516  0.00  0.00    -0.270 N 
ATOM      3  C   UNL     1      -1.994   2.062   1.247  0.00  0.00    +0.043 A 
ATOM      4  C   UNL     1      -0.728   1.576   1.237  0.00  0.00    +0.004 A 
ATOM      5  C   UNL     1      -0.278   1.639   2.566  0.00  0.00    +0.150 A 
ATOM      6  N   UNL     1      -1.269   2.146   3.278  0.00  0.00    -0.166 NA
ATOM      7  C   UNL     1      -0.013   1.086   0.008  0.00  0.00    +0.023 C 
ATOM      8  C   UNL     1      -0.766   1.600  -1.226  0.00  0.00    -0.067 C 
ATOM      9  C   UNL     1      -2.259   1.291  -1.080  0.00  0.00    -0.009 C 
ATOM     10  C   UNL     1      -2.863   2.173   0.020  0.00  0.00    +0.054 C 
ENDROOT
BRANCH   5  11
ATOM     11  C   UNL     1       1.046   1.220   3.070  0.00  0.00    +0.265 C 
ATOM     12  O   UNL     1       1.873   0.766   2.303  0.00  0.00    -0.268 OA
ATOM     13  N   UNL     1       1.337   1.340   4.380  0.00  0.00    -0.306 N 
ATOM     14  H   UNL     1       0.678   1.702   4.992  0.00  0.00    +0.149 HD
BRANCH  13  15
ATOM     15  C   UNL     1       2.650   0.924   4.880  0.00  0.00    +0.140 C 
BRANCH  15  16
ATOM     16  C   UNL     1       2.720   1.161   6.367  0.00  0.00    -0.030 A 
ATOM     17  C   UNL     1       3.181   2.371   6.853  0.00  0.00    +0.008 A 
ATOM     18  C   UNL     1       3.241   2.591   8.216  0.00  0.00    +0.038 A 
ATOM     19  C   UNL     1       2.849   1.596   9.095  0.00  0.00    +0.123 A 
ATOM     20  C   UNL     1       2.392   0.383   8.607  0.00  0.00    +0.038 A 
ATOM     21  C   UNL     1       2.328   0.167   7.244  0.00  0.00    +0.008 A 
ATOM     22  F   UNL     1       2.911   1.808  10.428  0.00  0.00    -0.205 F 
ENDBRANCH  15  16
ENDBRANCH  13  15
ENDBRANCH   5  11
BRANCH   8  23
ATOM     23  N   UNL     1      -0.240   0.927  -2.429  0.00  0.00    +0.383 N 
ATOM     24  H   UNL     1      -0.717   0.026  -2.549  0.00  0.00    -0.085 HD
ATOM     25  H   UNL     1       0.768   0.769  -2.315  0.00  0.00    -0.085 HD
BRANCH  23  26
ATOM     26  C   UNL     1      -0.470   1.762  -3.624  0.00  0.00    -0.047 C 
BRANCH  26  27
ATOM     27  C   UNL     1       0.085   1.040  -4.854  0.00  0.00    +0.051 C 
ATOM     28  C   UNL     1       1.557   0.693  -4.620  0.00  0.00    +0.033 C 
ATOM     29  C   UNL     1       2.112  -0.029  -5.850  0.00  0.00    +0.003 C 
ATOM     30  C   UNL     1       1.991   0.882  -7.073  0.00  0.00    +0.000 C 
ATOM     31  C   UNL     1       0.519   1.229  -7.307  0.00  0.00    +0.003 C 
ATOM     32  C   UNL     1      -0.036   1.951  -6.077  0.00  0.00    +0.033 C 
BRANCH  27  33
ATOM     33  O   UNL     1      -0.658  -0.160  -5.077  0.00  0.00    -0.390 OA
ATOM     34  H   UNL     1      -0.626  -0.785  -4.341  0.00  0.00    +0.210 HD
ENDBRANCH  27  33
ENDBRANCH  26  27
ENDBRANCH  23  26
ENDBRANCH   8  23
TORSDOF 7
