REMARK  Name = ZINC40170783
REMARK  13 active torsions:
REMARK  status: ('A' for Active; 'I' for Inactive)
REMARK    1  A    between atoms: C_1  and  C_2
REMARK    2  A    between atoms: C_2  and  O_3
REMARK    3  A    between atoms: O_3  and  C_4
REMARK    4  A    between atoms: C_4  and  C_6
REMARK    5  A    between atoms: C_7  and  C_35
REMARK    6  A    between atoms: C_9  and  N_14
REMARK    7  A    between atoms: C_10  and  C_11
REMARK    8  A    between atoms: C_15  and  C_17
REMARK    9  A    between atoms: C_17  and  S_18
REMARK   10  A    between atoms: S_18  and  C_19
REMARK   11  A    between atoms: C_25  and  C_34
REMARK   12  A    between atoms: C_27  and  C_33
REMARK   13  A    between atoms: C_30  and  C_32
REMARK                            x       y       z     vdW  Elec       q    Type
REMARK                         _______ _______ _______ _____ _____    ______ ____
ROOT
ATOM      1  N   UNL     1       3.261  -3.346   4.839  0.00  0.00    -0.255 N 
ATOM      2  C   UNL     1       3.452  -3.904   6.050  0.00  0.00    +0.230 C 
ATOM      3  O   UNL     1       2.499  -4.191   6.743  0.00  0.00    -0.274 OA
ATOM      4  H   UNL     1       4.024  -3.116   4.285  0.00  0.00    +0.158 HD
ENDROOT
BRANCH   1   8
ATOM      5  C   UNL     1       0.165  -2.483   3.155  0.00  0.00    +0.114 A 
ATOM      6  C   UNL     1      -0.231  -3.012   4.343  0.00  0.00    +0.119 A 
ATOM      7  O   UNL     1       0.847  -3.368   5.051  0.00  0.00    -0.445 OA
ATOM      8  C   UNL     1       1.979  -3.100   4.386  0.00  0.00    +0.206 A 
ATOM      9  C   UNL     1       1.645  -2.541   3.166  0.00  0.00    +0.111 A 
ATOM     10  C   UNL     1      -1.661  -3.172   4.793  0.00  0.00    +0.087 C 
BRANCH   9  11
ATOM     11  C   UNL     1       2.561  -2.096   2.111  0.00  0.00    +0.247 C 
ATOM     12  O   UNL     1       2.975  -0.952   2.107  0.00  0.00    -0.270 OA
ATOM     13  N   UNL     1       2.944  -2.955   1.145  0.00  0.00    -0.325 N 
ATOM     14  H   UNL     1       2.614  -3.867   1.149  0.00  0.00    +0.145 HD
ATOM     15  H   UNL     1       3.550  -2.661   0.447  0.00  0.00    +0.145 HD
ENDBRANCH   9  11
BRANCH   5  16
ATOM     16  C   UNL     1      -0.696  -1.968   2.080  0.00  0.00    +0.343 C 
ATOM     17  O   UNL     1      -1.086  -2.714   1.203  0.00  0.00    -0.245 OA
BRANCH  16  18
ATOM     18  O   UNL     1      -1.054  -0.668   2.068  0.00  0.00    -0.461 OA
BRANCH  18  20
ATOM     19  C   UNL     1      -2.189   1.257   1.148  0.00  0.00    +0.048 C 
ATOM     20  C   UNL     1      -1.892  -0.236   0.994  0.00  0.00    +0.229 C 
ENDBRANCH  18  20
ENDBRANCH  16  18
ENDBRANCH   5  16
ENDBRANCH   1   8
BRANCH   2  21
ATOM     21  C   UNL     1       4.850  -4.172   6.545  0.00  0.00    +0.173 C 
BRANCH  21  22
ATOM     22  S   UNL     1       4.775  -4.922   8.194  0.00  0.00    -0.076 S 
BRANCH  22  23
ATOM     23  C   UNL     1       6.465  -5.171   8.627  0.00  0.00    +0.197 A 
ATOM     24  N   UNL     1       7.489  -4.879   7.845  0.00  0.00    -0.122 NA
ATOM     25  N   UNL     1       8.589  -5.063   8.476  0.00  0.00    -0.129 NA
ATOM     26  C   UNL     1       8.326  -5.443   9.711  0.00  0.00    +0.162 A 
ATOM     27  N   UNL     1       6.968  -5.709   9.772  0.00  0.00    -0.270 N 
ATOM     28  C   UNL     1       6.469  -6.418  10.849  0.00  0.00    +0.061 A 
ATOM     29  C   UNL     1       5.317  -7.186  10.800  0.00  0.00    -0.026 A 
ATOM     30  C   UNL     1       4.758  -7.681  11.964  0.00  0.00    +0.008 A 
ATOM     31  C   UNL     1       5.394  -7.511  13.182  0.00  0.00    -0.050 A 
ATOM     32  C   UNL     1       6.634  -6.912  13.228  0.00  0.00    +0.013 A 
ATOM     33  C   UNL     1       7.215  -6.437  12.051  0.00  0.00    +0.002 A 
ATOM     34  C   UNL     1       8.621  -6.027  12.017  0.00  0.00    -0.038 A 
ATOM     35  C   UNL     1       9.146  -5.590  10.851  0.00  0.00    +0.052 A 
ATOM     36  C   UNL     1       9.484  -6.089  13.251  0.00  0.00    +0.044 C 
ATOM     37  C   UNL     1       4.736  -7.980  14.453  0.00  0.00    +0.044 C 
ATOM     38  C   UNL     1       4.680  -7.583   9.492  0.00  0.00    +0.046 C 
ENDBRANCH  22  23
ENDBRANCH  21  22
ENDBRANCH   2  21
TORSDOF 8
