REMARK  Name = ZINC15884946
REMARK  5 active torsions:
REMARK  status: ('A' for Active; 'I' for Inactive)
REMARK    1  A    between atoms: N_8  and  N_9
REMARK    2  A    between atoms: C_10  and  C_12
REMARK    3  A    between atoms: C_12  and  N_13
REMARK    4  A    between atoms: C_14  and  C_16
REMARK    5  A    between atoms: C_17  and  C_18
REMARK                            x       y       z     vdW  Elec       q    Type
REMARK                         _______ _______ _______ _____ _____    ______ ____
ROOT
ATOM      1  N   UNL     1      -0.610  -2.946   0.098  0.00  0.00    -0.205 N 
ATOM      2  C   UNL     1      -1.435  -4.006   0.201  0.00  0.00    +0.249 C 
ATOM      3  O   UNL     1      -0.981  -5.131   0.191  0.00  0.00    -0.272 OA
ATOM      4  H   UNL     1      -0.972  -2.046   0.106  0.00  0.00    +0.177 HD
ENDROOT
BRANCH   1  12
ATOM      5  C   UNL     1       0.047   1.318   0.764  0.00  0.00    +0.001 A 
ATOM      6  C   UNL     1       1.229   2.035   0.677  0.00  0.00    +0.002 A 
ATOM      7  C   UNL     1       2.418   1.397   0.386  0.00  0.00    +0.024 A 
ATOM      8  C   UNL     1       2.440   0.022   0.176  0.00  0.00    +0.043 A 
ATOM      9  C   UNL     1       1.242  -0.698   0.266  0.00  0.00    +0.028 A 
ATOM     10  C   UNL     1       0.050  -0.047   0.559  0.00  0.00    +0.012 A 
ATOM     11  C   UNL     1       1.585  -2.115  -0.002  0.00  0.00    +0.152 C 
ATOM     12  N   UNL     1       0.772  -3.143  -0.023  0.00  0.00    -0.174 NA
ATOM     13  C   UNL     1       3.043  -2.115  -0.242  0.00  0.00    +0.269 C 
ATOM     14  O   UNL     1       3.726  -3.088  -0.500  0.00  0.00    -0.268 OA
ATOM     15  N   UNL     1       3.480  -0.850  -0.125  0.00  0.00    -0.280 N 
ATOM     16  H   UNL     1       4.405  -0.579  -0.236  0.00  0.00    +0.155 HD
ENDBRANCH   1  12
BRANCH   2  17
ATOM     17  C   UNL     1      -2.921  -3.794   0.330  0.00  0.00    +0.202 C 
BRANCH  17  18
ATOM     18  N   UNL     1      -3.593  -5.093   0.427  0.00  0.00    -0.303 N 
ATOM     19  C   UNL     1      -4.934  -5.150   0.550  0.00  0.00    +0.237 C 
ATOM     20  O   UNL     1      -5.587  -4.123   0.581  0.00  0.00    -0.271 OA
ATOM     21  H   UNL     1      -3.073  -5.911   0.402  0.00  0.00    +0.149 HD
BRANCH  19  22
ATOM     22  C   UNL     1      -5.583  -6.405   0.643  0.00  0.00    +0.071 C 
ATOM     23  C   UNL     1      -6.932  -6.463   0.767  0.00  0.00    +0.051 C 
BRANCH  23  24
ATOM     24  C   UNL     1      -7.582  -7.718   0.860  0.00  0.00    +0.128 A 
ATOM     25  C   UNL     1      -8.940  -7.923   0.983  0.00  0.00    +0.049 A 
ATOM     26  C   UNL     1      -9.131  -9.312   1.040  0.00  0.00    +0.042 A 
ATOM     27  C   UNL     1      -7.911  -9.886   0.951  0.00  0.00    +0.195 A 
ATOM     28  O   UNL     1      -6.982  -8.926   0.838  0.00  0.00    -0.464 OA
ENDBRANCH  23  24
ENDBRANCH  19  22
ENDBRANCH  17  18
ENDBRANCH   2  17
TORSDOF 5
