REMARK  Name = ZINC67414837
REMARK  9 active torsions:
REMARK  status: ('A' for Active; 'I' for Inactive)
REMARK    1  A    between atoms: C_1  and  C_2
REMARK    2  A    between atoms: N_6  and  C_7
REMARK    3  A    between atoms: C_7  and  C_8
REMARK    4  A    between atoms: C_8  and  C_10
REMARK    5  A    between atoms: C_8  and  C_11
REMARK    6  A    between atoms: C_11  and  N_12
REMARK    7  A    between atoms: N_15  and  N_16
REMARK    8  A    between atoms: C_17  and  C_19
REMARK    9  A    between atoms: C_19  and  C_20
REMARK                            x       y       z     vdW  Elec       q    Type
REMARK                         _______ _______ _______ _____ _____    ______ ____
ROOT
ATOM      1  N   UNL     1      -3.249   0.112   4.689  0.00  0.00    -0.298 N 
ATOM      2  C   UNL     1      -3.646   0.457   5.930  0.00  0.00    +0.316 C 
ATOM      3  O   UNL     1      -2.830   0.852   6.741  0.00  0.00    -0.251 OA
ATOM      4  N   UNL     1      -4.946   0.365   6.272  0.00  0.00    -0.218 N 
ATOM      5  H   UNL     1      -3.900  -0.203   4.042  0.00  0.00    +0.150 HD
ATOM      6  H   UNL     1      -5.232   0.614   7.165  0.00  0.00    +0.174 HD
ENDROOT
BRANCH   4   7
ATOM      7  N   UNL     1      -5.886  -0.090   5.337  0.00  0.00    -0.233 N 
ATOM      8  C   UNL     1      -7.186  -0.182   5.679  0.00  0.00    +0.229 C 
ATOM      9  O   UNL     1      -7.543   0.129   6.796  0.00  0.00    -0.274 OA
ATOM     10  H   UNL     1      -5.600  -0.339   4.444  0.00  0.00    +0.173 HD
BRANCH   8  11
ATOM     11  C   UNL     1      -8.197  -0.671   4.674  0.00  0.00    +0.101 C 
BRANCH  11  12
ATOM     12  C   UNL     1      -9.587  -0.680   5.312  0.00  0.00    -0.002 C 
ATOM     13  C   UNL     1      -9.620  -1.703   6.449  0.00  0.00    +0.004 C 
ATOM     14  C   UNL     1     -11.011  -1.712   7.087  0.00  0.00    +0.000 C 
ATOM     15  C   UNL     1     -12.053  -2.089   6.033  0.00  0.00    +0.000 C 
ATOM     16  C   UNL     1     -12.020  -1.066   4.895  0.00  0.00    +0.000 C 
ATOM     17  C   UNL     1     -10.630  -1.057   4.257  0.00  0.00    +0.004 C 
ENDBRANCH  11  12
ENDBRANCH   8  11
ENDBRANCH   4   7
BRANCH   1  18
ATOM     18  C   UNL     1      -1.836   0.212   4.318  0.00  0.00    +0.110 C 
BRANCH  18  19
ATOM     19  C   UNL     1      -1.657  -0.237   2.866  0.00  0.00    +0.023 C 
ATOM     20  C   UNL     1      -2.389   0.734   1.938  0.00  0.00    +0.011 C 
BRANCH  19  21
ATOM     21  C   UNL     1      -0.167  -0.252   2.516  0.00  0.00    +0.127 C 
BRANCH  21  27
ATOM     22  C   UNL     1      -0.174  -3.260   1.775  0.00  0.00    +0.084 C 
ATOM     23  C   UNL     1       0.013  -2.104   0.827  0.00  0.00    +0.084 A 
ATOM     24  N   UNL     1       0.196  -2.200  -0.462  0.00  0.00    -0.350 N 
ATOM     25  C   UNL     1       0.323  -0.970  -0.982  0.00  0.00    +0.101 A 
ATOM     26  C   UNL     1       0.215  -0.079   0.022  0.00  0.00    +0.104 A 
ATOM     27  N   UNL     1       0.013  -0.798   1.169  0.00  0.00    -0.336 N 
ATOM     28  H   UNL     1       0.234  -3.029  -0.964  0.00  0.00    +0.166 HD
ENDBRANCH  21  27
ENDBRANCH  19  21
ENDBRANCH  18  19
ENDBRANCH   1  18
TORSDOF 7
