REMARK  Name = ZINC63213138
REMARK  4 active torsions:
REMARK  status: ('A' for Active; 'I' for Inactive)
REMARK    1  A    between atoms: C_3  and  S_8
REMARK    2  A    between atoms: S_8  and  N_11
REMARK    3  A    between atoms: N_11  and  C_12
REMARK    4  A    between atoms: C_19  and  N_21
REMARK                            x       y       z     vdW  Elec       q    Type
REMARK                         _______ _______ _______ _____ _____    ______ ____
ROOT
ATOM      1  N   UNL     1       4.327   2.556   1.555  0.00  0.00    -0.188 NA
ATOM      2  H   UNL     1       4.355   3.455   1.918  0.00  0.00    +0.148 HD
ENDROOT
BRANCH   1   3
ATOM      3  C   UNL     1       4.671   1.413   2.404  0.00  0.00    +0.062 C 
ATOM      4  C   UNL     1       3.408   0.959   3.162  0.00  0.00    +0.019 C 
ATOM      5  C   UNL     1       3.729   0.088   4.346  0.00  0.00    +0.001 C 
ATOM      6  C   UNL     1       3.814   0.981   5.601  0.00  0.00    -0.000 C 
ATOM      7  C   UNL     1       5.090   1.672   5.706  0.00  0.00    -0.002 C 
ATOM      8  C   UNL     1       5.339   2.629   4.522  0.00  0.00    -0.015 C 
ATOM      9  C   UNL     1       5.817   1.822   3.349  0.00  0.00    -0.056 C 
BRANCH   9  10
ATOM     10  N   UNL     1       6.794   2.618   2.594  0.00  0.00    +0.381 N 
ATOM     11  H   UNL     1       6.343   3.443   2.227  0.00  0.00    -0.090 HD
ATOM     12  H   UNL     1       7.549   2.891   3.204  0.00  0.00    -0.090 HD
ATOM     13  H   UNL     1       7.160   2.068   1.831  0.00  0.00    -0.090 HD
ENDBRANCH   9  10
ENDBRANCH   1   3
BRANCH   1  14
ATOM     14  S   UNL     1       3.891   2.314  -0.024  0.00  0.00    +0.059 S 
ATOM     15  O   UNL     1       4.872   1.456  -0.589  0.00  0.00    -0.153 OA
ATOM     16  O   UNL     1       3.596   3.595  -0.565  0.00  0.00    -0.153 OA
BRANCH  14  19
ATOM     17  C   UNL     1      -0.017   1.378   0.010  0.00  0.00    +0.003 A 
ATOM     18  C   UNL     1       1.171   2.086   0.002  0.00  0.00    +0.028 A 
ATOM     19  C   UNL     1       2.378   1.411  -0.013  0.00  0.00    +0.106 A 
ATOM     20  C   UNL     1       2.397   0.029  -0.022  0.00  0.00    +0.043 A 
ATOM     21  C   UNL     1       1.210  -0.679  -0.014  0.00  0.00    +0.020 A 
ATOM     22  C   UNL     1       0.002  -0.004   0.002  0.00  0.00    +0.015 A 
ATOM     23 BR   UNL     1       1.236  -2.570  -0.025  0.00  0.00    -0.050 Br
ENDBRANCH  14  19
ENDBRANCH   1  14
TORSDOF 4
