REMARK  Name = ZINC64044500
REMARK  4 active torsions:
REMARK  status: ('A' for Active; 'I' for Inactive)
REMARK    1  A    between atoms: C_1  and  C_2
REMARK    2  A    between atoms: C_2  and  C_3
REMARK    3  A    between atoms: C_6  and  C_9
REMARK    4  A    between atoms: C_11  and  C_14
REMARK                            x       y       z     vdW  Elec       q    Type
REMARK                         _______ _______ _______ _____ _____    ______ ____
ROOT
ATOM      1  C   UNL     1      -5.393  -1.994   0.043  0.00  0.00    +0.109 A 
ATOM      2  N   UNL     1      -6.176  -2.285  -0.984  0.00  0.00    -0.239 NA
ATOM      3  C   UNL     1      -7.394  -2.735  -0.750  0.00  0.00    +0.079 A 
ATOM      4  C   UNL     1      -7.798  -2.884   0.602  0.00  0.00    +0.075 A 
ATOM      5  S   UNL     1      -6.428  -2.384   1.442  0.00  0.00    -0.075 S 
ENDROOT
BRANCH   3   6
ATOM      6  C   UNL     1      -8.270  -3.059  -1.815  0.00  0.00    +0.003 A 
ATOM      7  C   UNL     1      -9.618  -3.551  -1.515  0.00  0.00    +0.012 A 
ATOM      8  C   UNL     1     -10.473  -3.867  -2.509  0.00  0.00    +0.026 A 
ATOM      9  C   UNL     1     -10.042  -3.715  -3.902  0.00  0.00    +0.056 A 
ATOM     10  N   UNL     1     -10.607  -3.927  -5.069  0.00  0.00    -0.268 N 
ATOM     11  C   UNL     1      -9.717  -3.605  -6.052  0.00  0.00    +0.308 C 
ATOM     12  O   UNL     1      -9.942  -3.693  -7.247  0.00  0.00    -0.252 OA
ATOM     13  N   UNL     1      -8.565  -3.182  -5.524  0.00  0.00    -0.268 N 
ATOM     14  C   UNL     1      -8.674  -3.216  -4.187  0.00  0.00    +0.057 A 
ATOM     15  C   UNL     1      -7.834  -2.900  -3.139  0.00  0.00    +0.035 A 
ATOM     16  H   UNL     1     -11.508  -4.257  -5.208  0.00  0.00    +0.156 HD
ATOM     17  H   UNL     1      -7.782  -2.898  -6.023  0.00  0.00    +0.156 HD
ENDBRANCH   3   6
BRANCH   1  21
ATOM     18  C   UNL     1      -1.412  -0.526   0.013  0.00  0.00    -0.048 A 
ATOM     19  C   UNL     1      -2.048  -0.765   1.219  0.00  0.00    +0.004 A 
ATOM     20  C   UNL     1      -3.341  -1.242   1.237  0.00  0.00    +0.011 A 
ATOM     21  C   UNL     1      -4.011  -1.484   0.032  0.00  0.00    +0.007 A 
ATOM     22  C   UNL     1      -3.361  -1.239  -1.183  0.00  0.00    +0.011 A 
ATOM     23  C   UNL     1      -2.069  -0.758  -1.184  0.00  0.00    +0.004 A 
BRANCH  18  25
ATOM     24  C   UNL     1      -0.019   1.526   0.010  0.00  0.00    +0.009 C 
ATOM     25  C   UNL     1       0.002  -0.004   0.002  0.00  0.00    +0.032 C 
ENDBRANCH  18  25
ENDBRANCH   1  21
TORSDOF 3
