REMARK  Name = ZINC20203437
REMARK  4 active torsions:
REMARK  status: ('A' for Active; 'I' for Inactive)
REMARK    1  A    between atoms: C_1  and  C_2
REMARK    2  A    between atoms: C_5  and  C_7
REMARK    3  A    between atoms: C_7  and  N_8
REMARK    4  A    between atoms: N_8  and  C_9
REMARK                            x       y       z     vdW  Elec       q    Type
REMARK                         _______ _______ _______ _____ _____    ______ ____
ROOT
ATOM      1  C   UNL     1      -2.356   2.139   7.258  0.00  0.00    -0.037 C 
ATOM      2  C   UNL     1      -2.064   0.970   8.207  0.00  0.00    -0.011 C 
ATOM      3  C   UNL     1      -2.560   1.316   9.614  0.00  0.00    +0.005 C 
ATOM      4  C   UNL     1      -4.094   1.324   9.628  0.00  0.00    +0.056 C 
ATOM      5  C   UNL     1      -4.576   2.171   8.477  0.00  0.00    +0.048 A 
ATOM      6  C   UNL     1      -3.802   2.535   7.423  0.00  0.00    -0.020 A 
ATOM      7  C   UNL     1      -4.580   3.312   6.566  0.00  0.00    +0.137 A 
ATOM      8  N   UNL     1      -5.781   3.414   7.080  0.00  0.00    -0.173 NA
ATOM      9  N   UNL     1      -5.805   2.701   8.289  0.00  0.00    -0.218 N 
ATOM     10  C   UNL     1      -6.903   2.563   9.144  0.00  0.00    +0.154 A 
ATOM     11  C   UNL     1      -7.905   3.526   9.138  0.00  0.00    +0.048 A 
ATOM     12  C   UNL     1      -8.986   3.378   9.989  0.00  0.00    +0.005 A 
ATOM     13  C   UNL     1      -9.026   2.267  10.821  0.00  0.00    +0.020 A 
ATOM     14  C   UNL     1      -7.995   1.350  10.774  0.00  0.00    +0.113 A 
ATOM     15  N   UNL     1      -6.980   1.515   9.948  0.00  0.00    -0.236 NA
ENDROOT
BRANCH   1  16
ATOM     16  N   UNL     1      -2.112   1.723   5.871  0.00  0.00    +0.387 N 
ATOM     17  H   UNL     1      -3.006   1.205   5.495  0.00  0.00    -0.085 HD
ATOM     18  H   UNL     1      -1.254   1.034   5.855  0.00  0.00    -0.085 HD
BRANCH  16  19
ATOM     19  C   UNL     1      -1.823   2.883   5.017  0.00  0.00    -0.037 C 
BRANCH  19  24
ATOM     20  C   UNL     1      -0.013   1.086   0.008  0.00  0.00    +0.073 C 
ATOM     21  C   UNL     1      -0.718   1.572   1.248  0.00  0.00    +0.075 A 
ATOM     22  N   UNL     1      -1.993   1.834   1.423  0.00  0.00    -0.252 NA
ATOM     23  C   UNL     1      -2.456   2.251   2.582  0.00  0.00    +0.120 A 
ATOM     24  C   UNL     1      -1.578   2.419   3.604  0.00  0.00    -0.007 A 
ATOM     25  S   UNL     1      -0.052   1.936   2.810  0.00  0.00    -0.079 S 
ENDBRANCH  19  24
ENDBRANCH  16  19
ENDBRANCH   1  16
TORSDOF 3
