REMARK  Name = ZINC34798073
REMARK  6 active torsions:
REMARK  status: ('A' for Active; 'I' for Inactive)
REMARK    1  A    between atoms: C_1  and  C_2
REMARK    2  A    between atoms: C_5  and  C_8
REMARK    3  A    between atoms: N_12  and  O_13
REMARK    4  A    between atoms: C_14  and  O_26
REMARK    5  A    between atoms: C_16  and  C_19
REMARK    6  A    between atoms: C_22  and  C_25
REMARK                            x       y       z     vdW  Elec       q    Type
REMARK                         _______ _______ _______ _____ _____    ______ ____
ROOT
ATOM      1  C   UNL     1      -0.025  -4.228  -0.008  0.00  0.00    -0.034 C 
ATOM      2  C   UNL     1       1.426  -4.671   0.212  0.00  0.00    +0.045 C 
ATOM      3  C   UNL     1       1.449  -6.182   0.316  0.00  0.00    +0.083 C 
ATOM      4  N   UNL     1       2.288  -6.879  -0.353  0.00  0.00    -0.094 NA
ATOM      5  C   UNL     1       0.445  -6.838   1.240  0.00  0.00    +0.152 C 
ATOM      6  C   UNL     1      -0.937  -6.242   0.947  0.00  0.00    -0.005 C 
ATOM      7  N   UNL     1      -0.872  -4.779   1.056  0.00  0.00    +0.390 N 
ATOM      8  H   UNL     1      -0.485  -4.529   1.954  0.00  0.00    -0.084 HD
ATOM      9  H   UNL     1      -1.802  -4.396   0.976  0.00  0.00    -0.084 HD
ENDROOT
BRANCH   1  14
ATOM     10  C   UNL     1      -0.320   1.542   0.091  0.00  0.00    +0.044 C 
ATOM     11  C   UNL     1      -0.243   0.037   0.066  0.00  0.00    -0.050 A 
ATOM     12  C   UNL     1      -0.226  -0.633  -1.143  0.00  0.00    +0.003 A 
ATOM     13  C   UNL     1      -0.155  -2.014  -1.167  0.00  0.00    +0.002 A 
ATOM     14  C   UNL     1      -0.101  -2.724   0.018  0.00  0.00    -0.061 A 
ATOM     15  C   UNL     1      -0.117  -2.053   1.226  0.00  0.00    +0.002 A 
ATOM     16  C   UNL     1      -0.183  -0.672   1.250  0.00  0.00    +0.003 A 
ENDBRANCH   1  14
BRANCH   6  17
ATOM     17  C   UNL     1      -1.362  -6.622  -0.448  0.00  0.00    -0.059 A 
ATOM     18  C   UNL     1      -0.811  -7.732  -1.061  0.00  0.00    +0.002 A 
ATOM     19  C   UNL     1      -1.201  -8.081  -2.340  0.00  0.00    +0.003 A 
ATOM     20  C   UNL     1      -2.143  -7.320  -3.007  0.00  0.00    -0.050 A 
ATOM     21  C   UNL     1      -2.696  -6.211  -2.394  0.00  0.00    +0.003 A 
ATOM     22  C   UNL     1      -2.308  -5.864  -1.113  0.00  0.00    +0.002 A 
ATOM     23  C   UNL     1      -2.568  -7.700  -4.402  0.00  0.00    +0.044 C 
ENDBRANCH   6  17
BRANCH   4  24
ATOM     24  O   UNL     1       2.288  -8.290  -0.237  0.00  0.00    -0.409 OA
ATOM     25  H   UNL     1       2.956  -8.729  -0.780  0.00  0.00    +0.328 HD
ENDBRANCH   4  24
BRANCH   5  26
ATOM     26  O   UNL     1       0.802  -6.583   2.600  0.00  0.00    -0.387 OA
ATOM     27  H   UNL     1       1.675  -6.918   2.846  0.00  0.00    +0.210 HD
ENDBRANCH   5  26
TORSDOF 4
