REMARK  Name = ZINC39674561
REMARK  9 active torsions:
REMARK  status: ('A' for Active; 'I' for Inactive)
REMARK    1  A    between atoms: C_1  and  C_2
REMARK    2  A    between atoms: C_7  and  C_8
REMARK    3  A    between atoms: C_8  and  C_9
REMARK    4  A    between atoms: C_13  and  C_22
REMARK    5  A    between atoms: N_24  and  C_25
REMARK    6  A    between atoms: C_25  and  C_27
REMARK    7  A    between atoms: C_25  and  C_28
REMARK    8  A    between atoms: C_29  and  C_35
REMARK    9  A    between atoms: C_32  and  C_34
REMARK                            x       y       z     vdW  Elec       q    Type
REMARK                         _______ _______ _______ _____ _____    ______ ____
ROOT
ATOM      1  C   UNL     1      -0.673   0.285   2.684  0.00  0.00    +0.220 C 
ATOM      2  O   UNL     1      -1.599  -0.136   2.022  0.00  0.00    -0.275 OA
ATOM      3  N   UNL     1      -0.906   0.865   3.877  0.00  0.00    -0.300 N 
ATOM      4  C   UNL     1       0.085   1.439   4.817  0.00  0.00    +0.121 C 
ATOM      5  C   UNL     1      -0.592   2.715   5.367  0.00  0.00    +0.100 C 
ATOM      6  C   UNL     1      -2.099   2.467   5.189  0.00  0.00    -0.004 C 
ATOM      7  C   UNL     1      -2.213   1.078   4.544  0.00  0.00    +0.115 C 
ATOM      8  C   UNL     1      -2.702   3.522   4.266  0.00  0.00    -0.010 C 
ATOM      9  C   UNL     1      -4.211   3.289   4.149  0.00  0.00    -0.082 C 
ATOM     10  N   UNL     1      -4.824   3.367   5.481  0.00  0.00    +0.379 N 
ATOM     11  C   UNL     1      -4.306   2.291   6.335  0.00  0.00    -0.082 C 
ATOM     12  C   UNL     1      -2.801   2.482   6.543  0.00  0.00    -0.010 C 
ATOM     13  H   UNL     1      -4.606   4.260   5.898  0.00  0.00    -0.086 HD
ATOM     14  H   UNL     1      -5.825   3.274   5.394  0.00  0.00    -0.086 HD
ENDROOT
BRANCH   5  15
ATOM     15  C   UNL     1      -0.158   3.921   4.576  0.00  0.00    +0.219 C 
ATOM     16  O   UNL     1       0.122   3.808   3.401  0.00  0.00    -0.275 OA
ATOM     17  N   UNL     1      -0.082   5.127   5.173  0.00  0.00    -0.309 N 
ATOM     18  H   UNL     1      -0.305   5.218   6.112  0.00  0.00    +0.149 HD
BRANCH  17  19
ATOM     19  C   UNL     1       0.340   6.301   4.403  0.00  0.00    +0.100 C 
ATOM     20  C   UNL     1      -0.861   6.872   3.646  0.00  0.00    +0.033 C 
BRANCH  19  21
ATOM     21  C   UNL     1       0.887   7.346   5.340  0.00  0.00    -0.001 C 
ATOM     22  C   UNL     1       2.106   7.890   5.345  0.00  0.00    +0.063 C 
ATOM     23  N   UNL     1       2.224   8.796   6.341  0.00  0.00    -0.159 NA
ATOM     24  N   UNL     1       1.209   8.937   7.028  0.00  0.00    -0.180 NA
ATOM     25  C   UNL     1       0.176   8.032   6.494  0.00  0.00    +0.154 C 
ATOM     26  C   UNL     1      -0.244   7.011   7.553  0.00  0.00    +0.039 C 
ATOM     27  C   UNL     1       3.202   7.540   4.372  0.00  0.00    +0.067 C 
ENDBRANCH  19  21
ENDBRANCH  17  19
ENDBRANCH   5  15
BRANCH   1  28
ATOM     28  C   UNL     1       0.738   0.158   2.170  0.00  0.00    +0.131 C 
BRANCH  28  35
ATOM     29  C   UNL     1       0.299   1.709  -0.228  0.00  0.00    +0.044 C 
ATOM     30  C   UNL     1       0.515   0.221  -0.322  0.00  0.00    -0.047 A 
ATOM     31  C   UNL     1       0.508  -0.402  -1.556  0.00  0.00    +0.003 A 
ATOM     32  C   UNL     1       0.705  -1.767  -1.643  0.00  0.00    +0.000 A 
ATOM     33  C   UNL     1       0.909  -2.510  -0.495  0.00  0.00    +0.000 A 
ATOM     34  C   UNL     1       0.917  -1.888   0.739  0.00  0.00    +0.004 A 
ATOM     35  C   UNL     1       0.724  -0.521   0.825  0.00  0.00    -0.036 A 
ENDBRANCH  28  35
ENDBRANCH   1  28
TORSDOF 5
