REMARK  Name = ZINC15800634
REMARK  5 active torsions:
REMARK  status: ('A' for Active; 'I' for Inactive)
REMARK    1  A    between atoms: C_1  and  O_2
REMARK    2  A    between atoms: O_2  and  C_3
REMARK    3  A    between atoms: C_5  and  C_12
REMARK    4  A    between atoms: C_8  and  O_9
REMARK    5  A    between atoms: O_9  and  C_10
REMARK                            x       y       z     vdW  Elec       q    Type
REMARK                         _______ _______ _______ _____ _____    ______ ____
ROOT
ATOM      1  C   UNL     1       4.343  -1.768   0.239  0.00  0.00    +0.164 A 
ATOM      2  C   UNL     1       4.057  -0.420   0.158  0.00  0.00    +0.057 A 
ATOM      3  C   UNL     1       2.726   0.006   0.072  0.00  0.00    -0.018 A 
ATOM      4  C   UNL     1       1.692  -0.937   0.075  0.00  0.00    +0.032 A 
ATOM      5  C   UNL     1       1.987  -2.282   0.151  0.00  0.00    +0.087 A 
ATOM      6  C   UNL     1       3.308  -2.703   0.235  0.00  0.00    +0.180 A 
ATOM      7 CL   UNL     1       0.704  -3.452   0.147  0.00  0.00    -0.080 Cl
ENDROOT
BRANCH   3   8
ATOM      8  C   UNL     1       2.415   1.439  -0.014  0.00  0.00    +0.036 C 
ATOM      9  C   UNL     1       1.247   1.848  -0.570  0.00  0.00    +0.096 C 
ATOM     10  C   UNL     1       0.698   3.213  -0.595  0.00  0.00    +0.264 C 
ATOM     11  O   UNL     1       1.203   4.212  -0.117  0.00  0.00    -0.268 OA
ATOM     12  N   UNL     1      -0.476   3.134  -1.253  0.00  0.00    -0.263 N 
ATOM     13  C   UNL     1      -0.698   1.867  -1.637  0.00  0.00    +0.141 C 
ATOM     14  S   UNL     1      -2.076   1.345  -2.507  0.00  0.00    -0.018 S 
ATOM     15  N   UNL     1       0.305   1.061  -1.244  0.00  0.00    -0.293 N 
ATOM     16  H   UNL     1      -1.069   3.881  -1.427  0.00  0.00    +0.157 HD
ATOM     17  H   UNL     1       0.366   0.106  -1.403  0.00  0.00    +0.154 HD
ENDBRANCH   3   8
BRANCH   1  19
ATOM     18  C   UNL     1       6.644  -1.174   0.320  0.00  0.00    +0.277 C 
ATOM     19  O   UNL     1       5.635  -2.185   0.322  0.00  0.00    -0.491 OA
ENDBRANCH   1  19
BRANCH   6  20
ATOM     20  O   UNL     1       3.593  -4.029   0.315  0.00  0.00    -0.490 OA
ATOM     21  C   UNL     1       3.668  -4.599   1.623  0.00  0.00    +0.277 C 
ENDBRANCH   6  20
TORSDOF 3
