REMARK  Name = ZINC65287563
REMARK  6 active torsions:
REMARK  status: ('A' for Active; 'I' for Inactive)
REMARK    1  A    between atoms: C_1  and  C_2
REMARK    2  A    between atoms: C_2  and  N_3
REMARK    3  A    between atoms: C_7  and  C_9
REMARK    4  A    between atoms: C_15  and  C_17
REMARK    5  A    between atoms: C_17  and  C_18
REMARK    6  A    between atoms: C_18  and  C_19
REMARK                            x       y       z     vdW  Elec       q    Type
REMARK                         _______ _______ _______ _____ _____    ______ ____
ROOT
ATOM      1  C   UNL     1       2.466  -2.222   1.147  0.00  0.00    +0.025 C 
ATOM      2  C   UNL     1       3.149  -1.519  -0.029  0.00  0.00    +0.025 C 
ATOM      3  C   UNL     1       4.659  -1.771   0.038  0.00  0.00    +0.108 C 
ATOM      4  N   UNL     1       4.895  -3.220   0.095  0.00  0.00    -0.301 N 
ATOM      5  C   UNL     1       4.214  -4.006   1.132  0.00  0.00    +0.108 C 
ATOM      6  C   UNL     1       2.709  -3.730   1.053  0.00  0.00    +0.025 C 
ATOM      7  C   UNL     1       5.720  -3.816  -0.788  0.00  0.00    +0.216 C 
ATOM      8  O   UNL     1       6.276  -3.156  -1.641  0.00  0.00    -0.276 OA
ENDROOT
BRANCH   1  13
ATOM      9  N   UNL     1       0.713  -0.491   1.192  0.00  0.00    -0.272 NA
ATOM     10  C   UNL     1      -0.096  -0.282   2.416  0.00  0.00    +0.185 C 
ATOM     11  N   UNL     1      -0.749  -1.596   2.651  0.00  0.00    -0.241 NA
ATOM     12  N   UNL     1       0.298  -2.559   2.274  0.00  0.00    -0.238 NA
ATOM     13  C   UNL     1       0.962  -1.944   1.102  0.00  0.00    +0.143 C 
ATOM     14  H   UNL     1      -1.007  -1.703   3.620  0.00  0.00    +0.142 HD
ATOM     15  H   UNL     1      -0.103  -3.454   2.035  0.00  0.00    +0.142 HD
BRANCH   9  17
ATOM     16  C   UNL     1      -0.019   1.526   0.010  0.00  0.00    +0.020 C 
ATOM     17  C   UNL     1       0.002  -0.004   0.002  0.00  0.00    +0.084 C 
ENDBRANCH   9  17
ENDBRANCH   1  13
BRANCH   7  18
ATOM     18  C   UNL     1       5.952  -5.303  -0.718  0.00  0.00    +0.100 C 
BRANCH  18  19
ATOM     19  C   UNL     1       6.921  -5.722  -1.824  0.00  0.00    +0.042 C 
BRANCH  19  20
ATOM     20  C   UNL     1       7.153  -7.209  -1.753  0.00  0.00    -0.041 C 
ATOM     21  C   UNL     1       6.510  -8.167  -2.459  0.00  0.00    -0.001 A 
ATOM     22  C   UNL     1       5.443  -8.113  -3.465  0.00  0.00    +0.010 A 
ATOM     23  C   UNL     1       4.993  -9.268  -4.007  0.00  0.00    +0.001 A 
ATOM     24  C   UNL     1       5.519 -10.512  -3.632  0.00  0.00    +0.002 A 
ATOM     25  C   UNL     1       6.501 -10.642  -2.715  0.00  0.00    +0.026 A 
ATOM     26  C   UNL     1       7.049  -9.493  -2.082  0.00  0.00    +0.043 A 
ATOM     27  N   UNL     1       7.989  -9.360  -1.177  0.00  0.00    -0.380 N 
ATOM     28  C   UNL     1       8.157  -7.933  -0.883  0.00  0.00    +0.144 C 
ATOM     29  H   UNL     1       8.492 -10.084  -0.773  0.00  0.00    +0.160 HD
ENDBRANCH  19  20
ENDBRANCH  18  19
ENDBRANCH   7  18
TORSDOF 5
