REMARK  Name = ZINC07493744
REMARK  9 active torsions:
REMARK  status: ('A' for Active; 'I' for Inactive)
REMARK    1  A    between atoms: C_1  and  C_2
REMARK    2  A    between atoms: C_2  and  C_4
REMARK    3  A    between atoms: C_2  and  N_54
REMARK    4  A    between atoms: N_9  and  C_10
REMARK    5  A    between atoms: C_11  and  N_54
REMARK    6  A    between atoms: C_12  and  C_13
REMARK    7  A    between atoms: C_12  and  N_54
REMARK    8  A    between atoms: N_15  and  C_16
REMARK    9  A    between atoms: C_19  and  N_22
REMARK                            x       y       z     vdW  Elec       q    Type
REMARK                         _______ _______ _______ _____ _____    ______ ____
ROOT
ATOM      1  C   UNL     1      -4.833   0.596  -0.287  0.00  0.00    +0.201 C 
ATOM      2  O   UNL     1      -4.598  -0.582  -0.121  0.00  0.00    -0.278 OA
ATOM      3  N   UNL     1      -6.060   0.990  -0.681  0.00  0.00    -0.287 N 
ATOM      4  H   UNL     1      -6.270   1.935  -0.740  0.00  0.00    +0.155 HD
ENDROOT
BRANCH   3   5
ATOM      5  C   UNL     1      -7.032   0.034  -1.006  0.00  0.00    +0.033 A 
ATOM      6  C   UNL     1      -6.656  -1.167  -1.593  0.00  0.00    +0.025 A 
ATOM      7  C   UNL     1      -7.613  -2.111  -1.907  0.00  0.00    +0.025 A 
ATOM      8  C   UNL     1      -8.953  -1.855  -1.647  0.00  0.00    +0.030 A 
ATOM      9  C   UNL     1      -9.330  -0.651  -1.065  0.00  0.00    +0.025 A 
ATOM     10  C   UNL     1      -8.372   0.291  -0.746  0.00  0.00    +0.025 A 
BRANCH   8  11
ATOM     11  N   UNL     1      -9.923  -2.809  -1.971  0.00  0.00    -0.326 N 
ATOM     12  C   UNL     1     -10.719  -3.173  -0.790  0.00  0.00    +0.133 C 
ATOM     13  C   UNL     1     -11.805  -4.172  -1.201  0.00  0.00    +0.178 C 
ATOM     14  O   UNL     1     -11.191  -5.310  -1.812  0.00  0.00    -0.377 OA
ATOM     15  C   UNL     1     -10.409  -4.992  -2.966  0.00  0.00    +0.178 C 
ATOM     16  C   UNL     1      -9.309  -4.001  -2.573  0.00  0.00    +0.133 C 
ENDBRANCH   8  11
ENDBRANCH   3   5
BRANCH   1  17
ATOM     17  C   UNL     1      -3.752   1.620  -0.052  0.00  0.00    +0.020 C 
BRANCH  17  19
ATOM     18  C   UNL     1      -2.688   0.306   1.681  0.00  0.00    -0.094 C 
ATOM     19  N   UNL     1      -2.513   0.921   0.348  0.00  0.00    +0.391 N 
ATOM     20  H   UNL     1      -2.310   0.183  -0.336  0.00  0.00    -0.080 HD
BRANCH  19  22
ATOM     21  C   UNL     1      -1.553   2.874   1.522  0.00  0.00    -0.004 C 
ATOM     22  C   UNL     1      -1.383   1.874   0.377  0.00  0.00    +0.017 C 
BRANCH  22  23
ATOM     23  C   UNL     1      -0.102   1.103   0.570  0.00  0.00    +0.207 C 
ATOM     24  O   UNL     1      -0.133  -0.103   0.688  0.00  0.00    -0.277 OA
ATOM     25  N   UNL     1       1.077   1.754   0.605  0.00  0.00    -0.242 N 
ATOM     26  C   UNL     1       2.223   1.064   0.772  0.00  0.00    +0.306 C 
ATOM     27  O   UNL     1       2.193  -0.145   0.891  0.00  0.00    -0.252 OA
ATOM     28  N   UNL     1       3.403   1.715   0.808  0.00  0.00    -0.302 N 
ATOM     29  C   UNL     1       4.648   0.966   0.989  0.00  0.00    +0.129 C 
ATOM     30  H   UNL     1       1.102   2.719   0.511  0.00  0.00    +0.159 HD
ATOM     31  H   UNL     1       3.427   2.680   0.713  0.00  0.00    +0.150 HD
ENDBRANCH  22  23
ENDBRANCH  19  22
ENDBRANCH  17  19
ENDBRANCH   1  17
TORSDOF 6
