REMARK  Name = ZINC35959193
REMARK  7 active torsions:
REMARK  status: ('A' for Active; 'I' for Inactive)
REMARK    1  A    between atoms: C_1  and  C_2
REMARK    2  A    between atoms: C_9  and  C_12
REMARK    3  A    between atoms: C_10  and  N_11
REMARK    4  A    between atoms: C_15  and  O_20
REMARK    5  A    between atoms: C_16  and  O_18
REMARK    6  A    between atoms: O_18  and  C_19
REMARK    7  A    between atoms: O_20  and  C_21
REMARK                            x       y       z     vdW  Elec       q    Type
REMARK                         _______ _______ _______ _____ _____    ______ ____
ROOT
ATOM      1  C   UNL     1      -0.018   1.503   0.010  0.00  0.00    +0.044 C 
ATOM      2  C   UNL     1       0.002  -0.004   0.002  0.00  0.00    -0.046 A 
ATOM      3  C   UNL     1       0.006  -0.703  -1.219  0.00  0.00    +0.021 A 
ATOM      4  C   UNL     1       0.024  -2.050  -1.232  0.00  0.00    +0.094 A 
ATOM      5  N   UNL     1       0.039  -2.759  -0.060  0.00  0.00    -0.289 N 
ATOM      6  C   UNL     1       0.036  -2.103   1.149  0.00  0.00    +0.117 A 
ATOM      7  C   UNL     1       0.022  -0.692   1.174  0.00  0.00    +0.048 A 
ATOM      8  N   UNL     1       0.053  -3.004   2.117  0.00  0.00    -0.338 N 
ATOM      9  C   UNL     1       0.067  -4.236   1.576  0.00  0.00    +0.087 A 
ATOM     10  C   UNL     1       0.059  -4.100   0.204  0.00  0.00    +0.126 A 
ATOM     11  H   UNL     1       0.054  -2.808   3.067  0.00  0.00    +0.167 HD
ENDROOT
BRANCH   9  12
ATOM     12  C   UNL     1       0.088  -5.516   2.324  0.00  0.00    +0.005 A 
ATOM     13  C   UNL     1       0.958  -6.535   1.940  0.00  0.00    +0.014 A 
ATOM     14  C   UNL     1       0.977  -7.726   2.637  0.00  0.00    +0.050 A 
ATOM     15  C   UNL     1       0.132  -7.912   3.720  0.00  0.00    +0.162 A 
ATOM     16  C   UNL     1      -0.739  -6.898   4.109  0.00  0.00    +0.162 A 
ATOM     17  C   UNL     1      -0.758  -5.699   3.417  0.00  0.00    +0.059 A 
BRANCH  16  18
ATOM     18  O   UNL     1      -1.567  -7.083   5.172  0.00  0.00    -0.491 OA
ATOM     19  C   UNL     1      -2.434  -6.000   5.515  0.00  0.00    +0.277 C 
ENDBRANCH  16  18
BRANCH  15  20
ATOM     20  O   UNL     1       0.153  -9.088   4.404  0.00  0.00    -0.491 OA
ATOM     21  C   UNL     1       1.071 -10.085   3.951  0.00  0.00    +0.277 C 
ENDBRANCH  15  20
ENDBRANCH   9  12
BRANCH  10  22
ATOM     22  N   UNL     1       0.068  -5.133  -0.734  0.00  0.00    -0.343 N 
ATOM     23  H   UNL     1       0.061  -4.928  -1.682  0.00  0.00    +0.144 HD
ATOM     24  H   UNL     1       0.081  -6.057  -0.439  0.00  0.00    +0.144 HD
ENDBRANCH  10  22
TORSDOF 4
