REMARK  Name = ZINC34785183
REMARK  8 active torsions:
REMARK  status: ('A' for Active; 'I' for Inactive)
REMARK    1  A    between atoms: C_1  and  C_2
REMARK    2  A    between atoms: C_7  and  N_8
REMARK    3  A    between atoms: C_9  and  C_11
REMARK    4  A    between atoms: C_11  and  N_12
REMARK    5  A    between atoms: N_20  and  C_21
REMARK    6  A    between atoms: C_22  and  C_32
REMARK    7  A    between atoms: C_28  and  C_30
REMARK    8  A    between atoms: C_28  and  C_31
REMARK                            x       y       z     vdW  Elec       q    Type
REMARK                         _______ _______ _______ _____ _____    ______ ____
ROOT
ATOM      1  N   UNL     1      -0.241  -0.913   5.989  0.00  0.00    +0.387 N 
ATOM      2  C   UNL     1       1.015  -1.670   6.068  0.00  0.00    -0.059 C 
ATOM      3  C   UNL     1       0.895  -2.746   7.152  0.00  0.00    +0.091 C 
ATOM      4  N   UNL     1       0.497  -2.096   8.411  0.00  0.00    -0.289 N 
ATOM      5  C   UNL     1      -0.659  -1.187   8.387  0.00  0.00    +0.091 C 
ATOM      6  C   UNL     1      -0.465  -0.185   7.244  0.00  0.00    -0.059 C 
ATOM      7  C   UNL     1       1.173  -2.328   9.554  0.00  0.00    +0.307 C 
ATOM      8  O   UNL     1       2.183  -3.006   9.536  0.00  0.00    -0.252 OA
ATOM      9  N   UNL     1       0.731  -1.808  10.716  0.00  0.00    -0.263 N 
ATOM     10  H   UNL     1      -0.032  -1.208  10.720  0.00  0.00    +0.157 HD
ATOM     11  H   UNL     1      -1.006  -1.551   5.831  0.00  0.00    -0.081 HD
ENDROOT
BRANCH   9  12
ATOM     12  C   UNL     1       1.364  -2.132  11.906  0.00  0.00    +0.086 A 
ATOM     13  C   UNL     1       1.047  -1.700  13.186  0.00  0.00    +0.069 A 
ATOM     14  C   UNL     1       1.873  -2.189  14.272  0.00  0.00    -0.018 A 
ATOM     15  C   UNL     1       2.867  -3.020  13.883  0.00  0.00    +0.021 A 
ATOM     16  S   UNL     1       2.689  -3.141  12.130  0.00  0.00    -0.075 S 
ATOM     17  C   UNL     1       3.870  -3.671  14.783  0.00  0.00    +0.203 C 
ATOM     18  O   UNL     1       3.802  -3.018  16.061  0.00  0.00    -0.368 OA
ATOM     19  C   UNL     1       2.472  -2.881  16.566  0.00  0.00    +0.068 C 
ATOM     20  C   UNL     1       1.698  -1.845  15.744  0.00  0.00    +0.071 C 
ATOM     21  C   UNL     1       2.528  -2.430  18.027  0.00  0.00    +0.041 C 
ATOM     22  C   UNL     1       1.756  -4.231  16.483  0.00  0.00    +0.041 C 
BRANCH  13  23
ATOM     23  C   UNL     1      -0.076  -0.789  13.429  0.00  0.00    +0.244 C 
ATOM     24  O   UNL     1      -1.186  -1.236  13.649  0.00  0.00    -0.270 OA
ATOM     25  N   UNL     1       0.122   0.544  13.410  0.00  0.00    -0.325 N 
ATOM     26  H   UNL     1       1.007   0.900  13.235  0.00  0.00    +0.145 HD
ATOM     27  H   UNL     1      -0.621   1.147  13.571  0.00  0.00    +0.145 HD
ENDBRANCH  13  23
ENDBRANCH   9  12
BRANCH   1  28
ATOM     28  C   UNL     1      -0.165   0.044   4.877  0.00  0.00    +0.019 C 
BRANCH  28  30
ATOM     29  N   UNL     1       0.025  -0.031   2.412  0.00  0.00    -0.287 N 
ATOM     30  C   UNL     1      -0.058  -0.707   3.575  0.00  0.00    +0.201 C 
ATOM     31  O   UNL     1      -0.046  -1.920   3.573  0.00  0.00    -0.278 OA
ATOM     32  H   UNL     1       0.082   0.937   2.417  0.00  0.00    +0.155 HD
BRANCH  29  39
ATOM     33  C   UNL     1      -1.264   1.166   0.175  0.00  0.00    +0.045 C 
ATOM     34  C   UNL     1      -0.590  -0.178   0.081  0.00  0.00    -0.029 A 
ATOM     35  C   UNL     1      -0.580  -0.864  -1.118  0.00  0.00    +0.005 A 
ATOM     36  C   UNL     1       0.039  -2.097  -1.206  0.00  0.00    +0.000 A 
ATOM     37  C   UNL     1       0.650  -2.648  -0.094  0.00  0.00    +0.002 A 
ATOM     38  C   UNL     1       0.644  -1.967   1.107  0.00  0.00    +0.023 A 
ATOM     39  C   UNL     1       0.028  -0.726   1.197  0.00  0.00    +0.036 A 
ENDBRANCH  29  39
ENDBRANCH  28  30
ENDBRANCH   1  28
TORSDOF 5
