REMARK  Name = ZINC41159508
REMARK  7 active torsions:
REMARK  status: ('A' for Active; 'I' for Inactive)
REMARK    1  A    between atoms: C_1  and  C_2
REMARK    2  A    between atoms: C_5  and  S_8
REMARK    3  A    between atoms: S_8  and  N_11
REMARK    4  A    between atoms: N_14  and  C_15
REMARK    5  A    between atoms: C_15  and  C_16
REMARK    6  A    between atoms: C_21  and  C_29
REMARK    7  A    between atoms: C_22  and  C_28
REMARK                            x       y       z     vdW  Elec       q    Type
REMARK                         _______ _______ _______ _____ _____    ______ ____
ROOT
ATOM      1  N   UNL     1       1.651  -4.999  -0.034  0.00  0.00    -0.072 NA
ATOM      2  C   UNL     1       1.956  -6.264  -0.043  0.00  0.00    +0.352 C 
ATOM      3  O   UNL     1       0.976  -7.195  -0.042  0.00  0.00    -0.246 OA
ATOM      4  N   UNL     1       3.273  -6.653  -0.052  0.00  0.00    -0.290 N 
ATOM      5  H   UNL     1       3.976  -5.985  -0.052  0.00  0.00    +0.151 HD
ENDROOT
BRANCH   1   6
ATOM      6  S   UNL     1       0.063  -4.530  -0.023  0.00  0.00    +0.103 S 
ATOM      7  O   UNL     1      -0.476  -4.950   1.223  0.00  0.00    -0.146 OA
ATOM      8  O   UNL     1      -0.490  -4.937  -1.267  0.00  0.00    -0.146 OA
BRANCH   6  13
ATOM      9  C   UNL     1      -0.018   1.503   0.010  0.00  0.00    +0.044 C 
ATOM     10  C   UNL     1       0.002  -0.004   0.002  0.00  0.00    -0.050 A 
ATOM     11  C   UNL     1       0.006  -0.689  -1.199  0.00  0.00    +0.005 A 
ATOM     12  C   UNL     1       0.025  -2.071  -1.206  0.00  0.00    +0.029 A 
ATOM     13  C   UNL     1       0.040  -2.768  -0.013  0.00  0.00    +0.113 A 
ATOM     14  C   UNL     1       0.037  -2.084   1.188  0.00  0.00    +0.029 A 
ATOM     15  C   UNL     1       0.023  -0.702   1.195  0.00  0.00    +0.005 A 
ENDBRANCH   6  13
ENDBRANCH   1   6
BRANCH   4  16
ATOM     16  C   UNL     1       3.616  -8.078  -0.062  0.00  0.00    +0.146 C 
BRANCH  16  17
ATOM     17  C   UNL     1       5.114  -8.233  -0.071  0.00  0.00    +0.035 A 
ATOM     18  C   UNL     1       5.782  -8.417   1.095  0.00  0.00    +0.020 A 
ATOM     19  C   UNL     1       7.238  -8.565   1.052  0.00  0.00    -0.001 A 
ATOM     20  C   UNL     1       7.980  -8.758   2.221  0.00  0.00    +0.010 A 
ATOM     21  C   UNL     1       9.338  -8.893   2.147  0.00  0.00    +0.004 A 
ATOM     22  C   UNL     1       9.987  -8.841   0.921  0.00  0.00    -0.046 A 
ATOM     23  C   UNL     1       9.275  -8.652  -0.244  0.00  0.00    -0.024 A 
ATOM     24  C   UNL     1       7.892  -8.512  -0.193  0.00  0.00    +0.052 A 
ATOM     25  N   UNL     1       7.155  -8.323  -1.343  0.00  0.00    -0.322 N 
ATOM     26  H   UNL     1       7.608  -8.287  -2.200  0.00  0.00    +0.169 HD
ATOM     27  C   UNL     1       5.818  -8.193  -1.294  0.00  0.00    +0.254 A 
ATOM     28  O   UNL     1       5.198  -8.032  -2.331  0.00  0.00    -0.268 OA
ATOM     29  C   UNL     1       9.993  -8.596  -1.568  0.00  0.00    +0.046 C 
ATOM     30  C   UNL     1      11.485  -8.992   0.864  0.00  0.00    +0.044 C 
ENDBRANCH  16  17
ENDBRANCH   4  16
TORSDOF 4
