REMARK  Name = ZINC39684041
REMARK  6 active torsions:
REMARK  status: ('A' for Active; 'I' for Inactive)
REMARK    1  A    between atoms: C_1  and  C_2
REMARK    2  A    between atoms: C_7  and  C_11
REMARK    3  A    between atoms: C_11  and  C_12
REMARK    4  A    between atoms: C_12  and  N_13
REMARK    5  A    between atoms: C_14  and  C_16
REMARK    6  A    between atoms: C_27  and  C_29
REMARK                            x       y       z     vdW  Elec       q    Type
REMARK                         _______ _______ _______ _____ _____    ______ ____
ROOT
ATOM      1  C   UNL     1      -8.678   1.968  -6.805  0.00  0.00    +0.100 C 
ATOM      2  C   UNL     1      -9.775   2.305  -5.770  0.00  0.00    +0.121 C 
ATOM      3  N   UNL     1     -11.021   1.753  -6.353  0.00  0.00    -0.296 N 
ATOM      4  C   UNL     1     -10.605   0.466  -6.960  0.00  0.00    +0.115 C 
ATOM      5  C   UNL     1      -9.226   0.760  -7.583  0.00  0.00    -0.004 C 
ATOM      6  C   UNL     1      -9.378   1.109  -9.061  0.00  0.00    -0.010 C 
ATOM      7  C   UNL     1      -9.871  -0.124  -9.823  0.00  0.00    -0.082 C 
ATOM      8  N   UNL     1      -8.911  -1.222  -9.655  0.00  0.00    +0.379 N 
ATOM      9  C   UNL     1      -8.839  -1.613  -8.242  0.00  0.00    -0.082 C 
ATOM     10  C   UNL     1      -8.303  -0.442  -7.413  0.00  0.00    -0.010 C 
ATOM     11  C   UNL     1     -12.254   2.298  -6.335  0.00  0.00    +0.248 C 
ATOM     12  O   UNL     1     -13.200   1.675  -6.776  0.00  0.00    -0.270 OA
ATOM     13  H   UNL     1      -9.206  -2.013 -10.207  0.00  0.00    -0.086 HD
ATOM     14  H   UNL     1      -7.999  -0.920  -9.965  0.00  0.00    -0.086 HD
ENDROOT
BRANCH  11  15
ATOM     15  C   UNL     1     -12.454   3.652  -5.779  0.00  0.00    +0.055 A 
ATOM     16  C   UNL     1     -11.703   4.079  -4.682  0.00  0.00    +0.014 A 
ATOM     17  C   UNL     1     -11.895   5.344  -4.168  0.00  0.00    +0.001 A 
ATOM     18  C   UNL     1     -12.831   6.191  -4.736  0.00  0.00    +0.001 A 
ATOM     19  C   UNL     1     -13.579   5.776  -5.822  0.00  0.00    +0.021 A 
ATOM     20  C   UNL     1     -13.393   4.514  -6.351  0.00  0.00    +0.053 A 
ATOM     21 CL   UNL     1     -14.328   3.997  -7.720  0.00  0.00    -0.083 Cl
ENDBRANCH  11  15
BRANCH   1  23
ATOM     22  N   UNL     1      -6.210   1.835  -6.708  0.00  0.00    -0.315 N 
ATOM     23  C   UNL     1      -7.393   1.603  -6.107  0.00  0.00    +0.218 C 
ATOM     24  O   UNL     1      -7.424   1.099  -5.004  0.00  0.00    -0.275 OA
ATOM     25  H   UNL     1      -6.185   2.238  -7.590  0.00  0.00    +0.149 HD
BRANCH  22  26
ATOM     26  C   UNL     1      -4.961   1.480  -6.030  0.00  0.00    +0.109 C 
BRANCH  26  27
ATOM     27  C   UNL     1      -3.774   1.846  -6.923  0.00  0.00    +0.056 C 
BRANCH  27  34
ATOM     28  C   UNL     1       1.410  -0.656  -4.435  0.00  0.00    +0.046 C 
ATOM     29  C   UNL     1       0.161  -0.787  -5.267  0.00  0.00    -0.027 A 
ATOM     30  C   UNL     1      -0.158  -1.994  -5.850  0.00  0.00    +0.005 A 
ATOM     31  C   UNL     1      -1.306  -2.128  -6.619  0.00  0.00    +0.001 A 
ATOM     32  C   UNL     1      -2.141  -1.063  -6.811  0.00  0.00    +0.010 A 
ATOM     33  C   UNL     1      -1.838   0.169  -6.228  0.00  0.00    +0.003 A 
ATOM     34  C   UNL     1      -2.489   1.481  -6.225  0.00  0.00    -0.021 A 
ATOM     35  C   UNL     1      -1.724   2.296  -5.482  0.00  0.00    +0.087 A 
ATOM     36  N   UNL     1      -0.636   1.614  -5.010  0.00  0.00    -0.360 N 
ATOM     37  C   UNL     1      -0.678   0.308  -5.444  0.00  0.00    +0.050 A 
ATOM     38  H   UNL     1       0.060   1.993  -4.450  0.00  0.00    +0.165 HD
ENDBRANCH  27  34
ENDBRANCH  26  27
ENDBRANCH  22  26
ENDBRANCH   1  23
TORSDOF 5
