REMARK  Name = ZINC39734910
REMARK  3 active torsions:
REMARK  status: ('A' for Active; 'I' for Inactive)
REMARK    1  A    between atoms: N_10  and  C_13
REMARK    2  A    between atoms: C_13  and  C_14
REMARK    3  A    between atoms: C_14  and  C_16
REMARK                            x       y       z     vdW  Elec       q    Type
REMARK                         _______ _______ _______ _____ _____    ______ ____
ROOT
ATOM      1  C   UNL     1      -0.019   1.541   0.011  0.00  0.00    +0.010 C 
ATOM      2  C   UNL     1       1.486   1.875  -0.002  0.00  0.00    +0.037 C 
ATOM      3  C   UNL     1       2.177   0.671   0.635  0.00  0.00    -0.023 A 
ATOM      4  C   UNL     1       1.323  -0.370   0.621  0.00  0.00    -0.004 A 
ATOM      5  S   UNL     1       2.223  -1.705   1.375  0.00  0.00    -0.078 S 
ATOM      6  C   UNL     1       3.652  -0.930   1.700  0.00  0.00    +0.079 A 
ATOM      7  C   UNL     1       3.479   0.376   1.231  0.00  0.00    +0.068 A 
ATOM      8  C   UNL     1       4.605   1.325   1.387  0.00  0.00    +0.251 C 
ATOM      9  O   UNL     1       4.482   2.505   1.117  0.00  0.00    -0.270 OA
ATOM     10  N   UNL     1       5.773   0.824   1.843  0.00  0.00    -0.274 N 
ATOM     11  C   UNL     1       6.041  -0.606   1.960  0.00  0.00    +0.214 C 
ATOM     12  N   UNL     1       4.816  -1.355   2.294  0.00  0.00    -0.322 N 
ATOM     13  C   UNL     1       0.002  -0.004   0.002  0.00  0.00    +0.043 C 
ATOM     14  H   UNL     1       4.832  -2.110   2.903  0.00  0.00    +0.148 HD
ENDROOT
BRANCH  10  15
ATOM     15  C   UNL     1       6.824   1.764   2.240  0.00  0.00    +0.190 C 
BRANCH  15  16
ATOM     16  C   UNL     1       6.673   2.099   3.701  0.00  0.00    +0.195 C 
ATOM     17  O   UNL     1       5.775   1.602   4.348  0.00  0.00    -0.289 OA
BRANCH  16  18
ATOM     18  C   UNL     1       7.610   3.025   4.340  0.00  0.00    +0.089 C 
ATOM     19  N   UNL     1       8.613   3.637   3.778  0.00  0.00    -0.256 NA
ATOM     20  C   UNL     1       9.296   4.424   4.613  0.00  0.00    +0.107 C 
ATOM     21  C   UNL     1       8.795   4.410   5.854  0.00  0.00    -0.001 C 
ATOM     22  C   UNL     1       7.605   3.470   5.790  0.00  0.00    +0.087 C 
ENDBRANCH  16  18
ENDBRANCH  15  16
ENDBRANCH  10  15
TORSDOF 3
