REMARK  Name = ZINC54131782
REMARK  10 active torsions:
REMARK  status: ('A' for Active; 'I' for Inactive)
REMARK    1  A    between atoms: C_1  and  C_2
REMARK    2  A    between atoms: C_2  and  N_3
REMARK    3  A    between atoms: N_3  and  C_4
REMARK    4  A    between atoms: N_3  and  C_5
REMARK    5  A    between atoms: C_5  and  C_6
REMARK    6  A    between atoms: C_6  and  N_7
REMARK    7  A    between atoms: N_7  and  S_8
REMARK    8  A    between atoms: S_8  and  C_11
REMARK    9  A    between atoms: C_14  and  N_18
REMARK   10  A    between atoms: C_16  and  N_17
REMARK                            x       y       z     vdW  Elec       q    Type
REMARK                         _______ _______ _______ _____ _____    ______ ____
ROOT
ATOM      1  S   UNL     1       2.159  -4.775  -3.705  0.00  0.00    +0.060 S 
ATOM      2  O   UNL     1       2.113  -6.179  -3.488  0.00  0.00    -0.153 OA
ATOM      3  O   UNL     1       1.367  -4.131  -4.693  0.00  0.00    -0.153 OA
ENDROOT
BRANCH   1   4
ATOM      4  C   UNL     1       3.837  -4.377  -4.067  0.00  0.00    +0.126 A 
ATOM      5  C   UNL     1       4.142  -3.608  -5.174  0.00  0.00    +0.032 A 
ATOM      6  C   UNL     1       5.458  -3.295  -5.458  0.00  0.00    +0.035 A 
ATOM      7  C   UNL     1       6.474  -3.750  -4.637  0.00  0.00    +0.128 A 
ATOM      8  C   UNL     1       6.176  -4.519  -3.529  0.00  0.00    +0.057 A 
ATOM      9  C   UNL     1       4.854  -4.831  -3.237  0.00  0.00    +0.053 A 
BRANCH   9  10
ATOM     10  N   UNL     1       4.548  -5.603  -2.114  0.00  0.00    -0.356 N 
ATOM     11  H   UNL     1       3.623  -5.748  -1.862  0.00  0.00    +0.142 HD
ATOM     12  H   UNL     1       5.262  -5.995  -1.587  0.00  0.00    +0.142 HD
ENDBRANCH   9  10
BRANCH   7  13
ATOM     13  N   UNL     1       7.881  -3.413  -4.946  0.00  0.00    +0.056 N 
ATOM     14  O   UNL     1       8.143  -2.740  -5.915  0.00  0.00    -0.126 OA
ATOM     15  O   UNL     1       8.770  -3.811  -4.228  0.00  0.00    -0.126 OA
ENDBRANCH   7  13
ENDBRANCH   1   4
BRANCH   1  16
ATOM     16  N   UNL     1       1.787  -4.059  -2.259  0.00  0.00    -0.192 NA
ATOM     17  H   UNL     1       1.573  -4.607  -1.488  0.00  0.00    +0.148 HD
BRANCH  16  18
ATOM     18  C   UNL     1       1.780  -2.599  -2.145  0.00  0.00    +0.087 C 
BRANCH  18  19
ATOM     19  C   UNL     1       1.052  -2.191  -0.863  0.00  0.00    -0.062 C 
BRANCH  19  20
ATOM     20  N   UNL     1       1.045  -0.726  -0.749  0.00  0.00    +0.379 N 
ATOM     21  C   UNL     1       0.253  -0.153  -1.845  0.00  0.00    -0.096 C 
ATOM     22  H   UNL     1       1.992  -0.380  -0.801  0.00  0.00    -0.082 HD
BRANCH  20  24
ATOM     23  C   UNL     1       0.559   1.178   0.712  0.00  0.00    -0.017 C 
ATOM     24  C   UNL     1       0.453  -0.338   0.538  0.00  0.00    -0.083 C 
ENDBRANCH  20  24
ENDBRANCH  19  20
ENDBRANCH  18  19
ENDBRANCH  16  18
ENDBRANCH   1  16
TORSDOF 8
