REMARK  Name = ZINC12835059
REMARK  10 active torsions:
REMARK  status: ('A' for Active; 'I' for Inactive)
REMARK    1  A    between atoms: C_1  and  C_2
REMARK    2  A    between atoms: C_2  and  C_26
REMARK    3  A    between atoms: C_8  and  C_9
REMARK    4  A    between atoms: C_8  and  N_57
REMARK    5  A    between atoms: C_14  and  O_15
REMARK    6  A    between atoms: O_15  and  C_16
REMARK    7  A    between atoms: C_16  and  C_17
REMARK    8  A    between atoms: C_17  and  C_19
REMARK    9  A    between atoms: C_17  and  O_25
REMARK   10  A    between atoms: C_19  and  N_59
REMARK                            x       y       z     vdW  Elec       q    Type
REMARK                         _______ _______ _______ _____ _____    ______ ____
ROOT
ATOM      1  C   UNL     1       0.001   1.452  -4.693  0.00  0.00    -0.022 A 
ATOM      2  C   UNL     1      -0.366   1.811  -5.975  0.00  0.00    +0.005 A 
ATOM      3  C   UNL     1      -1.669   2.187  -6.243  0.00  0.00    +0.000 A 
ATOM      4  C   UNL     1      -2.609   2.204  -5.228  0.00  0.00    +0.004 A 
ATOM      5  C   UNL     1      -2.248   1.840  -3.945  0.00  0.00    +0.046 A 
ATOM      6  C   UNL     1      -0.939   1.468  -3.673  0.00  0.00    +0.122 A 
ENDROOT
BRANCH   1   7
ATOM      7  C   UNL     1       1.422   1.043  -4.402  0.00  0.00    -0.038 C 
BRANCH   7  17
ATOM      8  C   UNL     1       3.687  -0.334  -5.670  0.00  0.00    -0.000 C 
ATOM      9  C   UNL     1       2.946  -0.838  -4.430  0.00  0.00    +0.007 C 
ATOM     10  C   UNL     1       3.032  -2.337  -4.373  0.00  0.00    +0.202 C 
ATOM     11  O   UNL     1       4.092  -2.869  -4.629  0.00  0.00    -0.277 OA
ATOM     12  N   UNL     1       1.990  -3.110  -4.051  0.00  0.00    -0.318 N 
ATOM     13  C   UNL     1       0.664  -2.572  -3.760  0.00  0.00    +0.085 C 
ATOM     14  C   UNL     1       0.762  -1.080  -3.438  0.00  0.00    -0.058 C 
ATOM     15  C   UNL     1       3.595  -0.244  -3.177  0.00  0.00    -0.000 C 
ATOM     16  H   UNL     1       2.120  -4.070  -4.009  0.00  0.00    +0.149 HD
ATOM     17  N   UNL     1       1.532  -0.429  -4.516  0.00  0.00    +0.393 N 
ATOM     18  H   UNL     1       1.153  -0.723  -5.424  0.00  0.00    -0.080 HD
ENDBRANCH   7  17
ENDBRANCH   1   7
BRANCH   6  19
ATOM     19  O   UNL     1      -0.580   1.115  -2.411  0.00  0.00    -0.489 OA
BRANCH  19  20
ATOM     20  C   UNL     1      -1.569   1.262  -1.390  0.00  0.00    +0.258 C 
BRANCH  20  21
ATOM     21  C   UNL     1      -0.951   0.932  -0.030  0.00  0.00    +0.135 C 
BRANCH  21  22
ATOM     22  O   UNL     1      -0.589  -0.449   0.007  0.00  0.00    -0.390 OA
ATOM     23  H   UNL     1      -1.332  -1.054  -0.122  0.00  0.00    +0.210 HD
ENDBRANCH  21  22
BRANCH  21  24
ATOM     24  C   UNL     1      -1.967   1.223   1.076  0.00  0.00    -0.044 C 
BRANCH  24  30
ATOM     25  C   UNL     1      -2.359   0.727   3.410  0.00  0.00    -0.068 C 
ATOM     26  C   UNL     1      -1.710   0.050   4.622  0.00  0.00    +0.050 C 
ATOM     27  S   UNL     1      -0.466   1.183   5.314  0.00  0.00    -0.164 S 
ATOM     28  C   UNL     1       0.512   1.646   3.850  0.00  0.00    +0.050 C 
ATOM     29  C   UNL     1      -0.454   2.096   2.747  0.00  0.00    -0.068 C 
ATOM     30  N   UNL     1      -1.326   0.957   2.376  0.00  0.00    +0.382 N 
ATOM     31  H   UNL     1      -0.748   0.113   2.295  0.00  0.00    -0.082 HD
ENDBRANCH  24  30
ENDBRANCH  21  24
ENDBRANCH  20  21
ENDBRANCH  19  20
ENDBRANCH   6  19
TORSDOF 8
