REMARK  Name = ZINC55006398
REMARK  5 active torsions:
REMARK  status: ('A' for Active; 'I' for Inactive)
REMARK    1  A    between atoms: C_1  and  C_2
REMARK    2  A    between atoms: C_2  and  C_4
REMARK    3  A    between atoms: C_2  and  N_19
REMARK    4  A    between atoms: C_4  and  N_5
REMARK    5  A    between atoms: N_5  and  C_6
REMARK                            x       y       z     vdW  Elec       q    Type
REMARK                         _______ _______ _______ _____ _____    ______ ____
ROOT
ATOM      1  C   UNL     1      -1.998  -3.079   0.189  0.00  0.00    +0.081 C 
ATOM      2  C   UNL     1      -1.716  -4.411   0.399  0.00  0.00    +0.058 C 
ATOM      3  C   UNL     1      -0.418  -4.987  -0.010  0.00  0.00    +0.000 A 
ATOM      4  C   UNL     1       0.565  -4.216  -0.620  0.00  0.00    +0.009 A 
ATOM      5  C   UNL     1       1.761  -4.801  -0.984  0.00  0.00    +0.001 A 
ATOM      6  C   UNL     1       1.988  -6.149  -0.746  0.00  0.00    +0.001 A 
ATOM      7  C   UNL     1       1.025  -6.929  -0.143  0.00  0.00    +0.013 A 
ATOM      8  C   UNL     1      -0.191  -6.357   0.233  0.00  0.00    +0.045 A 
ATOM      9  C   UNL     1      -1.243  -7.153   0.879  0.00  0.00    +0.251 C 
ATOM     10  O   UNL     1      -1.053  -8.335   1.092  0.00  0.00    -0.270 OA
ATOM     11  N   UNL     1      -2.411  -6.597   1.239  0.00  0.00    -0.248 N 
ATOM     12  C   UNL     1      -2.692  -5.298   1.042  0.00  0.00    +0.252 C 
ATOM     13  O   UNL     1      -3.769  -4.854   1.395  0.00  0.00    -0.270 OA
ATOM     14  H   UNL     1      -3.080  -7.157   1.663  0.00  0.00    +0.158 HD
ENDROOT
BRANCH   1  15
ATOM     15  N   UNL     1      -0.989  -2.171   0.138  0.00  0.00    -0.351 N 
ATOM     16  H   UNL     1      -0.084  -2.438   0.360  0.00  0.00    +0.145 HD
BRANCH  15  17
ATOM     17  C   UNL     1      -1.269  -0.787  -0.253  0.00  0.00    +0.085 C 
BRANCH  17  19
ATOM     18  C   UNL     1      -0.292   1.499  -0.507  0.00  0.00    -0.012 C 
ATOM     19  C   UNL     1       0.002   0.052  -0.104  0.00  0.00    -0.054 C 
BRANCH  19  20
ATOM     20  N   UNL     1       0.452   0.015   1.294  0.00  0.00    +0.382 N 
ATOM     21  C   UNL     1      -0.582   0.641   2.141  0.00  0.00    -0.078 C 
ATOM     22  C   UNL     1      -0.445   0.091   3.539  0.00  0.00    -0.019 C 
ATOM     23  C   UNL     1       0.396   1.023   4.431  0.00  0.00    -0.002 C 
ATOM     24  C   UNL     1       1.611   1.596   3.674  0.00  0.00    -0.002 C 
ATOM     25  C   UNL     1       2.285   0.566   2.804  0.00  0.00    -0.019 C 
ATOM     26  C   UNL     1       1.695   0.645   1.381  0.00  0.00    -0.078 C 
ATOM     27  H   UNL     1       0.557  -0.949   1.573  0.00  0.00    -0.081 HD
ENDBRANCH  19  20
ENDBRANCH  17  19
ENDBRANCH  15  17
ENDBRANCH   1  15
TORSDOF 4
