REMARK  Name = ZINC36186171
REMARK  8 active torsions:
REMARK  status: ('A' for Active; 'I' for Inactive)
REMARK    1  A    between atoms: C_1  and  C_2
REMARK    2  A    between atoms: C_7  and  N_12
REMARK    3  A    between atoms: C_9  and  C_11
REMARK    4  A    between atoms: C_13  and  C_15
REMARK    5  A    between atoms: C_23  and  C_27
REMARK    6  A    between atoms: N_29  and  C_30
REMARK    7  A    between atoms: C_30  and  C_31
REMARK    8  A    between atoms: C_30  and  C_32
REMARK                            x       y       z     vdW  Elec       q    Type
REMARK                         _______ _______ _______ _____ _____    ______ ____
ROOT
ATOM      1  C   UNL     1       2.772  -4.230   3.605  0.00  0.00    +0.039 A 
ATOM      2  C   UNL     1       2.834  -3.433   4.752  0.00  0.00    +0.014 A 
ATOM      3  C   UNL     1       3.491  -3.872   5.867  0.00  0.00    +0.016 A 
ATOM      4  C   UNL     1       4.105  -5.126   5.857  0.00  0.00    +0.065 A 
ATOM      5  C   UNL     1       4.048  -5.932   4.714  0.00  0.00    +0.063 A 
ATOM      6  C   UNL     1       3.376  -5.487   3.586  0.00  0.00    +0.040 A 
ATOM      7  N   UNL     1       4.670  -7.194   4.715  0.00  0.00    -0.281 N 
ATOM      8  C   UNL     1       5.320  -7.605   5.846  0.00  0.00    +0.162 A 
ATOM      9  C   UNL     1       5.917  -8.880   5.767  0.00  0.00    +0.119 A 
ATOM     10  S   UNL     1       5.508  -9.382   4.111  0.00  0.00    -0.055 S 
ATOM     11  C   UNL     1       4.651  -8.026   3.635  0.00  0.00    +0.132 A 
ATOM     12  S   UNL     1       3.911  -7.743   2.117  0.00  0.00    -0.024 S 
ATOM     13  N   UNL     1       5.375  -6.827   6.954  0.00  0.00    -0.189 NA
ATOM     14  C   UNL     1       4.824  -5.643   7.032  0.00  0.00    +0.281 A 
ATOM     15  O   UNL     1       4.913  -4.911   8.165  0.00  0.00    -0.265 OA
ENDROOT
BRANCH   1  17
ATOM     16  N   UNL     1       1.471  -2.526   2.420  0.00  0.00    -0.308 N 
ATOM     17  C   UNL     1       2.056  -3.740   2.406  0.00  0.00    +0.244 C 
ATOM     18  O   UNL     1       1.996  -4.432   1.409  0.00  0.00    -0.270 OA
ATOM     19  H   UNL     1       1.520  -1.974   3.216  0.00  0.00    +0.149 HD
BRANCH  16  25
ATOM     20  C   UNL     1      -0.019   1.526   0.010  0.00  0.00    +0.008 C 
ATOM     21  C   UNL     1       0.002  -0.004   0.002  0.00  0.00    -0.009 C 
ATOM     22  C   UNL     1      -1.433  -0.534   0.013  0.00  0.00    +0.003 C 
ATOM     23  C   UNL     1      -1.413  -2.063   0.004  0.00  0.00    +0.002 C 
ATOM     24  C   UNL     1      -0.673  -2.570   1.244  0.00  0.00    +0.022 C 
ATOM     25  C   UNL     1       0.763  -2.041   1.233  0.00  0.00    +0.076 C 
ATOM     26  C   UNL     1       0.742  -0.511   1.242  0.00  0.00    +0.009 C 
ATOM     27  C   UNL     1       0.026  -0.018   2.500  0.00  0.00    +0.009 C 
ENDBRANCH  16  25
ENDBRANCH   1  17
BRANCH   9  28
ATOM     28  C   UNL     1       6.649  -9.577   6.749  0.00  0.00    +0.255 C 
ATOM     29  O   UNL     1       6.835  -9.073   7.843  0.00  0.00    -0.269 OA
ATOM     30  N   UNL     1       7.145 -10.800   6.478  0.00  0.00    -0.308 N 
ATOM     31  H   UNL     1       6.997 -11.201   5.607  0.00  0.00    +0.149 HD
BRANCH  30  32
ATOM     32  C   UNL     1       7.907 -11.525   7.498  0.00  0.00    +0.067 C 
ATOM     33  C   UNL     1       6.942 -12.280   8.415  0.00  0.00    +0.027 C 
ATOM     34  C   UNL     1       8.849 -12.521   6.820  0.00  0.00    +0.027 C 
ENDBRANCH  30  32
ENDBRANCH   9  28
TORSDOF 4
