REMARK  Name = ZINC45694683
REMARK  6 active torsions:
REMARK  status: ('A' for Active; 'I' for Inactive)
REMARK    1  A    between atoms: C_1  and  C_2
REMARK    2  A    between atoms: C_2  and  C_3
REMARK    3  A    between atoms: N_15  and  C_16
REMARK    4  A    between atoms: C_21  and  S_22
REMARK    5  A    between atoms: S_22  and  C_23
REMARK    6  A    between atoms: C_23  and  C_24
REMARK                            x       y       z     vdW  Elec       q    Type
REMARK                         _______ _______ _______ _____ _____    ______ ____
ROOT
ATOM      1  C   UNL     1      -1.681  -0.880   2.490  0.00  0.00    +0.108 C 
ATOM      2  C   UNL     1      -0.176  -0.928   2.750  0.00  0.00    -0.017 A 
ATOM      3  C   UNL     1       0.382  -1.463   3.909  0.00  0.00    +0.013 A 
ATOM      4  C   UNL     1       1.725  -1.476   4.070  0.00  0.00    +0.046 A 
ATOM      5  S   UNL     1       2.284  -0.712   2.555  0.00  0.00    -0.101 S 
ATOM      6  C   UNL     1       0.692  -0.433   1.826  0.00  0.00    -0.004 A 
ATOM      7  C   UNL     1       0.371   0.200   0.511  0.00  0.00    +0.062 C 
ATOM      8  C   UNL     1      -1.082  -0.140   0.143  0.00  0.00    +0.115 C 
ATOM      9  N   UNL     1      -1.913   0.013   1.347  0.00  0.00    -0.278 N 
ATOM     10  C   UNL     1      -2.872   0.959   1.403  0.00  0.00    +0.307 C 
ATOM     11  O   UNL     1      -2.995   1.753   0.491  0.00  0.00    -0.252 OA
ATOM     12  N   UNL     1      -3.693   1.024   2.469  0.00  0.00    -0.268 N 
ATOM     13  H   UNL     1      -3.554   0.432   3.225  0.00  0.00    +0.156 HD
ENDROOT
BRANCH  12  14
ATOM     14  C   UNL     1      -4.750   1.945   2.485  0.00  0.00    +0.048 A 
ATOM     15  C   UNL     1      -5.186   2.523   1.302  0.00  0.00    +0.024 A 
ATOM     16  C   UNL     1      -6.228   3.432   1.320  0.00  0.00    +0.002 A 
ATOM     17  C   UNL     1      -6.837   3.769   2.515  0.00  0.00    +0.001 A 
ATOM     18  C   UNL     1      -6.409   3.198   3.699  0.00  0.00    +0.016 A 
ATOM     19  C   UNL     1      -5.368   2.280   3.690  0.00  0.00    +0.030 A 
BRANCH  19  20
ATOM     20  S   UNL     1      -4.824   1.545   5.196  0.00  0.00    -0.114 S 
BRANCH  20  21
ATOM     21  C   UNL     1      -5.906   2.276   6.456  0.00  0.00    +0.169 C 
BRANCH  21  22
ATOM     22  C   UNL     1      -5.542   1.724   7.811  0.00  0.00    +0.221 C 
ATOM     23  O   UNL     1      -4.643   0.918   7.916  0.00  0.00    -0.275 OA
ATOM     24  N   UNL     1      -6.217   2.127   8.905  0.00  0.00    -0.329 N 
ATOM     25  H   UNL     1      -6.937   2.772   8.821  0.00  0.00    +0.145 HD
ATOM     26  H   UNL     1      -5.983   1.773   9.777  0.00  0.00    +0.145 HD
ENDBRANCH  21  22
ENDBRANCH  20  21
ENDBRANCH  19  20
ENDBRANCH  12  14
BRANCH   1  28
ATOM     27  C   UNL     1      -3.716  -2.247   2.008  0.00  0.00    +0.006 C 
ATOM     28  C   UNL     1      -2.195  -2.284   2.163  0.00  0.00    +0.024 C 
ENDBRANCH   1  28
TORSDOF 5
