REMARK  Name = ZINC35392093
REMARK  8 active torsions:
REMARK  status: ('A' for Active; 'I' for Inactive)
REMARK    1  A    between atoms: C_1  and  N_2
REMARK    2  A    between atoms: N_2  and  C_3
REMARK    3  A    between atoms: N_2  and  C_4
REMARK    4  A    between atoms: C_4  and  C_5
REMARK    5  A    between atoms: C_5  and  C_6
REMARK    6  A    between atoms: C_6  and  N_7
REMARK    7  A    between atoms: C_14  and  C_24
REMARK    8  A    between atoms: C_19  and  O_23
REMARK                            x       y       z     vdW  Elec       q    Type
REMARK                         _______ _______ _______ _____ _____    ______ ____
ROOT
ATOM      1  N   UNL     1      -2.777  -4.025  -0.239  0.00  0.00    -0.320 N 
ATOM      2  C   UNL     1      -2.909  -4.576  -1.429  0.00  0.00    +0.204 A 
ATOM      3  N   UNL     1      -2.901  -5.882  -1.598  0.00  0.00    -0.203 NA
ATOM      4  C   UNL     1      -2.756  -6.705  -0.560  0.00  0.00    +0.229 A 
ATOM      5  C   UNL     1      -2.614  -6.166   0.707  0.00  0.00    +0.064 A 
ATOM      6  C   UNL     1      -2.623  -4.780   0.847  0.00  0.00    +0.107 A 
ATOM      7  N   UNL     1      -2.478  -4.197   2.096  0.00  0.00    -0.344 N 
ATOM      8  C   UNL     1      -2.446  -7.046   1.911  0.00  0.00    +0.091 C 
ATOM      9  C   UNL     1      -2.865  -8.457   1.594  0.00  0.00    +0.007 A 
ATOM     10  C   UNL     1      -3.120  -9.336   2.633  0.00  0.00    +0.012 A 
ATOM     11  C   UNL     1      -3.504 -10.635   2.367  0.00  0.00    +0.046 A 
ATOM     12  C   UNL     1      -3.637 -11.065   1.054  0.00  0.00    +0.120 A 
ATOM     13  C   UNL     1      -3.383 -10.187   0.013  0.00  0.00    +0.092 A 
ATOM     14  C   UNL     1      -2.995  -8.880   0.281  0.00  0.00    +0.138 A 
ATOM     15  O   UNL     1      -2.749  -8.040  -0.754  0.00  0.00    -0.437 OA
ATOM     16  H   UNL     1      -2.489  -3.231   2.184  0.00  0.00    +0.144 HD
ATOM     17  H   UNL     1      -2.367  -4.754   2.882  0.00  0.00    +0.144 HD
ENDROOT
BRANCH   8  18
ATOM     18  C   UNL     1      -0.999  -7.043   2.332  0.00  0.00    -0.035 A 
ATOM     19  C   UNL     1      -0.023  -7.476   1.454  0.00  0.00    +0.006 A 
ATOM     20  C   UNL     1       1.305  -7.473   1.840  0.00  0.00    +0.020 A 
ATOM     21  C   UNL     1       1.656  -7.038   3.105  0.00  0.00    +0.041 A 
ATOM     22  C   UNL     1       0.679  -6.605   3.983  0.00  0.00    +0.020 A 
ATOM     23  C   UNL     1      -0.647  -6.603   3.595  0.00  0.00    +0.006 A 
ATOM     24 CL   UNL     1       3.323  -7.035   3.590  0.00  0.00    -0.084 Cl
ENDBRANCH   8  18
BRANCH  12  25
ATOM     25  O   UNL     1      -4.015 -12.343   0.790  0.00  0.00    -0.507 OA
ATOM     26  H   UNL     1      -4.972 -12.463   0.718  0.00  0.00    +0.292 HD
ENDBRANCH  12  25
BRANCH   1  27
ATOM     27  C   UNL     1      -2.794  -2.566  -0.111  0.00  0.00    +0.122 C 
BRANCH  27  28
ATOM     28  C   UNL     1      -1.358  -2.037  -0.122  0.00  0.00    +0.003 C 
BRANCH  28  29
ATOM     29  C   UNL     1      -1.376  -0.512   0.012  0.00  0.00    -0.078 C 
BRANCH  29  31
ATOM     30  C   UNL     1      -0.018   1.465   0.010  0.00  0.00    -0.097 C 
ATOM     31  N   UNL     1       0.002  -0.004   0.002  0.00  0.00    +0.376 N 
ATOM     32  C   UNL     1       0.713  -0.491   1.192  0.00  0.00    -0.097 C 
ATOM     33  H   UNL     1       0.474  -0.330  -0.828  0.00  0.00    -0.083 HD
ENDBRANCH  29  31
ENDBRANCH  28  29
ENDBRANCH  27  28
ENDBRANCH   1  27
TORSDOF 6
