REMARK  Name = ZINC64197350
REMARK  6 active torsions:
REMARK  status: ('A' for Active; 'I' for Inactive)
REMARK    1  A    between atoms: C_1  and  C_2
REMARK    2  A    between atoms: C_5  and  C_34
REMARK    3  A    between atoms: C_6  and  N_8
REMARK    4  A    between atoms: C_9  and  O_33
REMARK    5  A    between atoms: C_12  and  O_32
REMARK    6  A    between atoms: C_13  and  C_17
REMARK                            x       y       z     vdW  Elec       q    Type
REMARK                         _______ _______ _______ _____ _____    ______ ____
ROOT
ATOM      1  N   UNL     1       0.246  -2.860   2.498  0.00  0.00    -0.225 N 
ATOM      2  C   UNL     1       1.462  -3.299   3.168  0.00  0.00    +0.338 C 
ATOM      3  N   UNL     1       1.216  -4.404   4.080  0.00  0.00    -0.204 NA
ATOM      4  C   UNL     1       0.071  -4.695   4.562  0.00  0.00    +0.200 C 
ATOM      5  C   UNL     1      -1.172  -3.921   4.234  0.00  0.00    +0.179 C 
ATOM      6  C   UNL     1      -0.977  -3.122   2.977  0.00  0.00    +0.237 C 
ATOM      7  O   UNL     1      -1.948  -2.708   2.380  0.00  0.00    -0.274 OA
ENDROOT
BRANCH   5   8
ATOM      8  C   UNL     1      -1.492  -2.966   5.386  0.00  0.00    +0.101 C 
ATOM      9  C   UNL     1      -2.821  -2.257   5.114  0.00  0.00    +0.124 C 
ATOM     10  C   UNL     1      -2.978  -1.210   6.211  0.00  0.00    -0.036 C 
ATOM     11  C   UNL     1      -4.158  -1.431   6.774  0.00  0.00    -0.001 A 
ATOM     12  C   UNL     1      -4.898  -0.705   7.819  0.00  0.00    +0.010 A 
ATOM     13  C   UNL     1      -6.101  -1.228   8.174  0.00  0.00    +0.001 A 
ATOM     14  C   UNL     1      -6.636  -2.386   7.601  0.00  0.00    +0.002 A 
ATOM     15  C   UNL     1      -6.028  -3.113   6.630  0.00  0.00    +0.026 A 
ATOM     16  C   UNL     1      -4.758  -2.659   6.169  0.00  0.00    +0.043 A 
ATOM     17  N   UNL     1      -3.971  -3.151   5.231  0.00  0.00    -0.376 N 
ATOM     18  C   UNL     1      -1.870  -0.241   6.545  0.00  0.00    +0.048 C 
ATOM     19  C   UNL     1      -0.586  -1.081   6.666  0.00  0.00    +0.085 C 
ATOM     20  N   UNL     1      -0.436  -1.948   5.494  0.00  0.00    -0.310 NA
ATOM     21  H   UNL     1       0.479  -2.372   5.472  0.00  0.00    +0.122 HD
ATOM     22  H   UNL     1      -4.118  -3.958   4.714  0.00  0.00    +0.160 HD
ENDBRANCH   5   8
BRANCH   1  28
ATOM     23  C   UNL     1       0.648   1.477   0.217  0.00  0.00    +0.044 C 
ATOM     24  C   UNL     1       0.556  -0.027   0.175  0.00  0.00    -0.049 A 
ATOM     25  C   UNL     1       0.585  -0.687  -1.040  0.00  0.00    +0.004 A 
ATOM     26  C   UNL     1       0.501  -2.066  -1.083  0.00  0.00    +0.005 A 
ATOM     27  C   UNL     1       0.389  -2.789   0.088  0.00  0.00    -0.029 A 
ATOM     28  C   UNL     1       0.360  -2.130   1.310  0.00  0.00    +0.044 A 
ATOM     29  C   UNL     1       0.450  -0.744   1.350  0.00  0.00    +0.027 A 
ATOM     30  C   UNL     1       0.298  -4.293   0.041  0.00  0.00    +0.045 C 
ENDBRANCH   1  28
BRANCH   4  31
ATOM     31  O   UNL     1      -0.027  -5.746   5.402  0.00  0.00    -0.495 OA
ATOM     32  H   UNL     1       0.813  -6.197   5.567  0.00  0.00    +0.293 HD
ENDBRANCH   4  31
BRANCH   2  33
ATOM     33  O   UNL     1       2.410  -3.714   2.183  0.00  0.00    -0.356 OA
ATOM     34  H   UNL     1       3.250  -4.022   2.551  0.00  0.00    +0.214 HD
ENDBRANCH   2  33
TORSDOF 4
