REMARK  Name = ZINC67173778
REMARK  4 active torsions:
REMARK  status: ('A' for Active; 'I' for Inactive)
REMARK    1  A    between atoms: C_1  and  C_2
REMARK    2  A    between atoms: C_2  and  O_3
REMARK    3  A    between atoms: O_3  and  C_4
REMARK    4  A    between atoms: C_8  and  C_10
REMARK                            x       y       z     vdW  Elec       q    Type
REMARK                         _______ _______ _______ _____ _____    ______ ____
ROOT
ATOM      1  C   UNL     1      -1.498  -1.846   0.006  0.00  0.00    +0.215 A 
ATOM      2  C   UNL     1      -2.779  -2.386   0.010  0.00  0.00    +0.069 A 
ATOM      3  C   UNL     1      -2.935  -3.762   0.004  0.00  0.00    +0.027 A 
ATOM      4  C   UNL     1      -1.800  -4.559  -0.006  0.00  0.00    +0.070 A 
ATOM      5  C   UNL     1      -0.545  -3.953  -0.009  0.00  0.00    +0.131 A 
ATOM      6  N   UNL     1      -0.434  -2.629  -0.008  0.00  0.00    -0.208 NA
ATOM      7 CL   UNL     1      -1.940  -6.289  -0.014  0.00  0.00    -0.081 Cl
ENDROOT
BRANCH   5   8
ATOM      8  C   UNL     1       0.676  -4.793  -0.019  0.00  0.00    +0.190 A 
ATOM      9  N   UNL     1       1.881  -4.246  -0.017  0.00  0.00    -0.203 NA
ATOM     10  C   UNL     1       2.922  -5.058  -0.026  0.00  0.00    +0.176 A 
ATOM     11  S   UNL     1       2.206  -6.578  -0.037  0.00  0.00    +0.049 S 
ATOM     12  N   UNL     1       0.598  -6.108  -0.025  0.00  0.00    -0.186 NA
ATOM     13  N   UNL     1       4.268  -4.737  -0.026  0.00  0.00    -0.336 N 
ATOM     14  H   UNL     1       4.544  -3.807  -0.020  0.00  0.00    +0.144 HD
ATOM     15  H   UNL     1       4.934  -5.442  -0.033  0.00  0.00    +0.144 HD
ENDBRANCH   5   8
BRANCH   1  16
ATOM     16  O   UNL     1      -1.339  -0.499   0.012  0.00  0.00    -0.477 OA
BRANCH  16  18
ATOM     17  C   UNL     1      -0.019   1.526   0.010  0.00  0.00    +0.048 C 
ATOM     18  C   UNL     1       0.002  -0.004   0.002  0.00  0.00    +0.227 C 
ENDBRANCH  16  18
ENDBRANCH   1  16
TORSDOF 3
