REMARK  Name = ZINC64066286
REMARK  8 active torsions:
REMARK  status: ('A' for Active; 'I' for Inactive)
REMARK    1  A    between atoms: C_7  and  C_10
REMARK    2  A    between atoms: C_10  and  C_12
REMARK    3  A    between atoms: C_10  and  C_30
REMARK    4  A    between atoms: C_12  and  N_13
REMARK    5  A    between atoms: C_14  and  C_16
REMARK    6  A    between atoms: C_16  and  C_17
REMARK    7  A    between atoms: C_17  and  C_19
REMARK    8  A    between atoms: C_17  and  N_26
REMARK                            x       y       z     vdW  Elec       q    Type
REMARK                         _______ _______ _______ _____ _____    ______ ____
ROOT
ATOM      1  N   UNL     1       0.223  -5.400  -1.127  0.00  0.00    -0.314 N 
ATOM      2  C   UNL     1       0.129  -6.165  -2.232  0.00  0.00    +0.215 C 
ATOM      3  O   UNL     1       0.907  -6.005  -3.148  0.00  0.00    -0.276 OA
ATOM      4  H   UNL     1      -0.399  -5.527  -0.394  0.00  0.00    +0.149 HD
ENDROOT
BRANCH   1   5
ATOM      5  C   UNL     1       1.266  -4.375  -1.032  0.00  0.00    +0.116 C 
BRANCH   5   6
ATOM      6  C   UNL     1       1.153  -3.655   0.314  0.00  0.00    +0.066 C 
BRANCH   6  13
ATOM      7  C   UNL     1       0.657   0.877   0.834  0.00  0.00    +0.001 A 
ATOM      8  C   UNL     1       1.869   1.580   0.819  0.00  0.00    +0.002 A 
ATOM      9  C   UNL     1       3.064   0.971   0.666  0.00  0.00    +0.026 A 
ATOM     10  C   UNL     1       3.136  -0.441   0.510  0.00  0.00    +0.043 A 
ATOM     11  N   UNL     1       4.155  -1.250   0.348  0.00  0.00    -0.380 N 
ATOM     12  C   UNL     1       3.648  -2.623   0.239  0.00  0.00    +0.145 C 
ATOM     13  C   UNL     1       2.144  -2.522   0.362  0.00  0.00    -0.033 C 
ATOM     14  C   UNL     1       1.870  -1.207   0.523  0.00  0.00    -0.000 A 
ATOM     15  C   UNL     1       0.613  -0.468   0.695  0.00  0.00    +0.010 A 
ATOM     16  H   UNL     1       5.087  -0.986   0.307  0.00  0.00    +0.160 HD
ENDBRANCH   6  13
BRANCH   6  17
ATOM     17  C   UNL     1       1.445  -4.626   1.429  0.00  0.00    -0.020 A 
ATOM     18  C   UNL     1       2.674  -5.254   1.494  0.00  0.00    +0.006 A 
ATOM     19  C   UNL     1       2.942  -6.144   2.517  0.00  0.00    +0.000 A 
ATOM     20  C   UNL     1       1.981  -6.407   3.475  0.00  0.00    +0.001 A 
ATOM     21  C   UNL     1       0.751  -5.780   3.411  0.00  0.00    +0.020 A 
ATOM     22  C   UNL     1       0.485  -4.884   2.390  0.00  0.00    +0.045 A 
ATOM     23 CL   UNL     1      -1.057  -4.090   2.313  0.00  0.00    -0.083 Cl
ENDBRANCH   6  17
ENDBRANCH   5   6
ENDBRANCH   1   5
BRANCH   2  24
ATOM     24  C   UNL     1      -0.944  -7.219  -2.330  0.00  0.00    +0.123 C 
BRANCH  24  25
ATOM     25  C   UNL     1      -0.830  -7.939  -3.675  0.00  0.00    +0.116 C 
BRANCH  25  26
ATOM     26  C   UNL     1      -1.976  -8.907  -3.825  0.00  0.00    +0.008 A 
ATOM     27  C   UNL     1      -2.744  -9.244  -2.726  0.00  0.00    +0.008 A 
ATOM     28  C   UNL     1      -3.794 -10.132  -2.864  0.00  0.00    +0.000 A 
ATOM     29  C   UNL     1      -4.078 -10.684  -4.099  0.00  0.00    +0.003 A 
ATOM     30  C   UNL     1      -3.312 -10.347  -5.199  0.00  0.00    +0.039 A 
ATOM     31  C   UNL     1      -2.262  -9.454  -5.064  0.00  0.00    +0.128 A 
ATOM     32  F   UNL     1      -1.516  -9.121  -6.139  0.00  0.00    -0.205 F 
ENDBRANCH  25  26
BRANCH  25  33
ATOM     33  N   UNL     1       0.438  -8.670  -3.732  0.00  0.00    -0.292 N 
ATOM     34  C   UNL     1       0.678  -9.671  -2.863  0.00  0.00    +0.298 C 
ATOM     35  O   UNL     1      -0.192 -10.030  -2.093  0.00  0.00    -0.253 OA
ATOM     36  N   UNL     1       1.883 -10.276  -2.848  0.00  0.00    -0.313 N 
ATOM     37  H   UNL     1       1.105  -8.433  -4.396  0.00  0.00    +0.151 HD
ATOM     38  H   UNL     1       2.576  -9.991  -3.463  0.00  0.00    +0.146 HD
ATOM     39  H   UNL     1       2.055 -10.997  -2.223  0.00  0.00    +0.146 HD
ENDBRANCH  25  33
ENDBRANCH  24  25
ENDBRANCH   2  24
TORSDOF 8
