REMARK  Name = ZINC42896023
REMARK  8 active torsions:
REMARK  status: ('A' for Active; 'I' for Inactive)
REMARK    1  A    between atoms: C_1  and  C_2
REMARK    2  A    between atoms: C_6  and  O_8
REMARK    3  A    between atoms: O_8  and  C_9
REMARK    4  A    between atoms: C_9  and  C_10
REMARK    5  A    between atoms: C_10  and  N_11
REMARK    6  A    between atoms: N_11  and  C_12
REMARK    7  A    between atoms: C_12  and  C_13
REMARK    8  A    between atoms: C_18  and  O_19
REMARK                            x       y       z     vdW  Elec       q    Type
REMARK                         _______ _______ _______ _____ _____    ______ ____
ROOT
ATOM      1  N   UNL     1      -1.174  -4.464   4.368  0.00  0.00    +0.384 N 
ATOM      2  H   UNL     1      -1.270  -3.461   4.427  0.00  0.00    -0.085 HD
ATOM      3  H   UNL     1      -1.950  -4.846   3.849  0.00  0.00    -0.085 HD
ENDROOT
BRANCH   1   4
ATOM      4  C   UNL     1       0.083  -4.796   3.683  0.00  0.00    -0.041 C 
BRANCH   4   5
ATOM      5  C   UNL     1       0.069  -4.202   2.274  0.00  0.00    +0.210 C 
BRANCH   5   6
ATOM      6  O   UNL     1       0.050  -2.776   2.358  0.00  0.00    -0.494 OA
BRANCH   6  12
ATOM      7  C   UNL     1      -0.018   1.503   0.010  0.00  0.00    +0.044 C 
ATOM      8  C   UNL     1       0.002  -0.004   0.002  0.00  0.00    -0.047 A 
ATOM      9  C   UNL     1       0.006  -0.688  -1.200  0.00  0.00    +0.003 A 
ATOM     10  C   UNL     1       0.024  -2.071  -1.211  0.00  0.00    +0.004 A 
ATOM     11  C   UNL     1       0.039  -2.772  -0.020  0.00  0.00    +0.045 A 
ATOM     12  C   UNL     1       0.035  -2.088   1.186  0.00  0.00    +0.121 A 
ATOM     13  C   UNL     1       0.023  -0.700   1.195  0.00  0.00    +0.049 A 
ENDBRANCH   6  12
ENDBRANCH   5   6
ENDBRANCH   4   5
ENDBRANCH   1   4
BRANCH   1  14
ATOM     14  C   UNL     1      -1.160  -5.035   5.721  0.00  0.00    -0.043 C 
BRANCH  14  15
ATOM     15  C   UNL     1      -2.449  -4.694   6.423  0.00  0.00    -0.022 A 
ATOM     16  C   UNL     1      -2.490  -3.646   7.323  0.00  0.00    +0.025 A 
ATOM     17  C   UNL     1      -3.674  -3.332   7.968  0.00  0.00    +0.041 A 
ATOM     18  C   UNL     1      -4.818  -4.068   7.713  0.00  0.00    +0.023 A 
ATOM     19  C   UNL     1      -4.781  -5.116   6.815  0.00  0.00    +0.047 A 
ATOM     20  C   UNL     1      -3.596  -5.428   6.163  0.00  0.00    +0.118 A 
ATOM     21 CL   UNL     1      -3.723  -2.015   9.098  0.00  0.00    -0.084 Cl
BRANCH  20  22
ATOM     22  O   UNL     1      -3.559  -6.456   5.274  0.00  0.00    -0.507 OA
ATOM     23  H   UNL     1      -3.340  -7.311   5.670  0.00  0.00    +0.292 HD
ENDBRANCH  20  22
ENDBRANCH  14  15
ENDBRANCH   1  14
TORSDOF 7
