REMARK  Name = ZINC07583682
REMARK  9 active torsions:
REMARK  status: ('A' for Active; 'I' for Inactive)
REMARK    1  A    between atoms: C_1  and  N_47
REMARK    2  A    between atoms: C_2  and  N_47
REMARK    3  A    between atoms: C_3  and  C_9
REMARK    4  A    between atoms: C_3  and  N_47
REMARK    5  A    between atoms: C_9  and  N_10
REMARK    6  A    between atoms: N_10  and  C_11
REMARK    7  A    between atoms: C_11  and  N_13
REMARK    8  A    between atoms: N_13  and  C_14
REMARK    9  A    between atoms: C_17  and  N_20
REMARK                            x       y       z     vdW  Elec       q    Type
REMARK                         _______ _______ _______ _____ _____    ______ ____
ROOT
ATOM      1  N   UNL     1      -0.381   2.198   1.201  0.00  0.00    -0.328 N 
ATOM      2  H   UNL     1      -1.338   2.357   1.226  0.00  0.00    +0.148 HD
ENDROOT
BRANCH   1   3
ATOM      3  C   UNL     1       0.297   1.985   2.347  0.00  0.00    +0.134 C 
ATOM      4  S   UNL     1       1.985   1.704   2.302  0.00  0.00    -0.019 S 
BRANCH   3   5
ATOM      5  N   UNL     1      -0.354   1.992   3.527  0.00  0.00    -0.297 N 
ATOM      6  H   UNL     1      -1.321   2.067   3.546  0.00  0.00    +0.154 HD
BRANCH   5   7
ATOM      7  C   UNL     1       0.364   1.893   4.723  0.00  0.00    +0.033 A 
ATOM      8  C   UNL     1      -0.125   1.118   5.766  0.00  0.00    +0.025 A 
ATOM      9  C   UNL     1       0.590   1.017   6.944  0.00  0.00    +0.034 A 
ATOM     10  C   UNL     1       1.786   1.696   7.088  0.00  0.00    +0.126 A 
ATOM     11  C   UNL     1       2.273   2.473   6.053  0.00  0.00    +0.034 A 
ATOM     12  C   UNL     1       1.566   2.573   4.871  0.00  0.00    +0.025 A 
BRANCH  10  13
ATOM     13  N   UNL     1       2.546   1.591   8.354  0.00  0.00    +0.056 N 
ATOM     14  O   UNL     1       3.600   2.188   8.483  0.00  0.00    -0.126 OA
ATOM     15  O   UNL     1       2.118   0.907   9.267  0.00  0.00    -0.126 OA
ENDBRANCH  10  13
ENDBRANCH   5   7
ENDBRANCH   3   5
ENDBRANCH   1   3
BRANCH   1  16
ATOM     16  C   UNL     1       0.327   2.189  -0.081  0.00  0.00    +0.091 C 
BRANCH  16  17
ATOM     17  C   UNL     1      -0.644   2.566  -1.202  0.00  0.00    -0.050 C 
ATOM     18  C   UNL     1      -1.719   1.485  -1.331  0.00  0.00    -0.010 C 
ATOM     19  C   UNL     1      -1.058   0.145  -1.658  0.00  0.00    -0.001 C 
ATOM     20  C   UNL     1      -0.292   0.263  -2.978  0.00  0.00    -0.000 C 
ATOM     21  C   UNL     1       0.782   1.344  -2.849  0.00  0.00    -0.001 C 
ATOM     22  C   UNL     1       0.121   2.684  -2.522  0.00  0.00    -0.010 C 
BRANCH  17  25
ATOM     23  C   UNL     1      -0.274   4.913  -0.736  0.00  0.00    -0.096 C 
ATOM     24  C   UNL     1      -2.274   4.213  -1.907  0.00  0.00    -0.096 C 
ATOM     25  N   UNL     1      -1.293   3.850  -0.863  0.00  0.00    +0.381 N 
ATOM     26  H   UNL     1      -1.783   3.750   0.034  0.00  0.00    -0.082 HD
ENDBRANCH  17  25
ENDBRANCH  16  17
ENDBRANCH   1  16
TORSDOF 7
