REMARK  Name = ZINC14129580
REMARK  3 active torsions:
REMARK  status: ('A' for Active; 'I' for Inactive)
REMARK    1  A    between atoms: C_7  and  C_12
REMARK    2  A    between atoms: C_12  and  S_13
REMARK    3  A    between atoms: S_13  and  C_14
REMARK                            x       y       z     vdW  Elec       q    Type
REMARK                         _______ _______ _______ _____ _____    ______ ____
ROOT
ATOM      1  C   UNL     1       3.555   2.164  -0.020  0.00  0.00    +0.036 A 
ATOM      2  C   UNL     1       4.696   1.441  -0.035  0.00  0.00    +0.048 A 
ATOM      3  S   UNL     1       4.095  -0.240  -0.038  0.00  0.00    -0.090 S 
ATOM      4  C   UNL     1       2.358   0.114  -0.020  0.00  0.00    +0.102 A 
ATOM      5  C   UNL     1       2.311   1.519  -0.012  0.00  0.00    +0.085 A 
ATOM      6  N   UNL     1       1.057   2.079   0.003  0.00  0.00    -0.232 NA
ATOM      7  C   UNL     1      -0.016   1.355   0.009  0.00  0.00    +0.121 A 
ATOM      8  N   UNL     1       0.002  -0.004   0.002  0.00  0.00    -0.309 N 
ATOM      9  H   UNL     1      -0.828  -0.505   0.008  0.00  0.00    +0.170 HD
ATOM     10  C   UNL     1       1.192  -0.652  -0.013  0.00  0.00    +0.266 A 
ATOM     11  O   UNL     1       1.242  -1.871  -0.019  0.00  0.00    -0.267 OA
ENDROOT
BRANCH   7  12
ATOM     12  C   UNL     1      -1.352   2.053   0.019  0.00  0.00    +0.151 C 
BRANCH  12  13
ATOM     13  S   UNL     1      -1.095   3.845   0.028  0.00  0.00    -0.083 S 
BRANCH  13  14
ATOM     14  C   UNL     1      -2.770   4.393   0.039  0.00  0.00    +0.150 C 
ATOM     15  N   UNL     1      -3.716   3.511   0.033  0.00  0.00    -0.263 NA
ATOM     16  C   UNL     1      -5.135   3.846   0.025  0.00  0.00    +0.145 C 
ATOM     17  C   UNL     1      -5.356   5.276   0.523  0.00  0.00    +0.042 C 
ATOM     18  C   UNL     1      -4.394   6.207  -0.232  0.00  0.00    +0.105 C 
ATOM     19  N   UNL     1      -3.026   5.745   0.047  0.00  0.00    -0.324 N 
ATOM     20  H   UNL     1      -2.318   6.381   0.234  0.00  0.00    +0.148 HD
ENDBRANCH  13  14
ENDBRANCH  12  13
ENDBRANCH   7  12
TORSDOF 3
