REMARK  Name = ZINC59311348
REMARK  9 active torsions:
REMARK  status: ('A' for Active; 'I' for Inactive)
REMARK    1  A    between atoms: C_1  and  C_2
REMARK    2  A    between atoms: C_2  and  C_25
REMARK    3  A    between atoms: N_3  and  N_4
REMARK    4  A    between atoms: C_7  and  S_10
REMARK    5  A    between atoms: S_10  and  C_11
REMARK    6  A    between atoms: C_11  and  C_12
REMARK    7  A    between atoms: N_14  and  C_15
REMARK    8  A    between atoms: C_20  and  C_21
REMARK    9  A    between atoms: C_28  and  N_31
REMARK                            x       y       z     vdW  Elec       q    Type
REMARK                         _______ _______ _______ _____ _____    ______ ____
ROOT
ATOM      1  N   UNL     1      -0.013  -2.691   1.941  0.00  0.00    -0.205 N 
ATOM      2  C   UNL     1      -0.119  -3.206   3.220  0.00  0.00    +0.232 A 
ATOM      3  N   UNL     1      -0.147  -2.507   4.336  0.00  0.00    -0.186 NA
ATOM      4  C   UNL     1      -0.257  -3.334   5.381  0.00  0.00    +0.211 A 
ATOM      5  N   UNL     1      -0.300  -4.570   4.945  0.00  0.00    -0.144 NA
ATOM      6  N   UNL     1      -0.217  -4.513   3.544  0.00  0.00    -0.245 N 
ATOM      7  H   UNL     1      -0.004  -3.288   1.177  0.00  0.00    +0.177 HD
ATOM      8  H   UNL     1      -0.227  -5.264   2.930  0.00  0.00    +0.192 HD
ENDROOT
BRANCH   1  11
ATOM      9  C   UNL     1       0.075   0.676   0.342  0.00  0.00    +0.068 C 
ATOM     10  C   UNL     1       0.083  -0.817   0.547  0.00  0.00    +0.063 C 
ATOM     11  N   UNL     1       0.083  -1.307   1.749  0.00  0.00    -0.184 NA
BRANCH  10  12
ATOM     12  C   UNL     1       0.092  -1.721  -0.618  0.00  0.00    -0.002 A 
ATOM     13  C   UNL     1      -0.994  -2.566  -0.858  0.00  0.00    +0.012 A 
ATOM     14  C   UNL     1      -0.979  -3.409  -1.950  0.00  0.00    +0.033 A 
ATOM     15  C   UNL     1       0.108  -3.420  -2.805  0.00  0.00    +0.126 A 
ATOM     16  C   UNL     1       1.187  -2.586  -2.573  0.00  0.00    +0.033 A 
ATOM     17  C   UNL     1       1.183  -1.732  -1.490  0.00  0.00    +0.012 A 
BRANCH  15  18
ATOM     18  N   UNL     1       0.117  -4.328  -3.975  0.00  0.00    +0.056 N 
ATOM     19  O   UNL     1      -0.825  -5.059  -4.180  0.00  0.00    -0.126 OA
ATOM     20  O   UNL     1       1.065  -4.340  -4.724  0.00  0.00    -0.126 OA
ENDBRANCH  15  18
ENDBRANCH  10  12
ENDBRANCH   1  11
BRANCH   4  21
ATOM     21  S   UNL     1      -0.331  -2.842   7.072  0.00  0.00    -0.075 S 
BRANCH  21  22
ATOM     22  C   UNL     1      -0.474  -4.407   7.978  0.00  0.00    +0.173 C 
BRANCH  22  23
ATOM     23  C   UNL     1      -0.547  -4.126   9.457  0.00  0.00    +0.227 C 
ATOM     24  O   UNL     1      -0.507  -2.983   9.860  0.00  0.00    -0.275 OA
ATOM     25  N   UNL     1      -0.658  -5.145  10.332  0.00  0.00    -0.284 N 
ATOM     26  H   UNL     1      -0.774  -6.052  10.008  0.00  0.00    +0.155 HD
BRANCH  25  27
ATOM     27  C   UNL     1      -0.605  -4.895  11.707  0.00  0.00    +0.045 A 
ATOM     28  C   UNL     1       0.048  -3.766  12.185  0.00  0.00    +0.024 A 
ATOM     29  C   UNL     1       0.099  -3.522  13.543  0.00  0.00    +0.002 A 
ATOM     30  C   UNL     1      -0.500  -4.401  14.428  0.00  0.00    +0.001 A 
ATOM     31  C   UNL     1      -1.150  -5.526  13.956  0.00  0.00    +0.014 A 
ATOM     32  C   UNL     1      -1.210  -5.772  12.598  0.00  0.00    +0.076 A 
BRANCH  32  33
ATOM     33  C   UNL     1      -1.925  -6.995  12.084  0.00  0.00    +0.419 C 
ATOM     34  F   UNL     1      -2.448  -7.717  13.162  0.00  0.00    -0.166 F 
ATOM     35  F   UNL     1      -2.966  -6.604  11.235  0.00  0.00    -0.166 F 
ATOM     36  F   UNL     1      -1.025  -7.799  11.377  0.00  0.00    -0.166 F 
ENDBRANCH  32  33
ENDBRANCH  25  27
ENDBRANCH  22  23
ENDBRANCH  21  22
ENDBRANCH   4  21
TORSDOF 8
