REMARK  Name = ZINC40072418
REMARK  10 active torsions:
REMARK  status: ('A' for Active; 'I' for Inactive)
REMARK    1  A    between atoms: C_1  and  N_2
REMARK    2  A    between atoms: C_3  and  N_27
REMARK    3  A    between atoms: C_4  and  C_11
REMARK    4  A    between atoms: N_7  and  C_10
REMARK    5  A    between atoms: C_11  and  C_13
REMARK    6  A    between atoms: C_13  and  N_14
REMARK    7  A    between atoms: C_19  and  C_21
REMARK    8  A    between atoms: C_21  and  N_22
REMARK    9  A    between atoms: N_22  and  S_23
REMARK   10  A    between atoms: S_23  and  C_26
REMARK                            x       y       z     vdW  Elec       q    Type
REMARK                         _______ _______ _______ _____ _____    ______ ____
ROOT
ATOM      1  C   UNL     1      -2.758  -2.816  -0.442  0.00  0.00    +0.155 C 
ATOM      2  O   UNL     1      -3.733  -2.130  -0.677  0.00  0.00    -0.294 OA
ENDROOT
BRANCH   1   6
ATOM      3  C   UNL     1       0.183   1.057  -1.009  0.00  0.00    +0.155 C 
ATOM      4  N   UNL     1      -0.015  -0.376  -0.782  0.00  0.00    -0.284 N 
ATOM      5  C   UNL     1      -1.285  -0.875  -0.726  0.00  0.00    +0.116 A 
ATOM      6  C   UNL     1      -1.466  -2.252  -0.508  0.00  0.00    +0.118 A 
ATOM      7  C   UNL     1      -0.267  -3.086  -0.352  0.00  0.00    +0.269 A 
ATOM      8  O   UNL     1      -0.363  -4.284  -0.163  0.00  0.00    -0.267 OA
ATOM      9  N   UNL     1       0.944  -2.495  -0.425  0.00  0.00    -0.263 N 
ATOM     10  C   UNL     1       1.055  -1.174  -0.640  0.00  0.00    +0.333 A 
ATOM     11  O   UNL     1       2.164  -0.682  -0.703  0.00  0.00    -0.246 OA
ATOM     12  C   UNL     1       2.154  -3.307  -0.272  0.00  0.00    +0.157 C 
BRANCH   5  13
ATOM     13  N   UNL     1      -2.359  -0.053  -0.877  0.00  0.00    -0.344 N 
ATOM     14  H   UNL     1      -2.229   0.906  -0.946  0.00  0.00    +0.144 HD
ATOM     15  H   UNL     1      -3.253  -0.425  -0.917  0.00  0.00    +0.144 HD
ENDBRANCH   5  13
ENDBRANCH   1   6
BRANCH   1  16
ATOM     16  C   UNL     1      -2.929  -4.269  -0.079  0.00  0.00    +0.003 C 
BRANCH  16  17
ATOM     17  N   UNL     1      -4.358  -4.608  -0.078  0.00  0.00    +0.387 N 
ATOM     18  C   UNL     1      -4.881  -4.520  -1.446  0.00  0.00    -0.078 C 
ATOM     19  C   UNL     1      -6.387  -4.794  -1.440  0.00  0.00    -0.019 C 
ATOM     20  C   UNL     1      -6.642  -6.198  -0.883  0.00  0.00    -0.003 C 
ATOM     21  C   UNL     1      -6.027  -6.301   0.516  0.00  0.00    -0.014 C 
ATOM     22  C   UNL     1      -4.535  -5.972   0.436  0.00  0.00    -0.052 C 
ATOM     23  H   UNL     1      -4.856  -3.960   0.513  0.00  0.00    -0.081 HD
BRANCH  22  24
ATOM     24  C   UNL     1      -3.916  -6.074   1.832  0.00  0.00    +0.090 C 
BRANCH  24  25
ATOM     25  N   UNL     1      -4.482  -5.035   2.695  0.00  0.00    -0.196 NA
ATOM     26  H   UNL     1      -4.962  -4.288   2.304  0.00  0.00    +0.148 HD
BRANCH  25  27
ATOM     27  S   UNL     1      -4.302  -5.134   4.338  0.00  0.00    +0.026 S 
ATOM     28  O   UNL     1      -4.983  -3.996   4.847  0.00  0.00    -0.158 OA
ATOM     29  O   UNL     1      -4.736  -6.446   4.671  0.00  0.00    -0.158 OA
ATOM     30  C   UNL     1      -2.518  -4.974   4.623  0.00  0.00    +0.214 C 
ENDBRANCH  25  27
ENDBRANCH  24  25
ENDBRANCH  22  24
ENDBRANCH  16  17
ENDBRANCH   1  16
TORSDOF 7
