REMARK  Name = ZINC43252446
REMARK  8 active torsions:
REMARK  status: ('A' for Active; 'I' for Inactive)
REMARK    1  A    between atoms: C_1  and  C_2
REMARK    2  A    between atoms: C_2  and  C_4
REMARK    3  A    between atoms: C_2  and  N_18
REMARK    4  A    between atoms: C_4  and  C_6
REMARK    5  A    between atoms: C_4  and  N_12
REMARK    6  A    between atoms: N_12  and  C_13
REMARK    7  A    between atoms: N_12  and  C_14
REMARK    8  A    between atoms: C_14  and  C_15
REMARK                            x       y       z     vdW  Elec       q    Type
REMARK                         _______ _______ _______ _____ _____    ______ ____
ROOT
ATOM      1  C   UNL     1       0.710  -0.589   0.973  0.00  0.00    +0.079 C 
ENDROOT
BRANCH   1   2
ATOM      2  C   UNL     1       0.723  -2.092   0.859  0.00  0.00    +0.007 A 
ATOM      3  C   UNL     1      -0.216  -2.986   1.252  0.00  0.00    +0.014 A 
ATOM      4  C   UNL     1       0.012  -4.333   1.045  0.00  0.00    +0.028 A 
ATOM      5  C   UNL     1       1.169  -4.720   0.452  0.00  0.00    +0.078 A 
ATOM      6  S   UNL     1       1.977  -3.155   0.162  0.00  0.00    -0.080 S 
ATOM      7 CL   UNL     1       1.720  -6.322   0.070  0.00  0.00    -0.076 Cl
ENDBRANCH   1   2
BRANCH   1   9
ATOM      8  C   UNL     1       1.375  -0.285  -1.416  0.00  0.00    -0.012 C 
ATOM      9  C   UNL     1       0.302   0.021  -0.370  0.00  0.00    -0.056 C 
BRANCH   9  10
ATOM     10  N   UNL     1      -0.979  -0.555  -0.800  0.00  0.00    +0.381 N 
ATOM     11  H   UNL     1      -0.882  -1.554  -0.900  0.00  0.00    -0.090 HD
ATOM     12  H   UNL     1      -1.687  -0.353  -0.110  0.00  0.00    -0.090 HD
ATOM     13  H   UNL     1      -1.248  -0.153  -1.685  0.00  0.00    -0.090 HD
ENDBRANCH   9  10
ENDBRANCH   1   9
BRANCH   1  14
ATOM     14  N   UNL     1       2.051  -0.114   1.339  0.00  0.00    -0.291 NA
ATOM     15  C   UNL     1       2.531  -0.781   2.557  0.00  0.00    +0.106 C 
BRANCH  14  16
ATOM     16  C   UNL     1       2.067   1.346   1.498  0.00  0.00    +0.180 C 
BRANCH  16  17
ATOM     17  C   UNL     1       3.491   1.838   1.481  0.00  0.00    +0.225 C 
ATOM     18  O   UNL     1       4.403   1.049   1.350  0.00  0.00    -0.275 OA
ATOM     19  N   UNL     1       3.752   3.154   1.611  0.00  0.00    -0.328 N 
ATOM     20  H   UNL     1       3.022   3.785   1.716  0.00  0.00    +0.145 HD
ATOM     21  H   UNL     1       4.669   3.470   1.600  0.00  0.00    +0.145 HD
ENDBRANCH  16  17
ENDBRANCH  14  16
ENDBRANCH   1  14
TORSDOF 6
