REMARK  Name = ZINC02472364
REMARK  5 active torsions:
REMARK  status: ('A' for Active; 'I' for Inactive)
REMARK    1  A    between atoms: C_1  and  C_2
REMARK    2  A    between atoms: C_2  and  C_3
REMARK    3  A    between atoms: C_2  and  C_4
REMARK    4  A    between atoms: C_7  and  C_10
REMARK    5  A    between atoms: C_13  and  C_22
REMARK                            x       y       z     vdW  Elec       q    Type
REMARK                         _______ _______ _______ _____ _____    ______ ____
ROOT
ATOM      1  C   UNL     1       3.513   0.596  -0.033  0.00  0.00    +0.143 C 
ATOM      2  C   UNL     1       3.940  -0.795  -0.517  0.00  0.00    +0.059 C 
ATOM      3  C   UNL     1       3.175  -1.871   0.260  0.00  0.00    +0.107 C 
ATOM      4  N   UNL     1       1.734  -1.720  -0.020  0.00  0.00    -0.307 N 
ATOM      5  C   UNL     1       1.240  -0.423  -0.011  0.00  0.00    +0.216 A 
ATOM      6  N   UNL     1       2.052   0.661  -0.015  0.00  0.00    -0.224 N 
ATOM      7  N   UNL     1       1.221   1.782   0.000  0.00  0.00    -0.132 NA
ATOM      8  C   UNL     1      -0.016   1.337   0.009  0.00  0.00    +0.233 A 
ATOM      9  N   UNL     1       0.002  -0.004   0.002  0.00  0.00    -0.180 NA
ATOM     10  N   UNL     1      -1.163   2.132   0.019  0.00  0.00    -0.326 N 
ATOM     11  H   UNL     1       1.164  -2.484  -0.201  0.00  0.00    +0.149 HD
ATOM     12  H   UNL     1      -2.040   1.717   0.022  0.00  0.00    +0.145 HD
ATOM     13  H   UNL     1      -1.084   3.098   0.024  0.00  0.00    +0.145 HD
ENDROOT
BRANCH   3  14
ATOM     14  C   UNL     1       3.634  -3.239  -0.176  0.00  0.00    -0.009 A 
ATOM     15  C   UNL     1       2.944  -3.918  -1.162  0.00  0.00    +0.007 A 
ATOM     16  C   UNL     1       3.368  -5.170  -1.566  0.00  0.00    +0.000 A 
ATOM     17  C   UNL     1       4.477  -5.748  -0.976  0.00  0.00    +0.001 A 
ATOM     18  C   UNL     1       5.165  -5.072   0.013  0.00  0.00    +0.020 A 
ATOM     19  C   UNL     1       4.744  -3.817   0.414  0.00  0.00    +0.046 A 
ATOM     20 CL   UNL     1       5.608  -2.966   1.657  0.00  0.00    -0.083 Cl
ENDBRANCH   3  14
BRANCH   1  24
ATOM     21  C   UNL     1       5.055   3.571  -2.682  0.00  0.00    -0.045 A 
ATOM     22  C   UNL     1       5.412   3.583  -1.347  0.00  0.00    +0.004 A 
ATOM     23  C   UNL     1       4.913   2.620  -0.489  0.00  0.00    +0.006 A 
ATOM     24  C   UNL     1       4.057   1.646  -0.967  0.00  0.00    -0.023 A 
ATOM     25  C   UNL     1       3.703   1.631  -2.304  0.00  0.00    +0.006 A 
ATOM     26  C   UNL     1       4.199   2.597  -3.160  0.00  0.00    +0.004 A 
BRANCH  21  28
ATOM     27  C   UNL     1       6.394   3.946  -4.735  0.00  0.00    +0.012 C 
ATOM     28  C   UNL     1       5.598   4.622  -3.616  0.00  0.00    +0.013 C 
ATOM     29  C   UNL     1       4.438   5.413  -4.223  0.00  0.00    +0.012 C 
ENDBRANCH  21  28
ENDBRANCH   1  24
TORSDOF 3
