REMARK  Name = ZINC05345716
REMARK  8 active torsions:
REMARK  status: ('A' for Active; 'I' for Inactive)
REMARK    1  A    between atoms: C_1  and  C_2
REMARK    2  A    between atoms: C_2  and  C_4
REMARK    3  A    between atoms: C_2  and  O_31
REMARK    4  A    between atoms: N_12  and  C_15
REMARK    5  A    between atoms: C_15  and  C_16
REMARK    6  A    between atoms: C_16  and  C_17
REMARK    7  A    between atoms: C_17  and  O_18
REMARK    8  A    between atoms: O_18  and  C_19
REMARK                            x       y       z     vdW  Elec       q    Type
REMARK                         _______ _______ _______ _____ _____    ______ ____
ROOT
ATOM      1  C   UNL     1      -0.630   1.931   1.375  0.00  0.00    -0.028 C 
ATOM      2  C   UNL     1      -0.019   1.550   0.011  0.00  0.00    +0.075 C 
ATOM      3  C   UNL     1       0.002  -0.004   0.002  0.00  0.00    +0.088 C 
ATOM      4  C   UNL     1       1.478  -0.331  -0.028  0.00  0.00    +0.225 C 
ATOM      5  O   UNL     1       1.948  -1.449  -0.050  0.00  0.00    -0.275 OA
ATOM      6  N   UNL     1       2.186   0.804  -0.025  0.00  0.00    -0.242 N 
ATOM      7  C   UNL     1       1.447   1.919  -0.001  0.00  0.00    +0.224 C 
ATOM      8  O   UNL     1       1.884   3.050   0.008  0.00  0.00    -0.275 OA
ATOM      9  C   UNL     1      -0.586  -0.405   1.361  0.00  0.00    +0.050 C 
ATOM     10  C   UNL     1      -2.042  -0.760   1.247  0.00  0.00    -0.025 A 
ATOM     11  C   UNL     1      -3.156  -0.068   0.826  0.00  0.00    +0.043 A 
ATOM     12  C   UNL     1      -4.397  -0.682   0.836  0.00  0.00    +0.124 A 
ATOM     13  C   UNL     1      -4.513  -1.992   1.271  0.00  0.00    +0.040 A 
ATOM     14  C   UNL     1      -3.400  -2.686   1.695  0.00  0.00    +0.026 A 
ATOM     15  C   UNL     1      -2.148  -2.075   1.688  0.00  0.00    +0.036 A 
ATOM     16  N   UNL     1      -0.892  -2.562   2.064  0.00  0.00    -0.286 N 
ATOM     17  C   UNL     1       0.077  -1.641   1.903  0.00  0.00    +0.211 C 
ATOM     18  O   UNL     1       1.257  -1.781   2.149  0.00  0.00    -0.277 OA
ATOM     19  F   UNL     1      -5.491  -0.006   0.423  0.00  0.00    -0.205 F 
ATOM     20  H   UNL     1      -0.737  -3.458   2.401  0.00  0.00    +0.155 HD
ATOM     21  N   UNL     1      -0.388   0.754   2.213  0.00  0.00    +0.396 N 
ATOM     22  H   UNL     1      -1.050   0.735   2.998  0.00  0.00    -0.083 HD
ATOM     23  H   UNL     1       0.572   0.768   2.576  0.00  0.00    -0.083 HD
ENDROOT
BRANCH   1  25
ATOM     24  C   UNL     1      -0.558   3.531   3.293  0.00  0.00    +0.036 C 
ATOM     25  C   UNL     1       0.063   3.172   1.941  0.00  0.00    +0.098 C 
BRANCH  25  26
ATOM     26  O   UNL     1      -0.102   4.265   1.036  0.00  0.00    -0.394 OA
ATOM     27  H   UNL     1       0.314   5.086   1.331  0.00  0.00    +0.210 HD
ENDBRANCH  25  26
ENDBRANCH   1  25
BRANCH   6  28
ATOM     28  C   UNL     1       3.651   0.825  -0.046  0.00  0.00    +0.118 C 
BRANCH  28  29
ATOM     29  C   UNL     1       4.139   0.849  -1.496  0.00  0.00    +0.047 C 
BRANCH  29  30
ATOM     30  C   UNL     1       5.669   0.871  -1.518  0.00  0.00    +0.161 C 
BRANCH  30  31
ATOM     31  O   UNL     1       6.125   0.894  -2.872  0.00  0.00    -0.383 OA
ATOM     32  C   UNL     1       7.548   0.915  -3.006  0.00  0.00    +0.193 C 
ENDBRANCH  30  31
ENDBRANCH  29  30
ENDBRANCH  28  29
ENDBRANCH   6  28
TORSDOF 6
