REMARK  Name = ZINC12411787
REMARK  7 active torsions:
REMARK  status: ('A' for Active; 'I' for Inactive)
REMARK    1  A    between atoms: C_1  and  C_2
REMARK    2  A    between atoms: C_2  and  O_3
REMARK    3  A    between atoms: O_3  and  C_4
REMARK    4  A    between atoms: C_7  and  C_10
REMARK    5  A    between atoms: N_20  and  C_23
REMARK    6  A    between atoms: C_30  and  N_34
REMARK    7  A    between atoms: C_31  and  C_32
REMARK                            x       y       z     vdW  Elec       q    Type
REMARK                         _______ _______ _______ _____ _____    ______ ____
ROOT
ATOM      1  C   UNL     1       1.419  -0.255   5.074  0.00  0.00    +0.103 C 
ATOM      2  C   UNL     1       1.471  -1.604   5.741  0.00  0.00    +0.073 A 
ATOM      3  C   UNL     1       2.668  -2.183   6.040  0.00  0.00    +0.148 A 
ATOM      4  C   UNL     1       2.667  -3.503   6.687  0.00  0.00    +0.042 A 
ATOM      5  C   UNL     1       3.862  -4.149   7.014  0.00  0.00    +0.013 A 
ATOM      6  C   UNL     1       3.826  -5.376   7.614  0.00  0.00    +0.001 A 
ATOM      7  C   UNL     1       2.614  -5.987   7.900  0.00  0.00    +0.002 A 
ATOM      8  C   UNL     1       1.423  -5.367   7.586  0.00  0.00    +0.027 A 
ATOM      9  C   UNL     1       1.436  -4.118   6.975  0.00  0.00    +0.061 A 
ATOM     10  N   UNL     1       0.260  -3.473   6.647  0.00  0.00    -0.276 N 
ATOM     11  C   UNL     1       0.272  -2.268   6.054  0.00  0.00    +0.264 A 
ATOM     12  O   UNL     1      -0.790  -1.733   5.780  0.00  0.00    -0.267 OA
ATOM     13  O   UNL     1       3.836  -1.573   5.756  0.00  0.00    -0.440 OA
ATOM     14  C   UNL     1       3.866  -0.248   5.532  0.00  0.00    +0.199 C 
ATOM     15  C   UNL     1       2.746   0.440   5.202  0.00  0.00    +0.098 C 
ENDROOT
BRANCH   1  19
ATOM     16  C   UNL     1       0.477  -0.755   0.936  0.00  0.00    +0.121 A 
ATOM     17  C   UNL     1       1.625  -1.331   1.462  0.00  0.00    +0.046 A 
ATOM     18  C   UNL     1       1.930  -1.162   2.799  0.00  0.00    +0.008 A 
ATOM     19  C   UNL     1       1.087  -0.431   3.615  0.00  0.00    -0.034 A 
ATOM     20  C   UNL     1      -0.060   0.138   3.095  0.00  0.00    +0.008 A 
ATOM     21  C   UNL     1      -0.367  -0.022   1.757  0.00  0.00    +0.046 A 
BRANCH  16  22
ATOM     22  O   UNL     1       0.178  -0.914  -0.380  0.00  0.00    -0.492 OA
BRANCH  22  24
ATOM     23  C   UNL     1       0.592  -1.750  -2.609  0.00  0.00    +0.048 C 
ATOM     24  C   UNL     1       1.093  -1.682  -1.165  0.00  0.00    +0.225 C 
ENDBRANCH  22  24
ENDBRANCH  16  22
ENDBRANCH   1  19
BRANCH  10  25
ATOM     25  C   UNL     1      -0.965  -4.085   6.938  0.00  0.00    +0.050 A 
ATOM     26  C   UNL     1      -1.566  -4.917   6.002  0.00  0.00    +0.026 A 
ATOM     27  C   UNL     1      -2.772  -5.524   6.294  0.00  0.00    +0.002 A 
ATOM     28  C   UNL     1      -3.386  -5.295   7.512  0.00  0.00    +0.000 A 
ATOM     29  C   UNL     1      -2.792  -4.463   8.443  0.00  0.00    +0.002 A 
ATOM     30  C   UNL     1      -1.584  -3.857   8.160  0.00  0.00    +0.026 A 
ENDBRANCH  10  25
BRANCH  14  31
ATOM     31  N   UNL     1       5.058   0.423   5.638  0.00  0.00    -0.328 N 
ATOM     32  H   UNL     1       5.092   1.380   5.478  0.00  0.00    +0.145 HD
ATOM     33  H   UNL     1       5.867  -0.058   5.873  0.00  0.00    +0.145 HD
ENDBRANCH  14  31
BRANCH  15  34
ATOM     34  C   UNL     1       2.828   1.851   4.973  0.00  0.00    +0.101 C 
ATOM     35  N   UNL     1       2.893   2.970   4.790  0.00  0.00    -0.191 NA
ENDBRANCH  15  34
TORSDOF 6
