REMARK  Name = ZINC55141644
REMARK  5 active torsions:
REMARK  status: ('A' for Active; 'I' for Inactive)
REMARK    1  A    between atoms: C_1  and  N_2
REMARK    2  A    between atoms: C_3  and  C_5
REMARK    3  A    between atoms: C_11  and  C_13
REMARK    4  A    between atoms: C_13  and  C_14
REMARK    5  A    between atoms: C_20  and  N_22
REMARK                            x       y       z     vdW  Elec       q    Type
REMARK                         _______ _______ _______ _____ _____    ______ ____
ROOT
ATOM      1  C   UNL     1       0.606  -2.171  -1.026  0.00  0.00    +0.162 C 
ATOM      2  C   UNL     1       1.387  -2.692   0.198  0.00  0.00    +0.033 C 
ATOM      3  C   UNL     1       2.157  -3.912  -0.374  0.00  0.00    +0.021 C 
ATOM      4  C   UNL     1       2.487  -3.426  -1.808  0.00  0.00    +0.108 C 
ATOM      5  N   UNL     1       1.299  -2.655  -2.229  0.00  0.00    -0.290 N 
ATOM      6  C   UNL     1       0.913  -2.432  -3.501  0.00  0.00    +0.216 C 
ATOM      7  O   UNL     1      -0.085  -1.782  -3.727  0.00  0.00    -0.276 OA
ENDROOT
BRANCH   1  10
ATOM      8  C   UNL     1      -0.018   1.461   0.010  0.00  0.00    +0.128 C 
ATOM      9  N   UNL     1       0.002  -0.004   0.002  0.00  0.00    -0.317 N 
ATOM     10  C   UNL     1       0.585  -0.664  -1.018  0.00  0.00    +0.233 C 
ATOM     11  O   UNL     1       1.093  -0.046  -1.929  0.00  0.00    -0.274 OA
ATOM     12  H   UNL     1      -0.404  -0.499   0.731  0.00  0.00    +0.148 HD
ENDBRANCH   1  10
BRANCH   6  13
ATOM     13  C   UNL     1       1.723  -2.991  -4.643  0.00  0.00    +0.098 C 
BRANCH  13  14
ATOM     14  C   UNL     1       1.073  -2.596  -5.970  0.00  0.00    -0.017 C 
ATOM     15  C   UNL     1       1.135  -1.076  -6.136  0.00  0.00    +0.002 C 
ATOM     16  C   UNL     1       0.485  -0.680  -7.463  0.00  0.00    +0.000 C 
ATOM     17  C   UNL     1       1.234  -1.350  -8.617  0.00  0.00    -0.002 C 
ATOM     18  C   UNL     1       1.172  -2.870  -8.452  0.00  0.00    -0.016 C 
ATOM     19  C   UNL     1       1.822  -3.266  -7.124  0.00  0.00    -0.072 C 
BRANCH  19  20
ATOM     20  N   UNL     1       1.762  -4.725  -6.965  0.00  0.00    +0.380 N 
ATOM     21  H   UNL     1       0.798  -5.024  -6.971  0.00  0.00    -0.090 HD
ATOM     22  H   UNL     1       2.256  -5.167  -7.726  0.00  0.00    -0.090 HD
ATOM     23  H   UNL     1       2.190  -4.986  -6.090  0.00  0.00    -0.090 HD
ENDBRANCH  19  20
ENDBRANCH  13  14
ENDBRANCH   6  13
TORSDOF 4
