REMARK  Name = ZINC50829103
REMARK  4 active torsions:
REMARK  status: ('A' for Active; 'I' for Inactive)
REMARK    1  A    between atoms: C_1  and  N_2
REMARK    2  A    between atoms: N_2  and  C_3
REMARK    3  A    between atoms: C_4  and  C_8
REMARK    4  A    between atoms: C_8  and  N_9
REMARK                            x       y       z     vdW  Elec       q    Type
REMARK                         _______ _______ _______ _____ _____    ______ ____
ROOT
ATOM      1  N   UNL     1       0.147  -3.355   1.378  0.00  0.00    -0.218 N 
ATOM      2  C   UNL     1       1.062  -2.661   2.089  0.00  0.00    +0.247 C 
ATOM      3  O   UNL     1       1.698  -1.695   1.725  0.00  0.00    -0.273 OA
ATOM      4  C   UNL     1       1.123  -3.343   3.432  0.00  0.00    +0.113 C 
ATOM      5  C   UNL     1       2.534  -3.871   3.718  0.00  0.00    +0.035 C 
ATOM      6  C   UNL     1       3.162  -2.788   4.633  0.00  0.00    +0.003 C 
ATOM      7  C   UNL     1       1.968  -2.351   5.519  0.00  0.00    +0.003 C 
ATOM      8  C   UNL     1       0.755  -2.378   4.562  0.00  0.00    +0.035 C 
ATOM      9  N   UNL     1       0.158  -4.439   3.330  0.00  0.00    -0.285 N 
ATOM     10  C   UNL     1      -0.369  -4.364   2.091  0.00  0.00    +0.310 C 
ATOM     11  O   UNL     1      -1.214  -5.128   1.668  0.00  0.00    -0.252 OA
ATOM     12  H   UNL     1      -0.061  -5.088   4.017  0.00  0.00    +0.151 HD
ENDROOT
BRANCH   1  13
ATOM     13  C   UNL     1      -0.237  -3.039  -0.000  0.00  0.00    +0.177 C 
BRANCH  13  15
ATOM     14  C   UNL     1      -1.194  -0.717   0.010  0.00  0.00    +0.110 A 
ATOM     15  C   UNL     1      -1.390  -2.068   0.010  0.00  0.00    +0.111 A 
ATOM     16  N   UNL     1      -2.639  -2.476   0.019  0.00  0.00    -0.143 NA
ATOM     17  N   UNL     1      -3.587  -1.600   0.027  0.00  0.00    -0.108 NA
ATOM     18  S   UNL     1      -2.772  -0.136   0.028  0.00  0.00    +0.052 S 
BRANCH  14  20
ATOM     19  C   UNL     1      -0.018   1.461   0.010  0.00  0.00    +0.126 C 
ATOM     20  N   UNL     1       0.002  -0.004   0.002  0.00  0.00    -0.339 N 
ATOM     21  H   UNL     1       0.849  -0.478  -0.009  0.00  0.00    +0.146 HD
ENDBRANCH  14  20
ENDBRANCH  13  15
ENDBRANCH   1  13
TORSDOF 3
