REMARK  Name = ZINC13053706
REMARK  7 active torsions:
REMARK  status: ('A' for Active; 'I' for Inactive)
REMARK    1  A    between atoms: C_6  and  C_7
REMARK    2  A    between atoms: C_7  and  C_9
REMARK    3  A    between atoms: C_7  and  S_12
REMARK    4  A    between atoms: S_12  and  C_13
REMARK    5  A    between atoms: C_17  and  C_31
REMARK    6  A    between atoms: N_23  and  C_24
REMARK    7  A    between atoms: C_24  and  C_25
REMARK                            x       y       z     vdW  Elec       q    Type
REMARK                         _______ _______ _______ _____ _____    ______ ____
ROOT
ATOM      1  C   UNL     1      -5.951   1.858   0.279  0.00  0.00    +0.173 A 
ATOM      2  N   UNL     1      -4.938   1.268  -0.306  0.00  0.00    -0.223 NA
ATOM      3  C   UNL     1      -3.816   1.949  -0.638  0.00  0.00    +0.080 A 
ATOM      4  C   UNL     1      -2.737   1.317  -1.262  0.00  0.00    +0.043 A 
ATOM      5  C   UNL     1      -1.606   2.056  -1.585  0.00  0.00    +0.065 A 
ATOM      6  C   UNL     1      -1.541   3.423  -1.284  0.00  0.00    +0.016 A 
ATOM      7  C   UNL     1      -2.592   4.052  -0.679  0.00  0.00    +0.016 A 
ATOM      8  C   UNL     1      -3.737   3.329  -0.347  0.00  0.00    +0.065 A 
ATOM      9  C   UNL     1      -4.889   3.966   0.310  0.00  0.00    +0.262 A 
ATOM     10  O   UNL     1      -4.881   5.151   0.587  0.00  0.00    -0.267 OA
ATOM     11  N   UNL     1      -5.957   3.187   0.596  0.00  0.00    -0.285 N 
ENDROOT
BRANCH   5  12
ATOM     12  C   UNL     1      -0.460   1.395  -2.246  0.00  0.00    +0.387 C 
ATOM     13  O   UNL     1      -0.509   0.209  -2.504  0.00  0.00    -0.241 OA
ATOM     14  O   UNL     1       0.637   2.108  -2.566  0.00  0.00    -0.241 OA
ENDBRANCH   5  12
BRANCH   1  15
ATOM     15  S   UNL     1      -7.371   0.893   0.676  0.00  0.00    -0.070 S 
BRANCH  15  16
ATOM     16  C   UNL     1      -6.836  -0.722   0.059  0.00  0.00    +0.169 C 
BRANCH  16  22
ATOM     17  C   UNL     1      -9.200  -1.542   0.099  0.00  0.00    +0.008 A 
ATOM     18  C   UNL     1     -10.149  -2.496   0.413  0.00  0.00    +0.038 A 
ATOM     19  C   UNL     1      -9.770  -3.667   1.046  0.00  0.00    +0.123 A 
ATOM     20  C   UNL     1      -8.438  -3.883   1.360  0.00  0.00    +0.038 A 
ATOM     21  C   UNL     1      -7.490  -2.929   1.041  0.00  0.00    +0.008 A 
ATOM     22  C   UNL     1      -7.871  -1.761   0.408  0.00  0.00    -0.025 A 
ATOM     23  F   UNL     1     -10.697  -4.598   1.359  0.00  0.00    -0.205 F 
ENDBRANCH  16  22
BRANCH  16  24
ATOM     24  C   UNL     1      -6.671  -0.659  -1.437  0.00  0.00    +0.228 C 
ATOM     25  O   UNL     1      -5.582  -0.851  -1.936  0.00  0.00    -0.274 OA
ATOM     26  N   UNL     1      -7.734  -0.389  -2.221  0.00  0.00    -0.328 N 
ATOM     27  H   UNL     1      -8.588  -0.166  -1.820  0.00  0.00    +0.145 HD
ATOM     28  H   UNL     1      -7.644  -0.418  -3.187  0.00  0.00    +0.145 HD
ENDBRANCH  16  24
ENDBRANCH  15  16
ENDBRANCH   1  15
BRANCH  11  29
ATOM     29  C   UNL     1      -7.130   3.772   1.250  0.00  0.00    +0.159 C 
BRANCH  29  30
ATOM     30  C   UNL     1      -8.106   4.281   0.186  0.00  0.00    +0.138 C 
ATOM     31  C   UNL     1      -9.322   4.969   0.857  0.00  0.00    +0.035 C 
ATOM     32  C   UNL     1      -9.786   5.920  -0.279  0.00  0.00    +0.031 C 
ATOM     33  C   UNL     1      -8.450   6.311  -0.946  0.00  0.00    +0.160 C 
ATOM     34  O   UNL     1      -7.487   5.305  -0.609  0.00  0.00    -0.375 OA
ENDBRANCH  29  30
ENDBRANCH  11  29
TORSDOF 7
