REMARK  Name = ZINC12469293
REMARK  4 active torsions:
REMARK  status: ('A' for Active; 'I' for Inactive)
REMARK    1  A    between atoms: C_1  and  C_2
REMARK    2  A    between atoms: C_5  and  C_8
REMARK    3  A    between atoms: C_11  and  C_20
REMARK    4  A    between atoms: C_25  and  C_26
REMARK                            x       y       z     vdW  Elec       q    Type
REMARK                         _______ _______ _______ _____ _____    ______ ____
ROOT
ATOM      1  C   UNL     1       0.648  -3.749  -0.382  0.00  0.00    +0.106 C 
ATOM      2  C   UNL     1       1.965  -4.451  -0.029  0.00  0.00    +0.058 C 
ATOM      3  C   UNL     1       1.756  -5.970  -0.021  0.00  0.00    +0.143 C 
ATOM      4  N   UNL     1       0.571  -6.279   0.778  0.00  0.00    -0.224 N 
ATOM      5  C   UNL     1      -0.395  -5.382   1.089  0.00  0.00    +0.216 A 
ATOM      6  N   UNL     1      -1.298  -5.990   1.811  0.00  0.00    -0.180 NA
ATOM      7  C   UNL     1      -0.946  -7.273   1.980  0.00  0.00    +0.233 A 
ATOM      8  N   UNL     1       0.194  -7.490   1.361  0.00  0.00    -0.132 NA
ATOM      9  N   UNL     1      -1.671  -8.225   2.697  0.00  0.00    -0.326 N 
ATOM     10  N   UNL     1      -0.349  -4.061   0.660  0.00  0.00    -0.307 N 
ATOM     11  H   UNL     1      -2.506  -7.978   3.124  0.00  0.00    +0.145 HD
ATOM     12  H   UNL     1      -1.341  -9.134   2.769  0.00  0.00    +0.145 HD
ATOM     13  H   UNL     1      -0.937  -3.382   1.027  0.00  0.00    +0.149 HD
ENDROOT
BRANCH   1  18
ATOM     14  C   UNL     1       1.490   1.963  -0.611  0.00  0.00    +0.044 C 
ATOM     15  C   UNL     1       1.270   0.473  -0.551  0.00  0.00    -0.050 A 
ATOM     16  C   UNL     1       1.225  -0.266  -1.719  0.00  0.00    +0.004 A 
ATOM     17  C   UNL     1       1.023  -1.633  -1.664  0.00  0.00    +0.006 A 
ATOM     18  C   UNL     1       0.868  -2.260  -0.442  0.00  0.00    -0.027 A 
ATOM     19  C   UNL     1       0.915  -1.521   0.726  0.00  0.00    +0.006 A 
ATOM     20  C   UNL     1       1.120  -0.155   0.671  0.00  0.00    +0.004 A 
ENDBRANCH   1  18
BRANCH   3  21
ATOM     21  C   UNL     1       2.963  -6.642   0.580  0.00  0.00    -0.020 A 
ATOM     22  C   UNL     1       3.411  -6.267   1.833  0.00  0.00    +0.006 A 
ATOM     23  C   UNL     1       4.518  -6.884   2.385  0.00  0.00    +0.000 A 
ATOM     24  C   UNL     1       5.178  -7.876   1.684  0.00  0.00    +0.000 A 
ATOM     25  C   UNL     1       4.730  -8.252   0.431  0.00  0.00    +0.004 A 
ATOM     26  C   UNL     1       3.620  -7.638  -0.119  0.00  0.00    -0.045 A 
ATOM     27  C   UNL     1       3.128  -8.051  -1.482  0.00  0.00    +0.044 C 
ENDBRANCH   3  21
TORSDOF 2
