REMARK  Name = ZINC40752154
REMARK  5 active torsions:
REMARK  status: ('A' for Active; 'I' for Inactive)
REMARK    1  A    between atoms: C_9  and  O_11
REMARK    2  A    between atoms: O_11  and  C_12
REMARK    3  A    between atoms: C_13  and  N_27
REMARK    4  A    between atoms: C_14  and  N_18
REMARK    5  A    between atoms: N_18  and  C_19
REMARK                            x       y       z     vdW  Elec       q    Type
REMARK                         _______ _______ _______ _____ _____    ______ ____
ROOT
ATOM      1  C   UNL     1       0.006  -2.696   0.056  0.00  0.00    +0.246 A 
ATOM      2  C   UNL     1      -0.043  -4.085   0.171  0.00  0.00    +0.128 A 
ATOM      3  C   UNL     1      -1.294  -4.692   0.305  0.00  0.00    +0.151 A 
ATOM      4  N   UNL     1      -2.383  -3.928   0.317  0.00  0.00    -0.218 NA
ATOM      5  C   UNL     1      -2.291  -2.619   0.205  0.00  0.00    +0.227 A 
ATOM      6  N   UNL     1      -1.131  -2.007   0.082  0.00  0.00    -0.199 NA
ENDROOT
BRANCH   2   7
ATOM      7  N   UNL     1       1.133  -4.851   0.153  0.00  0.00    -0.351 N 
ATOM      8  H   UNL     1       1.994  -4.416   0.059  0.00  0.00    +0.143 HD
ATOM      9  H   UNL     1       1.083  -5.817   0.235  0.00  0.00    +0.143 HD
ENDBRANCH   2   7
BRANCH   3  10
ATOM     10  N   UNL     1      -1.399  -6.073   0.424  0.00  0.00    -0.297 N 
ATOM     11  H   UNL     1      -0.599  -6.616   0.501  0.00  0.00    +0.154 HD
BRANCH  10  12
ATOM     12  C   UNL     1      -2.659  -6.681   0.431  0.00  0.00    +0.051 A 
ATOM     13  C   UNL     1      -3.740  -6.048  -0.168  0.00  0.00    +0.026 A 
ATOM     14  C   UNL     1      -4.983  -6.649  -0.159  0.00  0.00    +0.022 A 
ATOM     15  C   UNL     1      -5.153  -7.882   0.447  0.00  0.00    +0.042 A 
ATOM     16  C   UNL     1      -4.078  -8.516   1.045  0.00  0.00    +0.041 A 
ATOM     17  C   UNL     1      -2.830  -7.922   1.033  0.00  0.00    +0.063 A 
ATOM     18 CL   UNL     1      -1.480  -8.721   1.777  0.00  0.00    -0.082 Cl
ATOM     19 CL   UNL     1      -6.717  -8.635   0.456  0.00  0.00    -0.083 Cl
ENDBRANCH  10  12
ENDBRANCH   3  10
BRANCH   1  20
ATOM     20  O   UNL     1       1.196  -2.058  -0.076  0.00  0.00    -0.434 OA
BRANCH  20  29
ATOM     21  C   UNL     1       1.265   1.385  -1.279  0.00  0.00    +0.004 A 
ATOM     22  C   UNL     1       1.191   2.098  -0.121  0.00  0.00    +0.010 A 
ATOM     23  C   UNL     1       1.115   1.427   1.110  0.00  0.00    +0.004 A 
ATOM     24  C   UNL     1       1.038   2.134   2.325  0.00  0.00    +0.011 A 
ATOM     25  C   UNL     1       0.966   1.417   3.485  0.00  0.00    +0.020 A 
ATOM     26  C   UNL     1       0.971   0.024   3.442  0.00  0.00    +0.111 A 
ATOM     27  N   UNL     1       1.044  -0.630   2.309  0.00  0.00    -0.251 NA
ATOM     28  C   UNL     1       1.116   0.011   1.140  0.00  0.00    +0.113 A 
ATOM     29  C   UNL     1       1.194  -0.699  -0.077  0.00  0.00    +0.156 A 
ATOM     30  C   UNL     1       1.266  -0.006  -1.264  0.00  0.00    +0.048 A 
ENDBRANCH  20  29
ENDBRANCH   1  20
TORSDOF 5
