REMARK  Name = ZINC54968906
REMARK  10 active torsions:
REMARK  status: ('A' for Active; 'I' for Inactive)
REMARK    1  A    between atoms: C_1  and  C_2
REMARK    2  A    between atoms: C_2  and  C_3
REMARK    3  A    between atoms: C_3  and  N_4
REMARK    4  A    between atoms: N_4  and  C_5
REMARK    5  A    between atoms: C_5  and  C_6
REMARK    6  A    between atoms: C_7  and  C_18
REMARK    7  A    between atoms: C_15  and  C_17
REMARK    8  A    between atoms: C_18  and  C_19
REMARK    9  A    between atoms: C_18  and  C_20
REMARK   10  A    between atoms: C_18  and  C_21
REMARK                            x       y       z     vdW  Elec       q    Type
REMARK                         _______ _______ _______ _____ _____    ______ ____
ROOT
ATOM      1  C   UNL     1      -2.660  -4.110  -0.130  0.00  0.00    -0.002 A 
ATOM      2  C   UNL     1      -2.765  -5.023   0.865  0.00  0.00    +0.057 A 
ATOM      3  N   UNL     1      -2.743  -6.297   0.516  0.00  0.00    -0.229 NA
ATOM      4  C   UNL     1      -2.624  -6.654  -0.745  0.00  0.00    +0.161 A 
ATOM      5  S   UNL     1      -2.540  -5.181  -1.554  0.00  0.00    -0.059 S 
ATOM      6  N   UNL     1      -2.584  -7.933  -1.278  0.00  0.00    -0.307 N 
ATOM      7  C   UNL     1      -2.676  -9.187  -0.509  0.00  0.00    +0.107 C 
ATOM      8  C   UNL     1      -3.201 -10.236  -1.522  0.00  0.00    +0.021 C 
ATOM      9  C   UNL     1      -2.476  -9.801  -2.824  0.00  0.00    +0.024 C 
ATOM     10  C   UNL     1      -2.449  -8.263  -2.704  0.00  0.00    +0.072 C 
ATOM     11  C   UNL     1      -1.120  -7.725  -3.239  0.00  0.00    +0.028 C 
ENDROOT
BRANCH   2  12
ATOM     12  C   UNL     1      -2.900  -4.604   2.306  0.00  0.00    +0.005 C 
ATOM     13  C   UNL     1      -4.243  -3.899   2.509  0.00  0.00    +0.017 C 
ATOM     14  C   UNL     1      -2.831  -5.840   3.205  0.00  0.00    +0.017 C 
ATOM     15  C   UNL     1      -1.762  -3.646   2.668  0.00  0.00    +0.017 C 
ENDBRANCH   2  12
BRANCH   1  16
ATOM     16  C   UNL     1      -2.653  -2.604  -0.057  0.00  0.00    -0.037 C 
BRANCH  16  17
ATOM     17  N   UNL     1      -1.266  -2.120  -0.068  0.00  0.00    +0.382 N 
ATOM     18  H   UNL     1      -0.793  -2.473  -0.887  0.00  0.00    -0.085 HD
ATOM     19  H   UNL     1      -0.790  -2.443   0.761  0.00  0.00    -0.085 HD
BRANCH  17  20
ATOM     20  C   UNL     1      -1.261  -0.651  -0.095  0.00  0.00    -0.082 C 
BRANCH  20  22
ATOM     21  C   UNL     1       0.189   1.383  -0.135  0.00  0.00    +0.002 C 
ATOM     22  C   UNL     1       0.184  -0.147  -0.107  0.00  0.00    -0.022 C 
ENDBRANCH  20  22
ENDBRANCH  17  20
ENDBRANCH  16  17
ENDBRANCH   1  16
TORSDOF 5
