REMARK  Name = ZINC00527650
REMARK  5 active torsions:
REMARK  status: ('A' for Active; 'I' for Inactive)
REMARK    1  A    between atoms: C_4  and  C_7
REMARK    2  A    between atoms: C_7  and  S_8
REMARK    3  A    between atoms: S_8  and  C_9
REMARK    4  A    between atoms: C_12  and  C_15
REMARK    5  A    between atoms: N_13  and  N_14
REMARK                            x       y       z     vdW  Elec       q    Type
REMARK                         _______ _______ _______ _____ _____    ______ ____
ROOT
ATOM      1  C   UNL     1       5.673  -1.984  -1.481  0.00  0.00    +0.209 A 
ATOM      2  N   UNL     1       6.214  -2.278  -0.320  0.00  0.00    -0.121 NA
ATOM      3  N   UNL     1       7.410  -2.716  -0.489  0.00  0.00    -0.127 NA
ATOM      4  C   UNL     1       7.710  -2.720  -1.768  0.00  0.00    +0.184 A 
ATOM      5  N   UNL     1       6.606  -2.251  -2.442  0.00  0.00    -0.224 N 
ENDROOT
BRANCH   4   6
ATOM      6  C   UNL     1       8.990  -3.148  -2.369  0.00  0.00    +0.056 A 
ATOM      7  C   UNL     1       9.607  -2.359  -3.340  0.00  0.00    +0.014 A 
ATOM      8  C   UNL     1      10.803  -2.763  -3.897  0.00  0.00    +0.001 A 
ATOM      9  C   UNL     1      11.391  -3.950  -3.496  0.00  0.00    +0.003 A 
ATOM     10  C   UNL     1      10.787  -4.739  -2.534  0.00  0.00    +0.039 A 
ATOM     11  C   UNL     1       9.592  -4.343  -1.963  0.00  0.00    +0.134 A 
ATOM     12  F   UNL     1       9.004  -5.111  -1.020  0.00  0.00    -0.205 F 
ENDBRANCH   4   6
BRANCH   5  13
ATOM     13  N   UNL     1       6.471  -2.087  -3.791  0.00  0.00    -0.295 N 
ATOM     14  H   UNL     1       6.843  -1.196  -4.086  0.00  0.00    +0.163 HD
ATOM     15  H   UNL     1       6.909  -2.845  -4.293  0.00  0.00    +0.163 HD
ENDBRANCH   5  13
BRANCH   1  16
ATOM     16  S   UNL     1       4.049  -1.354  -1.747  0.00  0.00    -0.080 S 
BRANCH  16  17
ATOM     17  C   UNL     1       3.458  -1.278  -0.038  0.00  0.00    +0.112 C 
BRANCH  17  21
ATOM     18  C   UNL     1      -0.545   0.214   0.017  0.00  0.00    +0.000 A 
ATOM     19  C   UNL     1       0.520   1.091   0.103  0.00  0.00    +0.000 A 
ATOM     20  C   UNL     1       1.816   0.608   0.085  0.00  0.00    +0.004 A 
ATOM     21  C   UNL     1       2.046  -0.751  -0.018  0.00  0.00    -0.037 A 
ATOM     22  C   UNL     1       0.980  -1.628  -0.104  0.00  0.00    +0.004 A 
ATOM     23  C   UNL     1      -0.315  -1.145  -0.086  0.00  0.00    +0.000 A 
ENDBRANCH  17  21
ENDBRANCH  16  17
ENDBRANCH   1  16
TORSDOF 5
