REMARK  Name = ZINC01504285
REMARK  13 active torsions:
REMARK  status: ('A' for Active; 'I' for Inactive)
REMARK    1  A    between atoms: C_1  and  C_2
REMARK    2  A    between atoms: C_2  and  C_26
REMARK    3  A    between atoms: C_4  and  N_9
REMARK    4  A    between atoms: C_6  and  C_7
REMARK    5  A    between atoms: C_6  and  C_8
REMARK    6  A    between atoms: C_10  and  C_12
REMARK    7  A    between atoms: C_12  and  C_13
REMARK    8  A    between atoms: C_13  and  C_14
REMARK    9  A    between atoms: N_16  and  C_17
REMARK   10  A    between atoms: C_19  and  C_24
REMARK   11  A    between atoms: C_19  and  C_25
REMARK   12  A    between atoms: C_20  and  C_22
REMARK   13  A    between atoms: C_20  and  C_23
REMARK                            x       y       z     vdW  Elec       q    Type
REMARK                         _______ _______ _______ _____ _____    ______ ____
ROOT
ATOM      1  C   UNL     1       0.105   7.210  -2.379  0.00  0.00    +0.105 C 
ENDROOT
BRANCH   1   3
ATOM      2  N   UNL     1       0.389   5.051  -1.207  0.00  0.00    -0.313 N 
ATOM      3  C   UNL     1       0.113   5.703  -2.353  0.00  0.00    +0.214 C 
ATOM      4  O   UNL     1      -0.129   5.078  -3.364  0.00  0.00    -0.276 OA
ATOM      5  H   UNL     1       0.582   5.550  -0.398  0.00  0.00    +0.149 HD
BRANCH   2   9
ATOM      6  C   UNL     1      -0.944   0.975  -2.269  0.00  0.00    -0.010 C 
ATOM      7  C   UNL     1      -1.042   1.551  -0.852  0.00  0.00    -0.072 C 
ATOM      8  C   UNL     1      -1.022   3.076  -0.918  0.00  0.00    +0.009 C 
ATOM      9  C   UNL     1       0.396   3.583  -1.181  0.00  0.00    +0.070 C 
ATOM     10  C   UNL     1       1.298   3.104  -0.042  0.00  0.00    +0.009 C 
ATOM     11  C   UNL     1       1.320   1.577  -0.002  0.00  0.00    -0.072 C 
ATOM     12  C   UNL     1       2.035   1.156   1.301  0.00  0.00    -0.010 C 
ATOM     13  C   UNL     1       2.151   1.041  -1.172  0.00  0.00    -0.010 C 
ATOM     14  C   UNL     1      -2.415   1.129  -0.282  0.00  0.00    -0.010 C 
ATOM     15  N   UNL     1      -0.027   0.947   0.053  0.00  0.00    +0.386 N 
ATOM     16  H   UNL     1       0.074  -0.044  -0.199  0.00  0.00    -0.084 HD
ATOM     17  H   UNL     1      -0.375   1.022   1.016  0.00  0.00    -0.084 HD
ENDBRANCH   2   9
ENDBRANCH   1   3
BRANCH   1  18
ATOM     18  C   UNL     1      -0.234   7.694  -3.790  0.00  0.00    +0.105 C 
BRANCH  18  19
ATOM     19  C   UNL     1      -0.242   9.201  -3.816  0.00  0.00    +0.214 C 
ATOM     20  O   UNL     1       0.000   9.826  -2.805  0.00  0.00    -0.276 OA
ATOM     21  N   UNL     1      -0.517   9.854  -4.963  0.00  0.00    -0.313 N 
ATOM     22  H   UNL     1      -0.711   9.354  -5.771  0.00  0.00    +0.149 HD
BRANCH  21  23
ATOM     23  C   UNL     1      -0.525  11.322  -4.988  0.00  0.00    +0.070 C 
ATOM     24  C   UNL     1      -1.907  11.825  -4.573  0.00  0.00    +0.009 C 
ATOM     25  C   UNL     1      -1.950  13.351  -4.611  0.00  0.00    -0.072 C 
ATOM     26  C   UNL     1      -0.264  13.328  -6.472  0.00  0.00    -0.072 C 
ATOM     27  C   UNL     1      -0.240  11.802  -6.410  0.00  0.00    +0.009 C 
ATOM     28  C   UNL     1       1.021  13.886  -5.848  0.00  0.00    -0.010 C 
ATOM     29  C   UNL     1      -0.262  13.733  -7.963  0.00  0.00    -0.010 C 
ATOM     30  C   UNL     1      -1.194  13.915  -3.401  0.00  0.00    -0.010 C 
ATOM     31  C   UNL     1      -3.428  13.779  -4.466  0.00  0.00    -0.010 C 
ATOM     32  N   UNL     1      -1.475  13.960  -5.882  0.00  0.00    +0.386 N 
ATOM     33  H   UNL     1      -1.261  14.948  -5.701  0.00  0.00    -0.084 HD
ATOM     34  H   UNL     1      -2.235  13.894  -6.569  0.00  0.00    -0.084 HD
ENDBRANCH  21  23
ENDBRANCH  18  19
ENDBRANCH   1  18
TORSDOF 5
