REMARK  Name = ZINC03984867
REMARK  8 active torsions:
REMARK  status: ('A' for Active; 'I' for Inactive)
REMARK    1  A    between atoms: C_1  and  C_2
REMARK    2  A    between atoms: C_7  and  N_8
REMARK    3  A    between atoms: C_11  and  C_18
REMARK    4  A    between atoms: C_12  and  O_17
REMARK    5  A    between atoms: C_22  and  O_30
REMARK    6  A    between atoms: C_23  and  O_28
REMARK    7  A    between atoms: O_28  and  C_29
REMARK    8  A    between atoms: O_30  and  C_31
REMARK                            x       y       z     vdW  Elec       q    Type
REMARK                         _______ _______ _______ _____ _____    ______ ____
ROOT
ATOM      1  N   UNL     1       2.357   3.889  -0.001  0.00  0.00    -0.229 N 
ATOM      2  C   UNL     1       2.940   4.232   1.166  0.00  0.00    +0.267 A 
ATOM      3  O   UNL     1       2.424   3.918   2.225  0.00  0.00    -0.267 OA
ATOM      4  C   UNL     1       4.149   4.948   1.153  0.00  0.00    +0.067 A 
ATOM      5  C   UNL     1       4.702   5.292  -0.045  0.00  0.00    +0.201 A 
ATOM      6  N   UNL     1       4.073   4.929  -1.209  0.00  0.00    -0.278 N 
ATOM      7  H   UNL     1       4.474   5.179  -2.090  0.00  0.00    +0.173 HD
ATOM      8  C   UNL     1       2.919   4.238  -1.172  0.00  0.00    +0.337 A 
ATOM      9  O   UNL     1       2.376   3.925  -2.214  0.00  0.00    -0.246 OA
ENDROOT
BRANCH   4  10
ATOM     10  C   UNL     1       4.822   5.336   2.444  0.00  0.00    +0.001 C 
ATOM     11  C   UNL     1       5.265   4.091   3.168  0.00  0.00    -0.050 A 
ATOM     12  C   UNL     1       5.846   3.071   2.428  0.00  0.00    +0.052 A 
ATOM     13  C   UNL     1       6.272   1.911   3.048  0.00  0.00    +0.162 A 
ATOM     14  C   UNL     1       6.116   1.767   4.424  0.00  0.00    +0.162 A 
ATOM     15  C   UNL     1       5.534   2.785   5.157  0.00  0.00    +0.053 A 
ATOM     16  C   UNL     1       5.107   3.946   4.529  0.00  0.00    -0.044 A 
ATOM     17  C   UNL     1       4.470   5.023   5.371  0.00  0.00    +0.016 C 
ATOM     18  C   UNL     1       4.454   6.345   4.602  0.00  0.00    -0.077 C 
ATOM     19  N   UNL     1       3.876   6.104   3.267  0.00  0.00    +0.387 N 
ATOM     20  H   UNL     1       3.002   5.574   3.364  0.00  0.00    -0.085 HD
ATOM     21  H   UNL     1       3.682   7.003   2.812  0.00  0.00    -0.085 HD
BRANCH  14  22
ATOM     22  O   UNL     1       6.533   0.631   5.044  0.00  0.00    -0.491 OA
ATOM     23  C   UNL     1       6.339   0.554   6.458  0.00  0.00    +0.277 C 
ENDBRANCH  14  22
BRANCH  13  24
ATOM     24  O   UNL     1       6.841   0.915   2.317  0.00  0.00    -0.491 OA
ATOM     25  C   UNL     1       6.968   1.133   0.911  0.00  0.00    +0.277 C 
ENDBRANCH  13  24
ENDBRANCH   4  10
BRANCH   1  32
ATOM     26  C   UNL     1      -0.085   5.351   0.031  0.00  0.00    +0.046 C 
ATOM     27  C   UNL     1      -0.059   3.844   0.022  0.00  0.00    -0.026 A 
ATOM     28  C   UNL     1      -1.243   3.133   0.030  0.00  0.00    +0.005 A 
ATOM     29  C   UNL     1      -1.220   1.750   0.017  0.00  0.00    +0.000 A 
ATOM     30  C   UNL     1      -0.013   1.076   0.008  0.00  0.00    +0.002 A 
ATOM     31  C   UNL     1       1.174   1.782   0.000  0.00  0.00    +0.026 A 
ATOM     32  C   UNL     1       1.155   3.170   0.008  0.00  0.00    +0.057 A 
ENDBRANCH   1  32
BRANCH   5  33
ATOM     33  O   UNL     1       5.861   5.985  -0.086  0.00  0.00    -0.493 OA
ATOM     34  H   UNL     1       6.171   6.180  -0.981  0.00  0.00    +0.294 HD
ENDBRANCH   5  33
TORSDOF 5
