REMARK  Name = ZINC58853385
REMARK  8 active torsions:
REMARK  status: ('A' for Active; 'I' for Inactive)
REMARK    1  A    between atoms: C_1  and  C_2
REMARK    2  A    between atoms: C_2  and  C_3
REMARK    3  A    between atoms: C_2  and  C_4
REMARK    4  A    between atoms: C_4  and  C_5
REMARK    5  A    between atoms: C_4  and  N_18
REMARK    6  A    between atoms: C_5  and  N_6
REMARK    7  A    between atoms: C_7  and  C_9
REMARK    8  A    between atoms: N_21  and  C_24
REMARK                            x       y       z     vdW  Elec       q    Type
REMARK                         _______ _______ _______ _____ _____    ______ ____
ROOT
ATOM      1  C   UNL     1      -1.583  -1.865  -0.444  0.00  0.00    +0.123 C 
ENDROOT
BRANCH   1   2
ATOM      2  N   UNL     1      -2.967  -2.129  -0.846  0.00  0.00    -0.310 N 
ATOM      3  C   UNL     1      -3.434  -3.393  -0.864  0.00  0.00    +0.246 C 
ATOM      4  O   UNL     1      -2.707  -4.314  -0.547  0.00  0.00    -0.270 OA
ATOM      5  H   UNL     1      -3.547  -1.394  -1.099  0.00  0.00    +0.149 HD
BRANCH   3   6
ATOM      6  C   UNL     1      -4.827  -3.658  -1.269  0.00  0.00    +0.054 A 
ATOM      7  C   UNL     1      -5.676  -2.590  -1.645  0.00  0.00    +0.040 A 
ATOM      8  C   UNL     1      -6.957  -2.863  -2.014  0.00  0.00    +0.106 A 
ATOM      9  C   UNL     1      -7.408  -4.198  -2.014  0.00  0.00    +0.267 A 
ATOM     10  O   UNL     1      -8.555  -4.449  -2.345  0.00  0.00    -0.266 OA
ATOM     11  N   UNL     1      -6.583  -5.197  -1.653  0.00  0.00    -0.327 N 
ATOM     12  H   UNL     1      -6.909  -6.111  -1.659  0.00  0.00    +0.168 HD
ATOM     13  C   UNL     1      -5.310  -4.950  -1.290  0.00  0.00    +0.099 A 
ATOM     14 CL   UNL     1      -8.027  -1.578  -2.480  0.00  0.00    -0.078 Cl
ENDBRANCH   3   6
ENDBRANCH   1   2
BRANCH   1  15
ATOM     15  C   UNL     1      -1.359  -0.354  -0.349  0.00  0.00    +0.076 C 
BRANCH  15  16
ATOM     16  N   UNL     1      -2.193   0.198   0.726  0.00  0.00    -0.301 NA
ATOM     17  C   UNL     1      -2.355  -0.771   1.819  0.00  0.00    +0.066 C 
ATOM     18  C   UNL     1      -3.179  -0.137   2.942  0.00  0.00    -0.064 C 
ATOM     19  N   UNL     1      -4.492   0.262   2.420  0.00  0.00    +0.379 N 
ATOM     20  C   UNL     1      -4.316   1.248   1.346  0.00  0.00    -0.064 C 
ATOM     21  C   UNL     1      -3.501   0.626   0.210  0.00  0.00    +0.066 C 
ATOM     22  C   UNL     1      -5.290   0.854   3.502  0.00  0.00    -0.096 C 
ATOM     23  H   UNL     1      -4.970  -0.549   2.056  0.00  0.00    -0.082 HD
ENDBRANCH  15  16
BRANCH  15  25
ATOM     24  C   UNL     1       0.354   1.435  -0.021  0.00  0.00    +0.009 C 
ATOM     25  C   UNL     1       0.115  -0.076  -0.045  0.00  0.00    +0.001 C 
ATOM     26  C   UNL     1       0.476  -0.671   1.318  0.00  0.00    +0.009 C 
ENDBRANCH  15  25
ENDBRANCH   1  15
TORSDOF 5
