REMARK  Name = ZINC12300190
REMARK  11 active torsions:
REMARK  status: ('A' for Active; 'I' for Inactive)
REMARK    1  A    between atoms: C_1  and  C_2
REMARK    2  A    between atoms: C_2  and  C_3
REMARK    3  A    between atoms: C_2  and  C_4
REMARK    4  A    between atoms: C_2  and  C_5
REMARK    5  A    between atoms: C_5  and  N_6
REMARK    6  A    between atoms: C_10  and  C_13
REMARK    7  A    between atoms: C_10  and  O_27
REMARK    8  A    between atoms: C_13  and  N_56
REMARK    9  A    between atoms: C_14  and  C_15
REMARK   10  A    between atoms: C_14  and  N_56
REMARK   11  A    between atoms: C_20  and  C_21
REMARK                            x       y       z     vdW  Elec       q    Type
REMARK                         _______ _______ _______ _____ _____    ______ ____
ROOT
ATOM      1  N   UNL     1      -1.895  -0.046   0.233  0.00  0.00    +0.384 N 
ATOM      2  H   UNL     1      -2.566   0.223  -0.496  0.00  0.00    -0.085 HD
ATOM      3  H   UNL     1      -2.296   0.151   1.158  0.00  0.00    -0.085 HD
ENDROOT
BRANCH   1   4
ATOM      4  C   UNL     1      -0.655   0.735   0.064  0.00  0.00    -0.037 C 
BRANCH   4   9
ATOM      5  N   UNL     1       0.640   3.984   1.067  0.00  0.00    -0.299 N 
ATOM      6  C   UNL     1      -0.174   4.377   2.211  0.00  0.00    +0.108 C 
ATOM      7  C   UNL     1      -1.609   3.875   2.044  0.00  0.00    +0.022 C 
ATOM      8  C   UNL     1      -1.571   2.380   1.706  0.00  0.00    +0.044 C 
ATOM      9  C   UNL     1      -0.956   2.214   0.314  0.00  0.00    +0.127 C 
ATOM     10  C   UNL     1       0.317   3.006   0.220  0.00  0.00    +0.245 C 
ATOM     11  O   UNL     1       1.093   2.741  -0.674  0.00  0.00    -0.273 OA
BRANCH   9  12
ATOM     12  O   UNL     1      -1.880   2.683  -0.670  0.00  0.00    -0.381 OA
ATOM     13  H   UNL     1      -1.559   2.606  -1.579  0.00  0.00    +0.211 HD
ENDBRANCH   9  12
BRANCH   5  14
ATOM     14  C   UNL     1       1.890   4.710   0.832  0.00  0.00    +0.114 C 
BRANCH  14  16
ATOM     15  C   UNL     1       0.609   6.842   0.595  0.00  0.00    +0.012 C 
ATOM     16  C   UNL     1       1.621   5.911  -0.077  0.00  0.00    -0.022 C 
ATOM     17  C   UNL     1       2.927   6.669  -0.322  0.00  0.00    +0.012 C 
ATOM     18  C   UNL     1       1.056   5.423  -1.413  0.00  0.00    +0.012 C 
ENDBRANCH  14  16
ENDBRANCH   5  14
ENDBRANCH   4   9
ENDBRANCH   1   4
BRANCH   1  19
ATOM     19  C   UNL     1      -1.610  -1.489   0.124  0.00  0.00    -0.043 C 
BRANCH  19  20
ATOM     20  C   UNL     1      -2.905  -2.255   0.202  0.00  0.00    -0.019 A 
ATOM     21  C   UNL     1      -3.535  -2.859  -0.829  0.00  0.00    +0.107 A 
ATOM     22  N   UNL     1      -4.657  -3.438  -0.350  0.00  0.00    -0.284 N 
ATOM     23  H   UNL     1      -5.321  -3.962  -0.884  0.00  0.00    +0.188 HD
ATOM     24  N   UNL     1      -4.730  -3.177   1.024  0.00  0.00    -0.174 NA
ATOM     25  C   UNL     1      -3.676  -2.464   1.362  0.00  0.00    +0.094 A 
BRANCH  25  26
ATOM     26  C   UNL     1      -3.358  -1.968   2.724  0.00  0.00    +0.002 A 
ATOM     27  C   UNL     1      -2.053  -2.042   3.207  0.00  0.00    +0.010 A 
ATOM     28  C   UNL     1      -1.762  -1.574   4.473  0.00  0.00    +0.001 A 
ATOM     29  C   UNL     1      -2.763  -1.043   5.264  0.00  0.00    +0.000 A 
ATOM     30  C   UNL     1      -4.061  -0.971   4.791  0.00  0.00    +0.001 A 
ATOM     31  C   UNL     1      -4.363  -1.431   3.525  0.00  0.00    +0.010 A 
ENDBRANCH  25  26
ENDBRANCH  19  20
ENDBRANCH   1  19
TORSDOF 8
