REMARK  Name = ZINC32438001
REMARK  11 active torsions:
REMARK  status: ('A' for Active; 'I' for Inactive)
REMARK    1  A    between atoms: C_1  and  C_2
REMARK    2  A    between atoms: C_2  and  O_3
REMARK    3  A    between atoms: O_3  and  C_4
REMARK    4  A    between atoms: C_4  and  C_6
REMARK    5  A    between atoms: C_9  and  S_13
REMARK    6  A    between atoms: S_13  and  N_16
REMARK    7  A    between atoms: N_16  and  C_17
REMARK    8  A    between atoms: C_17  and  C_18
REMARK    9  A    between atoms: C_23  and  N_24
REMARK   10  A    between atoms: N_24  and  C_25
REMARK   11  A    between atoms: N_24  and  C_26
REMARK                            x       y       z     vdW  Elec       q    Type
REMARK                         _______ _______ _______ _____ _____    ______ ____
ROOT
ATOM      1  S   UNL     1       0.939  -4.227   2.140  0.00  0.00    +0.060 S 
ATOM      2  O   UNL     1       1.158  -4.209   3.544  0.00  0.00    -0.153 OA
ATOM      3  O   UNL     1       0.267  -5.296   1.488  0.00  0.00    -0.153 OA
ENDROOT
BRANCH   1   7
ATOM      4  C   UNL     1       5.014  -3.876   0.187  0.00  0.00    +0.060 A 
ATOM      5  C   UNL     1       4.123  -4.872  -0.220  0.00  0.00    +0.017 A 
ATOM      6  C   UNL     1       2.885  -4.973   0.379  0.00  0.00    +0.030 A 
ATOM      7  C   UNL     1       2.523  -4.091   1.381  0.00  0.00    +0.119 A 
ATOM      8  C   UNL     1       3.398  -3.098   1.786  0.00  0.00    +0.045 A 
ATOM      9  C   UNL     1       4.643  -2.989   1.200  0.00  0.00    +0.032 A 
ATOM     10 BR   UNL     1       2.890  -1.892   3.151  0.00  0.00    -0.048 Br
BRANCH   4  11
ATOM     11  C   UNL     1       6.342  -3.763  -0.450  0.00  0.00    +0.339 C 
ATOM     12  O   UNL     1       6.662  -4.536  -1.330  0.00  0.00    -0.245 OA
BRANCH  11  13
ATOM     13  O   UNL     1       7.198  -2.801  -0.054  0.00  0.00    -0.461 OA
BRANCH  13  15
ATOM     14  C   UNL     1       9.315  -1.601  -0.145  0.00  0.00    +0.048 C 
ATOM     15  C   UNL     1       8.486  -2.749  -0.724  0.00  0.00    +0.229 C 
ENDBRANCH  13  15
ENDBRANCH  11  13
ENDBRANCH   4  11
ENDBRANCH   1   7
BRANCH   1  16
ATOM     16  N   UNL     1       0.100  -2.847   1.774  0.00  0.00    -0.185 NA
ATOM     17  H   UNL     1      -0.037  -2.080   2.551  0.00  0.00    +0.148 HD
BRANCH  16  18
ATOM     18  C   UNL     1      -0.260  -2.556   0.385  0.00  0.00    +0.144 C 
BRANCH  18  19
ATOM     19  C   UNL     1      -1.329  -1.494   0.355  0.00  0.00    +0.006 A 
ATOM     20  C   UNL     1      -2.652  -1.837   0.135  0.00  0.00    +0.009 A 
ATOM     21  C   UNL     1      -3.603  -0.826   0.116  0.00  0.00    +0.018 A 
ATOM     22  C   UNL     1      -3.206   0.481   0.314  0.00  0.00    +0.084 A 
ATOM     23  N   UNL     1      -1.938   0.778   0.526  0.00  0.00    -0.349 N 
ATOM     24  C   UNL     1      -1.000  -0.157   0.547  0.00  0.00    +0.103 A 
ATOM     25  H   UNL     1      -1.639   1.823   0.692  0.00  0.00    +0.167 HD
BRANCH  24  26
ATOM     26  N   UNL     1       0.324   0.202   0.770  0.00  0.00    -0.323 N 
ATOM     27  C   UNL     1       0.841   1.020  -0.336  0.00  0.00    +0.130 C 
ATOM     28  C   UNL     1       0.473   0.898   2.054  0.00  0.00    +0.130 C 
ENDBRANCH  24  26
ENDBRANCH  18  19
ENDBRANCH  16  18
ENDBRANCH   1  16
TORSDOF 8
