REMARK  Name = ZINC54555333
REMARK  9 active torsions:
REMARK  status: ('A' for Active; 'I' for Inactive)
REMARK    1  A    between atoms: C_1  and  C_2
REMARK    2  A    between atoms: C_2  and  C_3
REMARK    3  A    between atoms: C_7  and  C_25
REMARK    4  A    between atoms: N_10  and  C_11
REMARK    5  A    between atoms: C_14  and  C_22
REMARK    6  A    between atoms: C_18  and  N_20
REMARK    7  A    between atoms: N_20  and  C_21
REMARK    8  A    between atoms: C_22  and  C_23
REMARK    9  A    between atoms: C_22  and  C_24
REMARK                            x       y       z     vdW  Elec       q    Type
REMARK                         _______ _______ _______ _____ _____    ______ ____
ROOT
ATOM      1  C   UNL     1       2.734   1.057   1.649  0.00  0.00    -0.050 C 
ATOM      2  C   UNL     1       1.646   0.971   0.578  0.00  0.00    -0.010 C 
ATOM      3  C   UNL     1       1.014   2.350   0.381  0.00  0.00    -0.010 C 
ATOM      4  C   UNL     1       2.089   3.345  -0.063  0.00  0.00    +0.005 C 
ATOM      5  C   UNL     1       3.177   3.431   1.009  0.00  0.00    +0.017 C 
ATOM      6  C   UNL     1       3.809   2.052   1.206  0.00  0.00    +0.040 C 
ENDROOT
BRANCH   1  12
ATOM      7  C   UNL     1       4.321  -0.206   2.932  0.00  0.00    -0.042 C 
ATOM      8  C   UNL     1       4.952  -1.587   3.128  0.00  0.00    +0.145 C 
ATOM      9  O   UNL     1       5.558  -2.006   1.902  0.00  0.00    -0.380 OA
ATOM     10  C   UNL     1       4.648  -2.059   0.800  0.00  0.00    +0.099 C 
ATOM     11  C   UNL     1       4.016  -0.679   0.600  0.00  0.00    -0.046 C 
ATOM     12  N   UNL     1       3.341  -0.267   1.839  0.00  0.00    +0.388 N 
ATOM     13  C   UNL     1       3.552  -3.086   1.092  0.00  0.00    +0.036 C 
ATOM     14  H   UNL     1       2.622  -0.937   2.068  0.00  0.00    -0.081 HD
BRANCH   7  16
ATOM     15  C   UNL     1       4.650   0.353   5.345  0.00  0.00    +0.002 C 
ATOM     16  C   UNL     1       3.619   0.222   4.223  0.00  0.00    -0.016 C 
ENDBRANCH   7  16
ENDBRANCH   1  12
BRANCH   6  17
ATOM     17  N   UNL     1       4.403   1.600  -0.059  0.00  0.00    -0.318 NA
ATOM     18  C   UNL     1       5.844   1.358   0.092  0.00  0.00    +0.101 C 
ATOM     19  H   UNL     1       3.933   0.777  -0.406  0.00  0.00    +0.122 HD
ENDBRANCH   6  17
BRANCH   3  20
ATOM     20  C   UNL     1      -0.074   2.264  -0.691  0.00  0.00    -0.014 C 
ATOM     21  C   UNL     1      -1.091   1.189  -0.301  0.00  0.00    +0.007 C 
ATOM     22  C   UNL     1      -0.781   3.616  -0.810  0.00  0.00    +0.007 C 
ENDBRANCH   3  20
TORSDOF 4
