REMARK  Name = ZINC62264834
REMARK  7 active torsions:
REMARK  status: ('A' for Active; 'I' for Inactive)
REMARK    1  A    between atoms: C_1  and  C_2
REMARK    2  A    between atoms: C_5  and  O_21
REMARK    3  A    between atoms: C_6  and  N_8
REMARK    4  A    between atoms: C_9  and  C_15
REMARK    5  A    between atoms: C_10  and  C_13
REMARK    6  A    between atoms: C_13  and  N_14
REMARK    7  A    between atoms: O_21  and  C_22
REMARK                            x       y       z     vdW  Elec       q    Type
REMARK                         _______ _______ _______ _____ _____    ______ ____
ROOT
ATOM      1  N   UNL     1       0.034  -2.788   2.403  0.00  0.00    -0.209 N 
ATOM      2  C   UNL     1       0.141  -2.244   3.655  0.00  0.00    +0.096 A 
ATOM      3  C   UNL     1       0.136  -3.303   4.519  0.00  0.00    +0.074 A 
ATOM      4  N   UNL     1       0.029  -4.402   3.768  0.00  0.00    -0.135 NA
ATOM      5  N   UNL     1      -0.035  -4.067   2.529  0.00  0.00    -0.060 NA
ENDROOT
BRANCH   1  11
ATOM      6  C   UNL     1       1.916   0.694  -0.516  0.00  0.00    +0.044 C 
ATOM      7  C   UNL     1       0.898  -0.383  -0.245  0.00  0.00    -0.048 A 
ATOM      8  C   UNL     1      -0.072  -0.668  -1.190  0.00  0.00    +0.007 A 
ATOM      9  C   UNL     1      -1.009  -1.655  -0.948  0.00  0.00    +0.048 A 
ATOM     10  C   UNL     1      -0.979  -2.362   0.244  0.00  0.00    +0.145 A 
ATOM     11  C   UNL     1      -0.002  -2.075   1.195  0.00  0.00    +0.109 A 
ATOM     12  C   UNL     1       0.938  -1.087   0.943  0.00  0.00    +0.035 A 
BRANCH  10  13
ATOM     13  O   UNL     1      -1.900  -3.332   0.484  0.00  0.00    -0.493 OA
ATOM     14  C   UNL     1      -2.871  -3.571  -0.536  0.00  0.00    +0.277 C 
ENDBRANCH  10  13
ENDBRANCH   1  11
BRANCH   2  15
ATOM     15  C   UNL     1       0.242  -0.809   4.000  0.00  0.00    +0.002 A 
ATOM     16  C   UNL     1       1.301  -0.350   4.785  0.00  0.00    +0.010 A 
ATOM     17  C   UNL     1       1.390   0.989   5.104  0.00  0.00    +0.001 A 
ATOM     18  C   UNL     1       0.432   1.877   4.647  0.00  0.00    +0.000 A 
ATOM     19  C   UNL     1      -0.620   1.428   3.869  0.00  0.00    +0.001 A 
ATOM     20  C   UNL     1      -0.717   0.092   3.538  0.00  0.00    +0.010 A 
ENDBRANCH   2  15
BRANCH   3  21
ATOM     21  C   UNL     1       0.234  -3.243   6.022  0.00  0.00    -0.026 C 
BRANCH  21  22
ATOM     22  N   UNL     1      -1.116  -3.265   6.601  0.00  0.00    +0.382 N 
ATOM     23  H   UNL     1      -1.612  -2.429   6.331  0.00  0.00    -0.090 HD
ATOM     24  H   UNL     1      -1.613  -4.075   6.264  0.00  0.00    -0.090 HD
ATOM     25  H   UNL     1      -1.049  -3.306   7.607  0.00  0.00    -0.090 HD
ENDBRANCH  21  22
ENDBRANCH   3  21
TORSDOF 5
