REMARK  Name = ZINC06882151
REMARK  10 active torsions:
REMARK  status: ('A' for Active; 'I' for Inactive)
REMARK    1  A    between atoms: C_1  and  C_2
REMARK    2  A    between atoms: C_2  and  C_3
REMARK    3  A    between atoms: C_2  and  C_4
REMARK    4  A    between atoms: C_4  and  C_6
REMARK    5  A    between atoms: C_4  and  N_7
REMARK    6  A    between atoms: C_8  and  C_10
REMARK    7  A    between atoms: C_10  and  O_11
REMARK    8  A    between atoms: O_11  and  C_12
REMARK    9  A    between atoms: C_12  and  C_14
REMARK   10  A    between atoms: C_16  and  N_21
REMARK                            x       y       z     vdW  Elec       q    Type
REMARK                         _______ _______ _______ _____ _____    ______ ____
ROOT
ATOM      1  C   UNL     1      -6.610   1.764   2.880  0.00  0.00    +0.358 C 
ATOM      2  O   UNL     1      -7.037   0.771   2.326  0.00  0.00    -0.243 OA
ENDROOT
BRANCH   1   3
ATOM      3  C   UNL     1      -7.521   2.614   3.677  0.00  0.00    +0.146 A 
ATOM      4  C   UNL     1      -8.866   2.273   3.784  0.00  0.00    +0.093 A 
ATOM      5  C   UNL     1      -9.711   3.084   4.544  0.00  0.00    +0.067 A 
ATOM      6  C   UNL     1      -9.169   4.211   5.158  0.00  0.00    +0.098 A 
ATOM      7  C   UNL     1      -7.820   4.487   5.000  0.00  0.00    +0.128 A 
ATOM      8 CL   UNL     1      -7.139   5.890   5.763  0.00  0.00    -0.062 Cl
ATOM      9 CL   UNL     1     -10.174   5.260   6.110  0.00  0.00    -0.079 Cl
ATOM     10 CL   UNL     1      -9.483   0.859   2.989  0.00  0.00    -0.079 Cl
ATOM     11  N   UNL     1      -6.970   3.719   4.273  0.00  0.00    -0.338 N 
ATOM     12  H   UNL     1      -5.974   3.950   4.176  0.00  0.00    +0.167 HD
BRANCH   5  13
ATOM     13  N   UNL     1     -11.063   2.776   4.681  0.00  0.00    -0.356 N 
ATOM     14  H   UNL     1     -11.640   3.349   5.210  0.00  0.00    +0.142 HD
ATOM     15  H   UNL     1     -11.427   1.988   4.249  0.00  0.00    +0.142 HD
ENDBRANCH   5  13
ENDBRANCH   1   3
BRANCH   1  16
ATOM     16  O   UNL     1      -5.308   2.091   2.768  0.00  0.00    -0.451 OA
BRANCH  16  17
ATOM     17  C   UNL     1      -4.474   1.211   1.970  0.00  0.00    +0.328 C 
BRANCH  17  19
ATOM     18  N   UNL     1      -2.103   1.072   1.277  0.00  0.00    -0.310 N 
ATOM     19  C   UNL     1      -3.060   1.732   1.959  0.00  0.00    +0.251 C 
ATOM     20  O   UNL     1      -2.783   2.746   2.565  0.00  0.00    -0.272 OA
ATOM     21  H   UNL     1      -2.325   0.261   0.793  0.00  0.00    +0.149 HD
BRANCH  18  22
ATOM     22  C   UNL     1      -0.729   1.579   1.267  0.00  0.00    +0.073 C 
ATOM     23  C   UNL     1       0.011   1.072   2.506  0.00  0.00    +0.028 C 
BRANCH  22  25
ATOM     24  C   UNL     1       1.423   1.615  -0.003  0.00  0.00    +0.009 C 
ATOM     25  C   UNL     1      -0.013   1.086   0.008  0.00  0.00    +0.003 C 
ATOM     26  C   UNL     1      -0.753   1.593  -1.232  0.00  0.00    +0.009 C 
ENDBRANCH  22  25
ENDBRANCH  18  22
ENDBRANCH  17  19
ENDBRANCH  16  17
ENDBRANCH   1  16
TORSDOF 7
