REMARK  Name = ZINC09336953
REMARK  8 active torsions:
REMARK  status: ('A' for Active; 'I' for Inactive)
REMARK    1  A    between atoms: C_1  and  C_2
REMARK    2  A    between atoms: C_2  and  C_3
REMARK    3  A    between atoms: C_3  and  N_4
REMARK    4  A    between atoms: C_5  and  C_7
REMARK    5  A    between atoms: C_7  and  N_60
REMARK    6  A    between atoms: N_15  and  N_16
REMARK    7  A    between atoms: C_17  and  C_19
REMARK    8  A    between atoms: C_26  and  C_29
REMARK                            x       y       z     vdW  Elec       q    Type
REMARK                         _______ _______ _______ _____ _____    ______ ____
ROOT
ATOM      1  C   UNL     1       2.902  10.151  -0.424  0.00  0.00    -0.059 C 
ATOM      2  C   UNL     1       3.877   9.569  -1.453  0.00  0.00    +0.091 C 
ATOM      3  N   UNL     1       4.162   8.173  -1.090  0.00  0.00    -0.288 N 
ATOM      4  C   UNL     1       3.025   7.271  -0.847  0.00  0.00    +0.091 C 
ATOM      5  C   UNL     1       2.083   7.945   0.164  0.00  0.00    -0.059 C 
ATOM      6  C   UNL     1       5.430   7.729  -0.988  0.00  0.00    +0.318 C 
ATOM      7  O   UNL     1       6.357   8.507  -1.102  0.00  0.00    -0.251 OA
ATOM      8  N   UNL     1       5.671   6.423  -0.758  0.00  0.00    -0.218 N 
ATOM      9  H   UNL     1       4.936   5.790  -0.741  0.00  0.00    +0.174 HD
ATOM     10  N   UNL     1       1.709   9.279  -0.354  0.00  0.00    +0.387 N 
ATOM     11  H   UNL     1       1.319   9.171  -1.298  0.00  0.00    -0.081 HD
ENDROOT
BRANCH   8  12
ATOM     12  N   UNL     1       6.983   5.980  -0.545  0.00  0.00    -0.229 N 
ATOM     13  C   UNL     1       7.214   4.693  -0.216  0.00  0.00    +0.267 C 
ATOM     14  O   UNL     1       6.284   3.917  -0.104  0.00  0.00    -0.268 OA
ATOM     15  H   UNL     1       7.724   6.598  -0.634  0.00  0.00    +0.173 HD
BRANCH  13  16
ATOM     16  C   UNL     1       8.587   4.229   0.007  0.00  0.00    +0.076 A 
ATOM     17  C   UNL     1       9.036   2.967   0.348  0.00  0.00    +0.024 A 
ATOM     18  C   UNL     1      10.399   2.777   0.504  0.00  0.00    -0.036 A 
ATOM     19  C   UNL     1      11.198   3.868   0.307  0.00  0.00    -0.006 A 
ATOM     20  S   UNL     1      10.115   5.146  -0.090  0.00  0.00    -0.088 S 
ATOM     21  C   UNL     1      12.691   3.925   0.415  0.00  0.00    +0.043 C 
ATOM     22  C   UNL     1      13.172   2.663   1.146  0.00  0.00    +0.009 C 
ATOM     23  C   UNL     1      12.494   1.442   0.518  0.00  0.00    -0.009 C 
ATOM     24  C   UNL     1      11.008   1.428   0.877  0.00  0.00    +0.039 C 
ATOM     25  C   UNL     1      13.156   0.167   1.044  0.00  0.00    +0.008 C 
ENDBRANCH  13  16
ENDBRANCH   8  12
BRANCH  10  26
ATOM     26  C   UNL     1       0.687   9.891   0.519  0.00  0.00    +0.019 C 
BRANCH  26  28
ATOM     27  N   UNL     1      -1.683   9.476   1.093  0.00  0.00    -0.317 N 
ATOM     28  C   UNL     1      -0.590   9.099   0.400  0.00  0.00    +0.196 C 
ATOM     29  O   UNL     1      -0.634   8.124  -0.319  0.00  0.00    -0.278 OA
ATOM     30  H   UNL     1      -1.648  10.256   1.668  0.00  0.00    +0.149 HD
BRANCH  27  31
ATOM     31  C   UNL     1      -2.925   8.707   0.977  0.00  0.00    +0.104 C 
BRANCH  31  33
ATOM     32  C   UNL     1      -5.298   8.538   1.738  0.00  0.00    +0.005 C 
ATOM     33  C   UNL     1      -4.002   9.341   1.859  0.00  0.00    +0.015 C 
ENDBRANCH  31  33
ENDBRANCH  27  31
ENDBRANCH  26  28
ENDBRANCH  10  26
TORSDOF 6
