REMARK  Name = ZINC63908389
REMARK  5 active torsions:
REMARK  status: ('A' for Active; 'I' for Inactive)
REMARK    1  A    between atoms: C_1  and  C_2
REMARK    2  A    between atoms: C_9  and  C_11
REMARK    3  A    between atoms: C_11  and  C_12
REMARK    4  A    between atoms: C_12  and  C_13
REMARK    5  A    between atoms: C_13  and  C_14
REMARK                            x       y       z     vdW  Elec       q    Type
REMARK                         _______ _______ _______ _____ _____    ______ ____
ROOT
ATOM      1  C   UNL     1      -2.148  -3.705   4.861  0.00  0.00    +0.096 C 
ENDROOT
BRANCH   1   9
ATOM      2  C   UNL     1      -0.019   1.526   0.010  0.00  0.00    +0.041 C 
ATOM      3  C   UNL     1       0.002  -0.004   0.002  0.00  0.00    +0.151 C 
ATOM      4  N   UNL     1      -1.365  -0.562   0.110  0.00  0.00    -0.254 N 
ATOM      5  N   UNL     1      -1.601  -1.323   1.233  0.00  0.00    -0.163 NA
ATOM      6  C   UNL     1      -0.704  -1.548   2.143  0.00  0.00    +0.179 C 
ATOM      7  S   UNL     1       0.737  -0.673   1.551  0.00  0.00    -0.065 S 
ATOM      8  N   UNL     1      -0.834  -2.296   3.309  0.00  0.00    -0.264 N 
ATOM      9  C   UNL     1      -2.007  -2.894   3.598  0.00  0.00    +0.219 C 
ATOM     10  O   UNL     1      -2.949  -2.780   2.843  0.00  0.00    -0.275 OA
ATOM     11  H   UNL     1      -2.046  -0.403  -0.562  0.00  0.00    +0.169 HD
ATOM     12  H   UNL     1      -0.081  -2.388   3.913  0.00  0.00    +0.157 HD
ENDBRANCH   1   9
BRANCH   1  13
ATOM     13  C   UNL     1      -3.567  -4.270   4.948  0.00  0.00    +0.014 C 
BRANCH  13  14
ATOM     14  C   UNL     1      -3.710  -5.093   6.230  0.00  0.00    +0.033 C 
BRANCH  14  15
ATOM     15  C   UNL     1      -5.108  -5.650   6.316  0.00  0.00    -0.042 C 
ATOM     16  C   UNL     1      -5.521  -6.875   5.919  0.00  0.00    -0.001 A 
ATOM     17  C   UNL     1      -4.820  -8.012   5.310  0.00  0.00    +0.010 A 
ATOM     18  C   UNL     1      -5.519  -9.132   5.017  0.00  0.00    +0.001 A 
ATOM     19  C   UNL     1      -6.892  -9.235   5.279  0.00  0.00    +0.002 A 
ATOM     20  C   UNL     1      -7.604  -8.233   5.837  0.00  0.00    +0.026 A 
ATOM     21  C   UNL     1      -6.971  -7.008   6.186  0.00  0.00    +0.043 A 
ATOM     22  N   UNL     1      -7.436  -5.909   6.727  0.00  0.00    -0.380 N 
ATOM     23  C   UNL     1      -6.331  -4.954   6.870  0.00  0.00    +0.144 C 
ATOM     24  H   UNL     1      -8.356  -5.753   6.992  0.00  0.00    +0.160 HD
ENDBRANCH  14  15
ENDBRANCH  13  14
ENDBRANCH   1  13
TORSDOF 4
