REMARK  Name = ZINC20478289
REMARK  4 active torsions:
REMARK  status: ('A' for Active; 'I' for Inactive)
REMARK    1  A    between atoms: C_1  and  C_2
REMARK    2  A    between atoms: C_2  and  C_3
REMARK    3  A    between atoms: C_5  and  C_17
REMARK    4  A    between atoms: N_10  and  C_11
REMARK                            x       y       z     vdW  Elec       q    Type
REMARK                         _______ _______ _______ _____ _____    ______ ____
ROOT
ATOM      1  C   UNL     1      -0.790  -2.272  -1.357  0.00  0.00    +0.104 C 
ATOM      2  C   UNL     1       0.346  -2.827  -0.533  0.00  0.00    +0.080 C 
ATOM      3  N   UNL     1       1.105  -2.068   0.184  0.00  0.00    -0.184 NA
ATOM      4  N   UNL     1       1.018  -0.808   0.322  0.00  0.00    -0.217 N 
ATOM      5  C   UNL     1      -0.062  -0.097   0.099  0.00  0.00    +0.148 C 
ATOM      6  S   UNL     1      -1.542  -0.901  -0.435  0.00  0.00    -0.081 S 
ATOM      7  N   UNL     1      -0.041   1.265   0.274  0.00  0.00    -0.364 N 
ATOM      8  H   UNL     1       1.893  -0.229   0.653  0.00  0.00    +0.176 HD
ATOM      9  H   UNL     1      -0.947   1.858   0.081  0.00  0.00    +0.162 HD
ENDROOT
BRANCH   7  10
ATOM     10  C   UNL     1       1.188   1.927   0.716  0.00  0.00    +0.081 C 
ATOM     11  C   UNL     1       1.273   1.877   2.243  0.00  0.00    +0.024 C 
ATOM     12  C   UNL     1       2.557   2.569   2.705  0.00  0.00    +0.002 C 
ATOM     13  C   UNL     1       2.546   4.028   2.243  0.00  0.00    +0.000 C 
ATOM     14  C   UNL     1       2.461   4.077   0.716  0.00  0.00    +0.002 C 
ATOM     15  C   UNL     1       1.177   3.385   0.254  0.00  0.00    +0.024 C 
ENDBRANCH   7  10
BRANCH   2  16
ATOM     16  C   UNL     1       0.597  -4.277  -0.548  0.00  0.00    -0.001 A 
ATOM     17  C   UNL     1       0.869  -4.955   0.644  0.00  0.00    +0.010 A 
ATOM     18  C   UNL     1       1.098  -6.315   0.622  0.00  0.00    +0.001 A 
ATOM     19  C   UNL     1       1.069  -7.006  -0.576  0.00  0.00    +0.000 A 
ATOM     20  C   UNL     1       0.805  -6.341  -1.761  0.00  0.00    +0.001 A 
ATOM     21  C   UNL     1       0.569  -4.982  -1.755  0.00  0.00    +0.010 A 
ENDBRANCH   2  16
BRANCH   1  23
ATOM     22  C   UNL     1      -2.937  -2.823  -2.509  0.00  0.00    +0.005 C 
ATOM     23  C   UNL     1      -1.834  -3.364  -1.598  0.00  0.00    +0.017 C 
ENDBRANCH   1  23
TORSDOF 3
