REMARK  Name = ZINC53864969
REMARK  12 active torsions:
REMARK  status: ('A' for Active; 'I' for Inactive)
REMARK    1  A    between atoms: C_1  and  C_2
REMARK    2  A    between atoms: C_2  and  C_3
REMARK    3  A    between atoms: C_3  and  C_5
REMARK    4  A    between atoms: C_3  and  N_6
REMARK    5  A    between atoms: N_6  and  C_7
REMARK    6  A    between atoms: N_6  and  C_8
REMARK    7  A    between atoms: C_8  and  C_9
REMARK    8  A    between atoms: C_12  and  C_19
REMARK    9  A    between atoms: C_16  and  N_18
REMARK   10  A    between atoms: C_19  and  C_20
REMARK   11  A    between atoms: C_19  and  C_21
REMARK   12  A    between atoms: C_19  and  C_22
REMARK                            x       y       z     vdW  Elec       q    Type
REMARK                         _______ _______ _______ _____ _____    ______ ____
ROOT
ATOM      1  C   UNL     1       3.291   1.988   0.956  0.00  0.00    -0.042 C 
ATOM      2  C   UNL     1       4.376   1.553   1.943  0.00  0.00    +0.004 C 
ATOM      3  C   UNL     1       5.713   2.176   1.538  0.00  0.00    -0.005 C 
ATOM      4  C   UNL     1       5.591   3.701   1.554  0.00  0.00    +0.002 C 
ATOM      5  C   UNL     1       4.506   4.137   0.567  0.00  0.00    -0.016 C 
ATOM      6  C   UNL     1       3.169   3.514   0.972  0.00  0.00    -0.074 C 
ENDROOT
BRANCH   6   7
ATOM      7  N   UNL     1       2.809   3.962   2.324  0.00  0.00    +0.380 N 
ATOM      8  H   UNL     1       3.525   3.675   2.975  0.00  0.00    -0.090 HD
ATOM      9  H   UNL     1       2.729   4.967   2.334  0.00  0.00    -0.090 HD
ATOM     10  H   UNL     1       1.927   3.551   2.591  0.00  0.00    -0.090 HD
ENDBRANCH   6   7
BRANCH   3  11
ATOM     11  C   UNL     1       6.798   1.741   2.525  0.00  0.00    -0.035 C 
ATOM     12  C   UNL     1       6.921   0.216   2.509  0.00  0.00    +0.011 C 
ATOM     13  C   UNL     1       8.136   2.364   2.120  0.00  0.00    +0.011 C 
ATOM     14  C   UNL     1       6.424   2.208   3.933  0.00  0.00    +0.011 C 
ENDBRANCH   3  11
BRANCH   1  15
ATOM     15  C   UNL     1       1.954   1.365   1.360  0.00  0.00    -0.077 C 
BRANCH  15  16
ATOM     16  N   UNL     1       2.041  -0.097   1.250  0.00  0.00    +0.380 N 
ATOM     17  C   UNL     1       0.792  -0.700   1.734  0.00  0.00    -0.096 C 
ATOM     18  H   UNL     1       2.814  -0.431   1.806  0.00  0.00    -0.082 HD
BRANCH  16  19
ATOM     19  C   UNL     1       2.252  -0.469  -0.156  0.00  0.00    -0.072 C 
ATOM     20  C   UNL     1       1.015  -0.093  -0.974  0.00  0.00    -0.013 C 
BRANCH  19  22
ATOM     21  C   UNL     1       3.788  -2.338   0.467  0.00  0.00    +0.002 C 
ATOM     22  C   UNL     1       2.488  -1.978  -0.253  0.00  0.00    -0.019 C 
ENDBRANCH  19  22
ENDBRANCH  16  19
ENDBRANCH  15  16
ENDBRANCH   1  15
TORSDOF 6
