REMARK  Name = ZINC04876765
REMARK  3 active torsions:
REMARK  status: ('A' for Active; 'I' for Inactive)
REMARK    1  A    between atoms: C_1  and  C_2
REMARK    2  A    between atoms: N_9  and  N_10
REMARK    3  A    between atoms: C_16  and  C_18
REMARK                            x       y       z     vdW  Elec       q    Type
REMARK                         _______ _______ _______ _____ _____    ______ ____
ROOT
ATOM      1  C   UNL     1       0.030   0.959  -2.132  0.00  0.00    +0.066 C 
ATOM      2  C   UNL     1       0.060  -0.291  -1.292  0.00  0.00    +0.047 A 
ATOM      3  C   UNL     1      -1.109  -0.866  -0.884  0.00  0.00    +0.093 A 
ATOM      4  C   UNL     1      -1.056  -2.033  -0.101  0.00  0.00    +0.253 A 
ATOM      5  O   UNL     1      -2.081  -2.573   0.280  0.00  0.00    -0.268 OA
ATOM      6  N   UNL     1       0.152  -2.545   0.220  0.00  0.00    -0.294 N 
ATOM      7  H   UNL     1       0.212  -3.349   0.759  0.00  0.00    +0.172 HD
ATOM      8  C   UNL     1       1.284  -1.927  -0.215  0.00  0.00    +0.216 A 
ATOM      9  N   UNL     1       2.506  -2.452   0.115  0.00  0.00    -0.207 N 
ATOM     10  N   UNL     1       1.226  -0.837  -0.953  0.00  0.00    -0.220 NA
ATOM     11  H   UNL     1       2.559  -3.257   0.654  0.00  0.00    +0.177 HD
ENDROOT
BRANCH   9  12
ATOM     12  N   UNL     1       3.680  -1.827  -0.327  0.00  0.00    -0.189 NA
ATOM     13  C   UNL     1       4.815  -2.384  -0.129  0.00  0.00    +0.040 C 
ATOM     14  C   UNL     1       6.080  -1.558  -0.044  0.00  0.00    +0.053 C 
ATOM     15  C   UNL     1       7.116  -2.153  -1.004  0.00  0.00    +0.006 C 
ATOM     16  C   UNL     1       7.309  -3.637  -0.685  0.00  0.00    +0.001 C 
ATOM     17  C   UNL     1       6.005  -4.395  -0.935  0.00  0.00    +0.009 C 
ATOM     18  C   UNL     1       4.926  -3.884   0.033  0.00  0.00    +0.032 C 
ATOM     19  C   UNL     1       3.583  -4.537  -0.299  0.00  0.00    +0.014 C 
ENDBRANCH   9  12
TORSDOF 1
