REMARK  Name = ZINC43252684
REMARK  9 active torsions:
REMARK  status: ('A' for Active; 'I' for Inactive)
REMARK    1  A    between atoms: C_1  and  C_2
REMARK    2  A    between atoms: C_2  and  C_3
REMARK    3  A    between atoms: C_2  and  C_4
REMARK    4  A    between atoms: C_4  and  C_5
REMARK    5  A    between atoms: C_13  and  O_25
REMARK    6  A    between atoms: C_20  and  C_22
REMARK    7  A    between atoms: C_22  and  N_23
REMARK    8  A    between atoms: N_23  and  C_24
REMARK    9  A    between atoms: O_25  and  C_26
REMARK                            x       y       z     vdW  Elec       q    Type
REMARK                         _______ _______ _______ _____ _____    ______ ____
ROOT
ATOM      1  C   UNL     1      -1.416  -2.035  -0.119  0.00  0.00    +0.216 C 
ATOM      2  O   UNL     1      -0.359  -2.623  -0.213  0.00  0.00    -0.276 OA
ATOM      3  N   UNL     1      -2.574  -2.724  -0.133  0.00  0.00    -0.294 N 
ATOM      4  C   UNL     1      -3.866  -2.029  -0.027  0.00  0.00    +0.113 C 
ATOM      5  C   UNL     1      -4.553  -2.452   1.276  0.00  0.00    +0.056 C 
ATOM      6  C   UNL     1      -4.447  -3.949   1.423  0.00  0.00    -0.016 A 
ATOM      7  C   UNL     1      -5.225  -4.824   2.276  0.00  0.00    +0.007 A 
ATOM      8  C   UNL     1      -6.262  -4.585   3.184  0.00  0.00    +0.056 A 
ATOM      9  C   UNL     1      -6.784  -5.689   3.841  0.00  0.00    +0.121 A 
ATOM     10  C   UNL     1      -6.303  -6.973   3.612  0.00  0.00    +0.047 A 
ATOM     11  C   UNL     1      -5.278  -7.227   2.719  0.00  0.00    +0.030 A 
ATOM     12  C   UNL     1      -4.735  -6.135   2.046  0.00  0.00    +0.047 A 
ATOM     13  N   UNL     1      -3.735  -6.037   1.118  0.00  0.00    -0.356 N 
ATOM     14  H   UNL     1      -3.220  -6.782   0.772  0.00  0.00    +0.166 HD
ATOM     15  C   UNL     1      -3.572  -4.728   0.751  0.00  0.00    +0.039 A 
ATOM     16  C   UNL     1      -2.579  -4.191  -0.262  0.00  0.00    +0.106 C 
ENDROOT
BRANCH   9  17
ATOM     17  O   UNL     1      -7.794  -5.511   4.734  0.00  0.00    -0.495 OA
ATOM     18  C   UNL     1      -8.298  -6.679   5.385  0.00  0.00    +0.277 C 
ENDBRANCH   9  17
BRANCH   1  19
ATOM     19  C   UNL     1      -1.433  -0.534   0.013  0.00  0.00    +0.099 C 
BRANCH  19  21
ATOM     20  C   UNL     1      -0.019   1.526   0.010  0.00  0.00    +0.008 C 
ATOM     21  C   UNL     1       0.002  -0.004   0.002  0.00  0.00    -0.008 C 
ATOM     22  C   UNL     1       0.742  -0.511   1.242  0.00  0.00    +0.008 C 
ENDBRANCH  19  21
ENDBRANCH   1  19
BRANCH  16  23
ATOM     23  C   UNL     1      -3.007  -4.587  -1.676  0.00  0.00    -0.054 C 
BRANCH  23  24
ATOM     24  N   UNL     1      -2.137  -3.922  -2.655  0.00  0.00    +0.379 N 
ATOM     25  C   UNL     1      -2.548  -4.302  -4.013  0.00  0.00    -0.100 C 
ATOM     26  H   UNL     1      -2.215  -2.921  -2.548  0.00  0.00    -0.086 HD
ATOM     27  H   UNL     1      -1.181  -4.203  -2.502  0.00  0.00    -0.086 HD
ENDBRANCH  23  24
ENDBRANCH  16  23
TORSDOF 5
