REMARK  Name = ZINC25518364
REMARK  7 active torsions:
REMARK  status: ('A' for Active; 'I' for Inactive)
REMARK    1  A    between atoms: C_1  and  C_2
REMARK    2  A    between atoms: C_2  and  O_3
REMARK    3  A    between atoms: O_3  and  C_4
REMARK    4  A    between atoms: N_9  and  C_12
REMARK    5  A    between atoms: C_12  and  C_14
REMARK    6  A    between atoms: C_12  and  C_15
REMARK    7  A    between atoms: C_21  and  C_24
REMARK                            x       y       z     vdW  Elec       q    Type
REMARK                         _______ _______ _______ _____ _____    ______ ____
ROOT
ATOM      1  C   UNL     1       1.330  -0.705  -0.122  0.00  0.00    +0.016 C 
ATOM      2  C   UNL     1       2.301  -0.224  -1.202  0.00  0.00    -0.004 C 
ENDROOT
BRANCH   1   8
ATOM      3  C   UNL     1       1.399  -6.007   1.033  0.00  0.00    +0.403 C 
ATOM      4  O   UNL     1       2.443  -6.608   0.874  0.00  0.00    -0.226 OA
ATOM      5  N   UNL     1       1.163  -4.873   0.343  0.00  0.00    -0.271 N 
ATOM      6  C   UNL     1       2.155  -4.346  -0.606  0.00  0.00    +0.092 C 
ATOM      7  C   UNL     1       2.404  -2.870  -0.281  0.00  0.00    -0.058 C 
ATOM      8  N   UNL     1       1.122  -2.153  -0.260  0.00  0.00    +0.389 N 
ATOM      9  C   UNL     1       0.244  -2.662   0.802  0.00  0.00    -0.058 C 
ATOM     10  C   UNL     1      -0.094  -4.130   0.520  0.00  0.00    +0.092 C 
ATOM     11  H   UNL     1       0.622  -2.334  -1.223  0.00  0.00    -0.081 HD
BRANCH   3  12
ATOM     12  O   UNL     1       0.478  -6.473   1.898  0.00  0.00    -0.451 OA
BRANCH  12  14
ATOM     13  C   UNL     1      -0.356  -8.070   3.536  0.00  0.00    +0.048 C 
ATOM     14  C   UNL     1       0.800  -7.699   2.605  0.00  0.00    +0.230 C 
ENDBRANCH  12  14
ENDBRANCH   3  12
ENDBRANCH   1   8
BRANCH   1  15
ATOM     15  C   UNL     1       0.012   0.009  -0.277  0.00  0.00    +0.202 C 
ATOM     16  O   UNL     1      -0.903  -0.527  -0.865  0.00  0.00    -0.277 OA
ATOM     17  N   UNL     1      -0.149   1.244   0.238  0.00  0.00    -0.302 N 
ATOM     18  C   UNL     1       0.912   1.865   1.042  0.00  0.00    +0.108 C 
ATOM     19  C   UNL     1       0.318   2.311   2.382  0.00  0.00    +0.020 C 
ATOM     20  C   UNL     1      -0.887   3.218   2.124  0.00  0.00    +0.016 C 
ATOM     21  C   UNL     1      -1.958   2.441   1.356  0.00  0.00    +0.092 C 
ATOM     22  C   UNL     1      -1.388   1.998   0.000  0.00  0.00    +0.120 C 
BRANCH  21  23
ATOM     23  C   UNL     1      -3.158   3.325   1.132  0.00  0.00    +0.215 C 
ATOM     24  O   UNL     1      -3.526   3.573   0.003  0.00  0.00    -0.276 OA
ATOM     25  N   UNL     1      -3.822   3.839   2.185  0.00  0.00    -0.329 N 
ATOM     26  H   UNL     1      -4.698   4.484   2.022  0.00  0.00    +0.145 HD
ATOM     27  H   UNL     1      -3.489   3.614   3.209  0.00  0.00    +0.145 HD
ENDBRANCH  21  23
ENDBRANCH   1  15
TORSDOF 5
