REMARK  Name = ZINC41164310
REMARK  4 active torsions:
REMARK  status: ('A' for Active; 'I' for Inactive)
REMARK    1  A    between atoms: C_3  and  N_19
REMARK    2  A    between atoms: C_6  and  C_7
REMARK    3  A    between atoms: C_10  and  C_12
REMARK    4  A    between atoms: C_12  and  N_18
REMARK                            x       y       z     vdW  Elec       q    Type
REMARK                         _______ _______ _______ _____ _____    ______ ____
ROOT
ATOM      1  C   UNL     1      -1.271  -0.766   0.011  0.00  0.00    +0.078 A 
ATOM      2  C   UNL     1      -2.486  -0.141  -0.081  0.00  0.00    +0.075 A 
ATOM      3  S   UNL     1      -3.585  -1.546  -0.019  0.00  0.00    -0.081 S 
ATOM      4  C   UNL     1      -2.418  -2.752   0.113  0.00  0.00    +0.068 A 
ATOM      5  N   UNL     1      -1.292  -2.088   0.102  0.00  0.00    -0.245 NA
ENDROOT
BRANCH   1  11
ATOM      6  C   UNL     1      -0.017   1.389   0.010  0.00  0.00    +0.012 A 
ATOM      7  C   UNL     1       1.170   2.093   0.002  0.00  0.00    +0.033 A 
ATOM      8  C   UNL     1       2.377   1.418  -0.013  0.00  0.00    +0.126 A 
ATOM      9  C   UNL     1       2.402   0.035  -0.021  0.00  0.00    +0.033 A 
ATOM     10  C   UNL     1       1.221  -0.679  -0.014  0.00  0.00    +0.012 A 
ATOM     11  C   UNL     1       0.002  -0.004   0.002  0.00  0.00    +0.001 A 
BRANCH   8  12
ATOM     12  N   UNL     1       3.648   2.178  -0.022  0.00  0.00    +0.056 N 
ATOM     13  O   UNL     1       3.629   3.387  -0.016  0.00  0.00    -0.126 OA
ATOM     14  O   UNL     1       4.704   1.590  -0.036  0.00  0.00    -0.126 OA
ENDBRANCH   8  12
ENDBRANCH   1  11
BRANCH   4  15
ATOM     15  C   UNL     1      -2.623  -4.241   0.215  0.00  0.00    -0.021 C 
ATOM     16  C   UNL     1      -2.138  -4.730   1.582  0.00  0.00    -0.006 C 
ATOM     17  C   UNL     1      -2.346  -6.242   1.685  0.00  0.00    -0.001 C 
ATOM     18  C   UNL     1      -3.833  -6.565   1.526  0.00  0.00    -0.000 C 
ATOM     19  C   UNL     1      -4.318  -6.076   0.160  0.00  0.00    -0.001 C 
ATOM     20  C   UNL     1      -4.110  -4.564   0.056  0.00  0.00    -0.006 C 
BRANCH  15  21
ATOM     21  N   UNL     1      -1.860  -4.914  -0.844  0.00  0.00    +0.386 N 
ATOM     22  H   UNL     1      -0.879  -4.701  -0.739  0.00  0.00    -0.089 HD
ATOM     23  H   UNL     1      -1.997  -5.911  -0.776  0.00  0.00    -0.089 HD
ATOM     24  H   UNL     1      -2.179  -4.591  -1.746  0.00  0.00    -0.089 HD
ENDBRANCH  15  21
ENDBRANCH   4  15
TORSDOF 4
