REMARK  Name = ZINC35452936
REMARK  4 active torsions:
REMARK  status: ('A' for Active; 'I' for Inactive)
REMARK    1  A    between atoms: C_5  and  N_12
REMARK    2  A    between atoms: C_6  and  N_7
REMARK    3  A    between atoms: N_7  and  C_8
REMARK    4  A    between atoms: C_8  and  C_9
REMARK                            x       y       z     vdW  Elec       q    Type
REMARK                         _______ _______ _______ _____ _____    ______ ____
ROOT
ATOM      1  C   UNL     1       0.023   1.393   0.285  0.00  0.00    +0.052 A 
ATOM      2  C   UNL     1       1.188   2.088   0.008  0.00  0.00    +0.078 A 
ATOM      3  C   UNL     1       2.363   1.395  -0.282  0.00  0.00    +0.145 A 
ATOM      4  C   UNL     1       2.364   0.011  -0.294  0.00  0.00    +0.082 A 
ATOM      5  C   UNL     1       1.201  -0.683  -0.018  0.00  0.00    +0.150 A 
ATOM      6  C   UNL     1       0.029   0.004   0.272  0.00  0.00    +0.060 A 
ATOM      7  O   UNL     1       3.500   2.091  -0.554  0.00  0.00    -0.481 OA
ATOM      8  C   UNL     1       3.341   3.347  -1.220  0.00  0.00    +0.325 C 
ATOM      9  C   UNL     1       2.243   4.137  -0.554  0.00  0.00    +0.255 C 
ATOM     10  O   UNL     1       2.292   5.349  -0.532  0.00  0.00    -0.272 OA
ATOM     11  N   UNL     1       1.204   3.490   0.017  0.00  0.00    -0.280 N 
ATOM     12  H   UNL     1       0.480   3.988   0.427  0.00  0.00    +0.155 HD
ENDROOT
BRANCH   5  13
ATOM     13  N   UNL     1       1.204  -2.163  -0.031  0.00  0.00    +0.058 N 
ATOM     14  O   UNL     1       2.163  -2.769   0.388  0.00  0.00    -0.126 OA
ATOM     15  O   UNL     1       0.248  -2.766  -0.460  0.00  0.00    -0.126 OA
ENDBRANCH   5  13
BRANCH   6  16
ATOM     16  N   UNL     1      -1.145  -0.703   0.550  0.00  0.00    -0.342 N 
ATOM     17  H   UNL     1      -1.123  -1.669   0.625  0.00  0.00    +0.146 HD
BRANCH  16  18
ATOM     18  C   UNL     1      -2.409   0.017   0.729  0.00  0.00    +0.105 C 
BRANCH  18  19
ATOM     19  C   UNL     1      -3.529  -0.983   1.021  0.00  0.00    +0.006 C 
ATOM     20  C   UNL     1      -4.665  -1.089   0.002  0.00  0.00    +0.005 C 
ATOM     21  C   UNL     1      -4.911  -0.418   1.355  0.00  0.00    +0.005 C 
ENDBRANCH  18  19
ENDBRANCH  16  18
ENDBRANCH   6  16
TORSDOF 4
