REMARK  Name = ZINC00031276
REMARK  9 active torsions:
REMARK  status: ('A' for Active; 'I' for Inactive)
REMARK    1  A    between atoms: C_1  and  C_2
REMARK    2  A    between atoms: C_2  and  C_3
REMARK    3  A    between atoms: C_2  and  C_4
REMARK    4  A    between atoms: C_2  and  O_5
REMARK    5  A    between atoms: O_5  and  C_6
REMARK    6  A    between atoms: C_6  and  C_8
REMARK    7  A    between atoms: C_15  and  N_26
REMARK    8  A    between atoms: C_16  and  C_24
REMARK    9  A    between atoms: N_20  and  C_23
REMARK                            x       y       z     vdW  Elec       q    Type
REMARK                         _______ _______ _______ _____ _____    ______ ____
ROOT
ATOM      1  C   UNL     1       2.704  -0.520  -2.522  0.00  0.00    +0.150 A 
ATOM      2  C   UNL     1       3.965  -0.184  -2.931  0.00  0.00    +0.059 A 
ATOM      3  C   UNL     1       4.187  -0.844  -4.153  0.00  0.00    +0.245 A 
ATOM      4  N   UNL     1       3.139  -1.562  -4.457  0.00  0.00    -0.135 NA
ATOM      5  N   UNL     1       2.187  -1.399  -3.450  0.00  0.00    -0.267 N 
ATOM      6  H   UNL     1       1.317  -1.822  -3.397  0.00  0.00    +0.189 HD
ATOM      7  O   UNL     1       5.326  -0.720  -4.886  0.00  0.00    -0.421 OA
ATOM      8  C   UNL     1       6.302   0.047  -4.376  0.00  0.00    +0.200 C 
ATOM      9  C   UNL     1       6.217   0.715  -3.213  0.00  0.00    +0.097 C 
ATOM     10  C   UNL     1       5.007   0.719  -2.296  0.00  0.00    +0.039 C 
ATOM     11  C   UNL     1       5.451   0.136  -0.969  0.00  0.00    -0.001 C 
ATOM     12  C   UNL     1       4.767   0.711   0.258  0.00  0.00    -0.078 C 
ATOM     13  N   UNL     1       4.816   2.179   0.190  0.00  0.00    +0.378 N 
ATOM     14  C   UNL     1       3.952   2.613  -0.908  0.00  0.00    -0.078 C 
ATOM     15  C   UNL     1       4.465   2.134  -2.252  0.00  0.00    -0.001 C 
ATOM     16  C   UNL     1       4.328   2.742   1.456  0.00  0.00    -0.096 C 
ATOM     17  H   UNL     1       5.761   2.481   0.026  0.00  0.00    -0.082 HD
ENDROOT
BRANCH   8  18
ATOM     18  N   UNL     1       7.470   0.157  -5.092  0.00  0.00    -0.328 N 
ATOM     19  H   UNL     1       7.567  -0.312  -5.936  0.00  0.00    +0.145 HD
ATOM     20  H   UNL     1       8.197   0.703  -4.754  0.00  0.00    +0.145 HD
ENDBRANCH   8  18
BRANCH   1  21
ATOM     21  C   UNL     1       1.954  -0.084  -1.337  0.00  0.00    +0.358 C 
ATOM     22  O   UNL     1       2.440   0.729  -0.575  0.00  0.00    -0.243 OA
BRANCH  21  23
ATOM     23  O   UNL     1       0.726  -0.586  -1.094  0.00  0.00    -0.454 OA
BRANCH  23  25
ATOM     24  C   UNL     1      -0.132   1.399  -0.015  0.00  0.00    +0.055 C 
ATOM     25  C   UNL     1       0.054  -0.117   0.076  0.00  0.00    +0.106 C 
ATOM     26  C   UNL     1       0.888  -0.455   1.314  0.00  0.00    +0.055 C 
ATOM     27  C   UNL     1      -1.314  -0.793   0.184  0.00  0.00    +0.055 C 
ENDBRANCH  23  25
ENDBRANCH  21  23
ENDBRANCH   1  21
BRANCH   9  28
ATOM     28  C   UNL     1       7.371   1.483  -2.829  0.00  0.00    +0.101 C 
ATOM     29  N   UNL     1       8.282   2.089  -2.525  0.00  0.00    -0.191 NA
ENDBRANCH   9  28
TORSDOF 5
