REMARK  Name = ZINC37673971
REMARK  8 active torsions:
REMARK  status: ('A' for Active; 'I' for Inactive)
REMARK    1  A    between atoms: C_4  and  S_17
REMARK    2  A    between atoms: C_5  and  N_7
REMARK    3  A    between atoms: N_7  and  C_8
REMARK    4  A    between atoms: N_7  and  C_12
REMARK    5  A    between atoms: C_8  and  C_9
REMARK    6  A    between atoms: C_9  and  C_10
REMARK    7  A    between atoms: C_10  and  N_11
REMARK    8  A    between atoms: S_17  and  N_20
REMARK                            x       y       z     vdW  Elec       q    Type
REMARK                         _______ _______ _______ _____ _____    ______ ____
ROOT
ATOM      1  N   UNL     1       0.210  -3.316   0.417  0.00  0.00    -0.325 N 
ENDROOT
BRANCH   1   6
ATOM      2  C   UNL     1       2.654  -0.817   1.549  0.00  0.00    +0.002 A 
ATOM      3  C   UNL     1       2.106   0.340   1.025  0.00  0.00    +0.002 A 
ATOM      4  C   UNL     1       0.930   0.285   0.300  0.00  0.00    +0.030 A 
ATOM      5  C   UNL     1       0.299  -0.926   0.096  0.00  0.00    +0.126 A 
ATOM      6  C   UNL     1       0.846  -2.090   0.621  0.00  0.00    +0.057 A 
ATOM      7  C   UNL     1       2.027  -2.031   1.350  0.00  0.00    +0.025 A 
BRANCH   5   8
ATOM      8  S   UNL     1      -1.200  -0.995  -0.828  0.00  0.00    +0.058 S 
ATOM      9  O   UNL     1      -2.111  -1.775  -0.066  0.00  0.00    -0.153 OA
ATOM     10  O   UNL     1      -1.490   0.336  -1.232  0.00  0.00    -0.153 OA
BRANCH   8  11
ATOM     11  N   UNL     1      -0.885  -1.851  -2.209  0.00  0.00    -0.203 NA
ATOM     12  H   UNL     1       0.004  -1.835  -2.598  0.00  0.00    +0.144 HD
ATOM     13  H   UNL     1      -1.589  -2.369  -2.630  0.00  0.00    +0.144 HD
ENDBRANCH   8  11
ENDBRANCH   5   8
ENDBRANCH   1   6
BRANCH   1  14
ATOM     14  C   UNL     1      -0.582  -3.918   1.493  0.00  0.00    +0.074 C 
ATOM     15  C   UNL     1      -1.590  -2.890   2.047  0.00  0.00    +0.022 C 
ATOM     16  C   UNL     1      -1.627  -3.176   3.568  0.00  0.00    +0.002 C 
ATOM     17  C   UNL     1      -0.149  -3.508   3.890  0.00  0.00    +0.002 C 
ATOM     18  C   UNL     1       0.334  -4.312   2.665  0.00  0.00    +0.022 C 
ENDBRANCH   1  14
BRANCH   1  19
ATOM     19  C   UNL     1       0.334  -4.001  -0.872  0.00  0.00    +0.103 C 
BRANCH  19  20
ATOM     20  C   UNL     1       1.485  -5.006  -0.806  0.00  0.00    -0.001 C 
BRANCH  20  21
ATOM     21  C   UNL     1       1.691  -5.637  -2.185  0.00  0.00    -0.085 C 
BRANCH  21  22
ATOM     22  N   UNL     1       2.796  -6.603  -2.122  0.00  0.00    +0.378 N 
ATOM     23  H   UNL     1       3.641  -6.129  -1.840  0.00  0.00    -0.090 HD
ATOM     24  H   UNL     1       2.575  -7.324  -1.452  0.00  0.00    -0.090 HD
ATOM     25  H   UNL     1       2.932  -7.019  -3.031  0.00  0.00    -0.090 HD
ENDBRANCH  21  22
ENDBRANCH  20  21
ENDBRANCH  19  20
ENDBRANCH   1  19
TORSDOF 8
