REMARK  Name = ZINC16881972
REMARK  7 active torsions:
REMARK  status: ('A' for Active; 'I' for Inactive)
REMARK    1  A    between atoms: C_3  and  O_27
REMARK    2  A    between atoms: C_6  and  C_7
REMARK    3  A    between atoms: C_8  and  C_9
REMARK    4  A    between atoms: C_8  and  C_11
REMARK    5  A    between atoms: C_16  and  C_19
REMARK    6  A    between atoms: C_22  and  O_26
REMARK    7  A    between atoms: C_23  and  O_25
REMARK                            x       y       z     vdW  Elec       q    Type
REMARK                         _______ _______ _______ _____ _____    ______ ____
ROOT
ATOM      1  C   UNL     1       6.213   6.066   0.203  0.00  0.00    +0.260 C 
ATOM      2  O   UNL     1       7.157   5.331  -0.021  0.00  0.00    -0.269 OA
ATOM      3  N   UNL     1       4.972   5.554   0.317  0.00  0.00    -0.260 N 
ATOM      4  C   UNL     1       4.770   4.187   0.179  0.00  0.00    +0.165 A 
ATOM      5  N   UNL     1       3.646   3.498   0.249  0.00  0.00    -0.225 NA
ATOM      6  C   UNL     1       3.636   2.182   0.097  0.00  0.00    +0.080 A 
ATOM      7  C   UNL     1       4.809   1.526  -0.149  0.00  0.00    +0.076 A 
ATOM      8  S   UNL     1       5.960   2.895  -0.147  0.00  0.00    -0.060 S 
ATOM      9  H   UNL     1       4.220   6.140   0.495  0.00  0.00    +0.157 HD
ENDROOT
BRANCH   6  10
ATOM     10  C   UNL     1       2.361   1.428   0.186  0.00  0.00    +0.005 A 
ATOM     11  C   UNL     1       2.369   0.036   0.123  0.00  0.00    +0.014 A 
ATOM     12  C   UNL     1       1.183  -0.665   0.207  0.00  0.00    +0.050 A 
ATOM     13  C   UNL     1      -0.018   0.013   0.353  0.00  0.00    +0.158 A 
ATOM     14  C   UNL     1      -0.031   1.403   0.417  0.00  0.00    +0.159 A 
ATOM     15  C   UNL     1       1.155   2.111   0.334  0.00  0.00    +0.059 A 
BRANCH  14  16
ATOM     16  O   UNL     1      -1.210   2.067   0.555  0.00  0.00    -0.503 OA
ATOM     17  H   UNL     1      -1.470   2.219   1.474  0.00  0.00    +0.292 HD
ENDBRANCH  14  16
BRANCH  13  18
ATOM     18  O   UNL     1      -1.184  -0.682   0.434  0.00  0.00    -0.503 OA
ATOM     19  H   UNL     1      -1.606  -0.843  -0.421  0.00  0.00    +0.292 HD
ENDBRANCH  13  18
ENDBRANCH   6  10
BRANCH   1  21
ATOM     20  C   UNL     1       7.697   8.038   0.231  0.00  0.00    +0.032 C 
ATOM     21  C   UNL     1       6.428   7.514   0.348  0.00  0.00    +0.114 C 
BRANCH  20  27
ATOM     22  C   UNL     1       6.889  10.333  -0.270  0.00  0.00    +0.011 A 
ATOM     23  C   UNL     1       7.075  11.686  -0.268  0.00  0.00    +0.046 A 
ATOM     24  C   UNL     1       8.262  12.227   0.217  0.00  0.00    +0.117 A 
ATOM     25  C   UNL     1       9.263  11.395   0.707  0.00  0.00    +0.046 A 
ATOM     26  C   UNL     1       9.086  10.040   0.714  0.00  0.00    +0.011 A 
ATOM     27  C   UNL     1       7.892   9.489   0.227  0.00  0.00    -0.023 A 
BRANCH  24  28
ATOM     28  O   UNL     1       8.443  13.572   0.213  0.00  0.00    -0.507 OA
ATOM     29  H   UNL     1       8.849  13.911  -0.597  0.00  0.00    +0.292 HD
ENDBRANCH  24  28
ENDBRANCH  20  27
BRANCH  21  30
ATOM     30  C   UNL     1       5.317   8.379   0.611  0.00  0.00    +0.104 C 
ATOM     31  N   UNL     1       4.436   9.066   0.820  0.00  0.00    -0.191 NA
ENDBRANCH  21  30
ENDBRANCH   1  21
TORSDOF 7
