REMARK  Name = ZINC13202637
REMARK  8 active torsions:
REMARK  status: ('A' for Active; 'I' for Inactive)
REMARK    1  A    between atoms: C_1  and  C_2
REMARK    2  A    between atoms: C_2  and  N_3
REMARK    3  A    between atoms: C_9  and  C_34
REMARK    4  A    between atoms: C_13  and  S_14
REMARK    5  A    between atoms: S_14  and  C_15
REMARK    6  A    between atoms: C_15  and  C_17
REMARK    7  A    between atoms: C_15  and  C_18
REMARK    8  A    between atoms: N_23  and  C_24
REMARK                            x       y       z     vdW  Elec       q    Type
REMARK                         _______ _______ _______ _____ _____    ______ ____
ROOT
ATOM      1  C   UNL     1      -3.867   2.776   0.056  0.00  0.00    +0.137 C 
ATOM      2  C   UNL     1      -3.682   1.993   1.358  0.00  0.00    +0.029 C 
ENDROOT
BRANCH   1   3
ATOM      3  C   UNL     1      -5.296   3.242  -0.051  0.00  0.00    +0.233 C 
ATOM      4  O   UNL     1      -5.585   4.384   0.237  0.00  0.00    -0.274 OA
ATOM      5  N   UNL     1      -6.253   2.389  -0.467  0.00  0.00    -0.239 N 
ATOM      6  C   UNL     1      -7.532   2.806  -0.563  0.00  0.00    +0.306 C 
ATOM      7  O   UNL     1      -7.821   3.951  -0.274  0.00  0.00    -0.252 OA
ATOM      8  N   UNL     1      -8.489   1.954  -0.979  0.00  0.00    -0.294 N 
ATOM      9  H   UNL     1      -6.022   1.476  -0.698  0.00  0.00    +0.159 HD
ATOM     10  H   UNL     1      -8.258   1.040  -1.210  0.00  0.00    +0.151 HD
BRANCH   8  11
ATOM     11  C   UNL     1      -9.878   2.407  -1.083  0.00  0.00    +0.037 C 
ATOM     12  C   UNL     1     -10.368   2.870   0.290  0.00  0.00    +0.029 C 
ATOM     13  C   UNL     1     -11.819   3.343   0.181  0.00  0.00    -0.008 C 
ATOM     14  C   UNL     1     -12.696   2.190  -0.310  0.00  0.00    +0.007 C 
ATOM     15  C   UNL     1     -12.206   1.726  -1.684  0.00  0.00    -0.008 C 
ATOM     16  C   UNL     1     -10.755   1.253  -1.575  0.00  0.00    +0.029 C 
ATOM     17  C   UNL     1     -12.290   2.889  -2.674  0.00  0.00    +0.007 C 
ATOM     18  C   UNL     1     -11.414   4.042  -2.183  0.00  0.00    -0.008 C 
ATOM     19  C   UNL     1     -11.903   4.506  -0.809  0.00  0.00    +0.007 C 
ATOM     20  C   UNL     1      -9.963   3.569  -2.074  0.00  0.00    +0.029 C 
ENDBRANCH   8  11
ENDBRANCH   1   3
BRANCH   1  21
ATOM     21  S   UNL     1      -2.763   4.210   0.053  0.00  0.00    -0.075 S 
BRANCH  21  32
ATOM     22  N   UNL     1      -0.069   4.157   0.026  0.00  0.00    -0.288 N 
ATOM     23  C   UNL     1       1.152   3.574   0.011  0.00  0.00    +0.262 A 
ATOM     24  O   UNL     1       2.170   4.241   0.005  0.00  0.00    -0.267 OA
ATOM     25  C   UNL     1       1.205   2.103   0.002  0.00  0.00    +0.065 A 
ATOM     26  C   UNL     1       2.417   1.414  -0.014  0.00  0.00    +0.016 A 
ATOM     27  C   UNL     1       2.424   0.049  -0.021  0.00  0.00    +0.016 A 
ATOM     28  C   UNL     1       1.221  -0.670  -0.013  0.00  0.00    +0.065 A 
ATOM     29  C   UNL     1       0.002  -0.004   0.002  0.00  0.00    +0.043 A 
ATOM     30  C   UNL     1      -0.017   1.394   0.010  0.00  0.00    +0.080 A 
ATOM     31  N   UNL     1      -1.181   2.084   0.030  0.00  0.00    -0.223 NA
ATOM     32  C   UNL     1      -1.201   3.394   0.033  0.00  0.00    +0.173 A 
BRANCH  28  33
ATOM     33  C   UNL     1       1.250  -2.149  -0.021  0.00  0.00    +0.387 C 
ATOM     34  O   UNL     1       0.210  -2.777  -0.015  0.00  0.00    -0.241 OA
ATOM     35  O   UNL     1       2.429  -2.800  -0.036  0.00  0.00    -0.241 OA
ENDBRANCH  28  33
BRANCH  22  37
ATOM     36  C   UNL     1      -0.227   6.135  -1.404  0.00  0.00    +0.027 C 
ATOM     37  C   UNL     1      -0.176   5.618   0.035  0.00  0.00    +0.124 C 
ENDBRANCH  22  37
ENDBRANCH  21  32
ENDBRANCH   1  21
TORSDOF 6
