REMARK  Name = ZINC36170711
REMARK  7 active torsions:
REMARK  status: ('A' for Active; 'I' for Inactive)
REMARK    1  A    between atoms: C_1  and  C_2
REMARK    2  A    between atoms: C_2  and  C_3
REMARK    3  A    between atoms: C_2  and  N_4
REMARK    4  A    between atoms: N_7  and  C_10
REMARK    5  A    between atoms: C_10  and  C_12
REMARK    6  A    between atoms: C_10  and  C_14
REMARK    7  A    between atoms: C_12  and  N_13
REMARK                            x       y       z     vdW  Elec       q    Type
REMARK                         _______ _______ _______ _____ _____    ______ ____
ROOT
ATOM      1  C   UNL     1      -4.889  -2.542  -1.176  0.00  0.00    +0.076 C 
ENDROOT
BRANCH   1   5
ATOM      2  N   UNL     1      -1.712   0.103  -0.293  0.00  0.00    +0.383 N 
ATOM      3  C   UNL     1      -2.702   0.523  -1.293  0.00  0.00    -0.063 C 
ATOM      4  C   UNL     1      -3.983  -0.296  -1.119  0.00  0.00    +0.066 C 
ATOM      5  N   UNL     1      -3.673  -1.724  -1.280  0.00  0.00    -0.300 NA
ATOM      6  C   UNL     1      -2.664  -2.153  -0.301  0.00  0.00    +0.066 C 
ATOM      7  C   UNL     1      -1.395  -1.318  -0.482  0.00  0.00    -0.063 C 
ATOM      8  H   UNL     1      -2.089   0.243   0.632  0.00  0.00    -0.081 HD
BRANCH   2  10
ATOM      9  C   UNL     1      -0.820   2.384  -0.252  0.00  0.00    -0.014 C 
ATOM     10  C   UNL     1      -0.489   0.903  -0.449  0.00  0.00    -0.075 C 
ATOM     11  C   UNL     1       0.541   0.467   0.594  0.00  0.00    -0.014 C 
ENDBRANCH   2  10
ENDBRANCH   1   5
BRANCH   1  12
ATOM     12  C   UNL     1      -5.576  -2.255   0.135  0.00  0.00    +0.006 A 
ATOM     13  C   UNL     1      -6.878  -1.962   0.368  0.00  0.00    +0.014 A 
ATOM     14  C   UNL     1      -7.291  -1.732   1.668  0.00  0.00    +0.028 A 
ATOM     15  C   UNL     1      -6.380  -1.807   2.670  0.00  0.00    +0.078 A 
ATOM     16  S   UNL     1      -4.887  -2.220   1.781  0.00  0.00    -0.080 S 
ATOM     17 CL   UNL     1      -6.607  -1.570   4.375  0.00  0.00    -0.076 Cl
ENDBRANCH   1  12
BRANCH   1  18
ATOM     18  C   UNL     1      -4.514  -4.024  -1.241  0.00  0.00    -0.062 C 
BRANCH  18  19
ATOM     19  N   UNL     1      -3.740  -4.279  -2.463  0.00  0.00    +0.379 N 
ATOM     20  H   UNL     1      -3.493  -5.257  -2.506  0.00  0.00    -0.090 HD
ATOM     21  H   UNL     1      -4.294  -4.037  -3.270  0.00  0.00    -0.090 HD
ATOM     22  H   UNL     1      -2.900  -3.720  -2.452  0.00  0.00    -0.090 HD
ENDBRANCH  18  19
ENDBRANCH   1  18
TORSDOF 5
