REMARK  Name = ZINC39665529
REMARK  12 active torsions:
REMARK  status: ('A' for Active; 'I' for Inactive)
REMARK    1  A    between atoms: C_1  and  C_2
REMARK    2  A    between atoms: C_2  and  C_3
REMARK    3  A    between atoms: C_3  and  C_4
REMARK    4  A    between atoms: C_4  and  C_5
REMARK    5  A    between atoms: C_9  and  C_18
REMARK    6  A    between atoms: N_20  and  C_21
REMARK    7  A    between atoms: C_21  and  C_22
REMARK    8  A    between atoms: C_22  and  C_24
REMARK    9  A    between atoms: C_22  and  O_25
REMARK   10  A    between atoms: O_25  and  C_26
REMARK   11  A    between atoms: C_29  and  O_32
REMARK   12  A    between atoms: O_32  and  C_33
REMARK                            x       y       z     vdW  Elec       q    Type
REMARK                         _______ _______ _______ _____ _____    ______ ____
ROOT
ATOM      1  C   UNL     1      -2.851  -2.574   0.022  0.00  0.00    +0.216 C 
ATOM      2  O   UNL     1      -3.779  -1.794   0.043  0.00  0.00    -0.276 OA
ATOM      3  N   UNL     1      -3.086  -3.901   0.018  0.00  0.00    -0.300 N 
ATOM      4  C   UNL     1      -2.091  -5.000   0.001  0.00  0.00    +0.121 C 
ATOM      5  C   UNL     1      -2.675  -6.070   0.950  0.00  0.00    +0.100 C 
ATOM      6  C   UNL     1      -4.188  -5.799   0.963  0.00  0.00    -0.004 C 
ATOM      7  C   UNL     1      -4.397  -4.592   0.037  0.00  0.00    +0.115 C 
ATOM      8  C   UNL     1      -4.652  -5.457   2.376  0.00  0.00    -0.010 C 
ATOM      9  C   UNL     1      -6.168  -5.248   2.375  0.00  0.00    -0.082 C 
ATOM     10  N   UNL     1      -6.832  -6.469   1.902  0.00  0.00    +0.379 N 
ATOM     11  C   UNL     1      -6.453  -6.739   0.510  0.00  0.00    -0.082 C 
ATOM     12  C   UNL     1      -4.948  -7.011   0.433  0.00  0.00    -0.010 C 
ATOM     13  H   UNL     1      -6.555  -7.247   2.482  0.00  0.00    -0.086 HD
ATOM     14  H   UNL     1      -7.833  -6.350   1.960  0.00  0.00    -0.086 HD
ENDROOT
BRANCH   5  15
ATOM     15  C   UNL     1      -2.099  -5.915   2.334  0.00  0.00    +0.218 C 
ATOM     16  O   UNL     1      -1.684  -4.836   2.700  0.00  0.00    -0.275 OA
ATOM     17  N   UNL     1      -2.046  -6.976   3.164  0.00  0.00    -0.312 N 
ATOM     18  H   UNL     1      -2.378  -7.838   2.871  0.00  0.00    +0.149 HD
BRANCH  17  19
ATOM     19  C   UNL     1      -1.486  -6.825   4.510  0.00  0.00    +0.148 C 
BRANCH  19  20
ATOM     20  C   UNL     1      -1.543  -8.168   5.239  0.00  0.00    +0.187 C 
ATOM     21  C   UNL     1      -0.959  -8.011   6.644  0.00  0.00    +0.053 C 
BRANCH  20  22
ATOM     22  O   UNL     1      -2.902  -8.601   5.334  0.00  0.00    -0.488 OA
BRANCH  22  23
ATOM     23  C   UNL     1      -3.116  -9.938   5.459  0.00  0.00    +0.121 A 
ATOM     24  C   UNL     1      -4.410 -10.438   5.436  0.00  0.00    +0.049 A 
ATOM     25  C   UNL     1      -4.628 -11.796   5.563  0.00  0.00    +0.049 A 
ATOM     26  C   UNL     1      -3.553 -12.660   5.712  0.00  0.00    +0.120 A 
ATOM     27  C   UNL     1      -2.259 -12.161   5.734  0.00  0.00    +0.049 A 
ATOM     28  C   UNL     1      -2.041 -10.803   5.603  0.00  0.00    +0.049 A 
BRANCH  26  29
ATOM     29  O   UNL     1      -3.767 -13.997   5.837  0.00  0.00    -0.495 OA
ATOM     30  C   UNL     1      -2.614 -14.828   5.987  0.00  0.00    +0.277 C 
ENDBRANCH  26  29
ENDBRANCH  22  23
ENDBRANCH  20  22
ENDBRANCH  19  20
ENDBRANCH  17  19
ENDBRANCH   5  15
BRANCH   1  31
ATOM     31  C   UNL     1      -1.435  -2.059   0.001  0.00  0.00    +0.096 C 
BRANCH  31  32
ATOM     32  C   UNL     1      -1.448  -0.529   0.010  0.00  0.00    +0.009 C 
BRANCH  32  34
ATOM     33  C   UNL     1      -0.024   1.523  -0.002  0.00  0.00    +0.004 C 
ATOM     34  C   UNL     1      -0.010  -0.007  -0.011  0.00  0.00    -0.003 C 
ENDBRANCH  32  34
ENDBRANCH  31  32
ENDBRANCH   1  31
TORSDOF 9
