REMARK  Name = ZINC37242323
REMARK  7 active torsions:
REMARK  status: ('A' for Active; 'I' for Inactive)
REMARK    1  A    between atoms: C_1  and  C_2
REMARK    2  A    between atoms: C_10  and  C_11
REMARK    3  A    between atoms: C_11  and  C_13
REMARK    4  A    between atoms: C_11  and  N_14
REMARK    5  A    between atoms: N_14  and  C_15
REMARK    6  A    between atoms: C_15  and  C_17
REMARK    7  A    between atoms: C_15  and  C_18
REMARK                            x       y       z     vdW  Elec       q    Type
REMARK                         _______ _______ _______ _____ _____    ______ ____
ROOT
ATOM      1  C   UNL     1       0.059  -0.454   2.456  0.00  0.00    -0.007 C 
ATOM      2  C   UNL     1       1.432  -0.504   3.128  0.00  0.00    -0.006 C 
ENDROOT
BRANCH   1  12
ATOM      3  C   UNL     1       0.103   0.980  -0.301  0.00  0.00    +0.048 C 
ATOM      4  C   UNL     1       0.149  -0.508  -0.068  0.00  0.00    -0.003 A 
ATOM      5  C   UNL     1       0.230  -1.559  -1.090  0.00  0.00    +0.023 A 
ATOM      6  C   UNL     1       0.286  -1.562  -2.483  0.00  0.00    +0.012 A 
ATOM      7  C   UNL     1       0.357  -2.750  -3.155  0.00  0.00    +0.001 A 
ATOM      8  C   UNL     1       0.374  -3.951  -2.461  0.00  0.00    +0.004 A 
ATOM      9  C   UNL     1       0.320  -3.968  -1.084  0.00  0.00    +0.047 A 
ATOM     10  C   UNL     1       0.247  -2.772  -0.380  0.00  0.00    +0.135 A 
ATOM     11  O   UNL     1       0.182  -2.469   0.932  0.00  0.00    -0.461 OA
ATOM     12  C   UNL     1       0.131  -1.138   1.115  0.00  0.00    +0.095 A 
ENDBRANCH   1  12
BRANCH   1  13
ATOM     13  N   UNL     1      -0.926  -1.139   3.303  0.00  0.00    +0.389 N 
ATOM     14  H   UNL     1      -0.699  -2.121   3.356  0.00  0.00    -0.084 HD
ATOM     15  H   UNL     1      -0.909  -0.740   4.229  0.00  0.00    -0.084 HD
BRANCH  13  16
ATOM     16  C   UNL     1      -2.267  -0.977   2.724  0.00  0.00    -0.045 C 
ATOM     17  C   UNL     1      -2.672   0.497   2.782  0.00  0.00    -0.011 C 
BRANCH  16  18
ATOM     18  C   UNL     1      -3.270  -1.813   3.521  0.00  0.00    +0.104 C 
ATOM     19  C   UNL     1      -4.659  -1.746   2.849  0.00  0.00    +0.032 C 
ATOM     20  C   UNL     1      -5.613  -1.667   4.071  0.00  0.00    +0.030 C 
ATOM     21  C   UNL     1      -4.754  -0.843   5.063  0.00  0.00    +0.160 C 
ATOM     22  O   UNL     1      -3.402  -1.284   4.845  0.00  0.00    -0.378 OA
ENDBRANCH  16  18
ENDBRANCH  13  16
ENDBRANCH   1  13
TORSDOF 4
