REMARK  Name = ZINC35119824
REMARK  4 active torsions:
REMARK  status: ('A' for Active; 'I' for Inactive)
REMARK    1  A    between atoms: N_5  and  S_8
REMARK    2  A    between atoms: S_8  and  N_11
REMARK    3  A    between atoms: N_11  and  C_12
REMARK    4  A    between atoms: C_15  and  O_18
REMARK                            x       y       z     vdW  Elec       q    Type
REMARK                         _______ _______ _______ _____ _____    ______ ____
ROOT
ATOM      1  S   UNL     1       0.446  -0.276  -3.510  0.00  0.00    +0.097 S 
ATOM      2  O   UNL     1      -0.713  -0.955  -3.044  0.00  0.00    -0.141 OA
ATOM      3  O   UNL     1       0.374   0.864  -4.354  0.00  0.00    -0.141 OA
ENDROOT
BRANCH   1   8
ATOM      4  C   UNL     1      -0.019   1.544   0.011  0.00  0.00    +0.001 C 
ATOM      5  C   UNL     1       1.377   2.097   0.000  0.00  0.00    +0.001 C 
ATOM      6  C   UNL     1       1.668   2.437  -1.458  0.00  0.00    +0.017 C 
ATOM      7  C   UNL     1       2.254   1.339  -2.226  0.00  0.00    +0.110 C 
ATOM      8  N   UNL     1       1.297   0.183  -2.165  0.00  0.00    -0.167 NA
ATOM      9  C   UNL     1       1.133  -0.517  -0.924  0.00  0.00    +0.110 C 
ATOM     10  C   UNL     1       0.002  -0.004   0.002  0.00  0.00    +0.017 C 
ENDBRANCH   1   8
BRANCH   1  11
ATOM     11  N   UNL     1       1.363  -1.400  -4.309  0.00  0.00    -0.177 NA
ATOM     12  H   UNL     1       1.712  -1.202  -5.193  0.00  0.00    +0.149 HD
BRANCH  11  13
ATOM     13  C   UNL     1       1.647  -2.694  -3.683  0.00  0.00    +0.078 C 
ATOM     14  C   UNL     1       3.001  -2.630  -2.974  0.00  0.00    +0.023 C 
ATOM     15  C   UNL     1       3.298  -3.981  -2.320  0.00  0.00    +0.033 C 
ATOM     16  C   UNL     1       3.335  -5.071  -3.394  0.00  0.00    +0.115 C 
ATOM     17  C   UNL     1       1.981  -5.134  -4.103  0.00  0.00    +0.033 C 
ATOM     18  C   UNL     1       1.684  -3.783  -4.757  0.00  0.00    +0.023 C 
BRANCH  16  19
ATOM     19  O   UNL     1       3.612  -6.332  -2.783  0.00  0.00    -0.392 OA
ATOM     20  H   UNL     1       3.651  -7.071  -3.406  0.00  0.00    +0.210 HD
ENDBRANCH  16  19
ENDBRANCH  11  13
ENDBRANCH   1  11
TORSDOF 4
