REMARK  Name = ZINC60372289
REMARK  7 active torsions:
REMARK  status: ('A' for Active; 'I' for Inactive)
REMARK    1  A    between atoms: C_1  and  C_2
REMARK    2  A    between atoms: N_9  and  C_10
REMARK    3  A    between atoms: C_10  and  C_11
REMARK    4  A    between atoms: C_11  and  C_13
REMARK    5  A    between atoms: C_11  and  N_19
REMARK    6  A    between atoms: N_19  and  C_20
REMARK    7  A    between atoms: N_19  and  C_21
REMARK                            x       y       z     vdW  Elec       q    Type
REMARK                         _______ _______ _______ _____ _____    ______ ____
ROOT
ATOM      1  C   UNL     1      -0.239  -4.361  -2.618  0.00  0.00    +0.088 C 
ENDROOT
BRANCH   1  10
ATOM      2  C   UNL     1      -1.034   0.961   0.289  0.00  0.00    +0.088 C 
ATOM      3  C   UNL     1      -0.736  -0.510   0.154  0.00  0.00    +0.130 A 
ATOM      4  N   UNL     1      -0.758  -1.062  -1.042  0.00  0.00    -0.218 NA
ATOM      5  C   UNL     1      -0.500  -2.357  -1.199  0.00  0.00    +0.124 A 
ATOM      6  C   UNL     1      -0.203  -3.127  -0.074  0.00  0.00    +0.083 A 
ATOM      7  C   UNL     1      -0.191  -2.507   1.162  0.00  0.00    +0.135 A 
ATOM      8  N   UNL     1      -0.454  -1.208   1.236  0.00  0.00    -0.221 NA
ATOM      9 CL   UNL     1       0.172  -3.413   2.597  0.00  0.00    -0.062 Cl
ATOM     10  N   UNL     1      -0.526  -2.933  -2.459  0.00  0.00    -0.330 N 
ATOM     11  H   UNL     1      -0.733  -2.390  -3.236  0.00  0.00    +0.147 HD
ENDBRANCH   1  10
BRANCH   1  12
ATOM     12  C   UNL     1      -0.127  -4.695  -4.107  0.00  0.00    -0.049 C 
BRANCH  12  13
ATOM     13  C   UNL     1       0.018  -6.208  -4.280  0.00  0.00    -0.023 C 
ATOM     14  C   UNL     1       0.236  -6.534  -5.759  0.00  0.00    +0.002 C 
ATOM     15  C   UNL     1       0.381  -8.047  -5.931  0.00  0.00    +0.000 C 
ATOM     16  C   UNL     1      -0.890  -8.741  -5.439  0.00  0.00    +0.000 C 
ATOM     17  C   UNL     1      -1.108  -8.415  -3.960  0.00  0.00    +0.000 C 
ATOM     18  C   UNL     1      -1.253  -6.902  -3.787  0.00  0.00    +0.002 C 
ENDBRANCH  12  13
BRANCH  12  19
ATOM     19  N   UNL     1       1.051  -4.023  -4.672  0.00  0.00    +0.379 N 
ATOM     20  C   UNL     1       0.856  -2.568  -4.619  0.00  0.00    -0.096 C 
ATOM     21  C   UNL     1       2.243  -4.386  -3.893  0.00  0.00    -0.096 C 
ATOM     22  H   UNL     1       1.175  -4.311  -5.631  0.00  0.00    -0.082 HD
ENDBRANCH  12  19
ENDBRANCH   1  12
TORSDOF 4
