REMARK  Name = ZINC37172981
REMARK  12 active torsions:
REMARK  status: ('A' for Active; 'I' for Inactive)
REMARK    1  A    between atoms: C_1  and  C_2
REMARK    2  A    between atoms: C_2  and  C_3
REMARK    3  A    between atoms: C_3  and  C_5
REMARK    4  A    between atoms: C_3  and  C_6
REMARK    5  A    between atoms: C_6  and  N_7
REMARK    6  A    between atoms: N_7  and  C_8
REMARK    7  A    between atoms: N_7  and  C_9
REMARK    8  A    between atoms: C_12  and  C_19
REMARK    9  A    between atoms: C_16  and  N_18
REMARK   10  A    between atoms: C_19  and  C_20
REMARK   11  A    between atoms: C_19  and  C_21
REMARK   12  A    between atoms: C_19  and  C_22
REMARK                            x       y       z     vdW  Elec       q    Type
REMARK                         _______ _______ _______ _____ _____    ______ ____
ROOT
ATOM      1  C   UNL     1      -2.809  -4.014   0.014  0.00  0.00    -0.084 C 
ATOM      2  C   UNL     1      -1.831  -4.608  -1.001  0.00  0.00    -0.013 C 
ATOM      3  C   UNL     1      -1.858  -6.135  -0.904  0.00  0.00    -0.007 C 
ATOM      4  C   UNL     1      -3.272  -6.639  -1.202  0.00  0.00    +0.002 C 
ATOM      5  C   UNL     1      -4.250  -6.045  -0.186  0.00  0.00    -0.018 C 
ATOM      6  C   UNL     1      -4.222  -4.519  -0.284  0.00  0.00    -0.089 C 
ENDROOT
BRANCH   6   7
ATOM      7  N   UNL     1      -4.613  -4.108  -1.639  0.00  0.00    +0.379 N 
ATOM      8  H   UNL     1      -3.968  -4.499  -2.308  0.00  0.00    -0.090 HD
ATOM      9  H   UNL     1      -5.545  -4.441  -1.835  0.00  0.00    -0.090 HD
ATOM     10  H   UNL     1      -4.595  -3.101  -1.703  0.00  0.00    -0.090 HD
ENDBRANCH   6   7
BRANCH   3  11
ATOM     11  C   UNL     1      -0.880  -6.728  -1.919  0.00  0.00    -0.035 C 
ATOM     12  C   UNL     1       0.533  -6.224  -1.621  0.00  0.00    +0.011 C 
ATOM     13  C   UNL     1      -0.908  -8.255  -1.822  0.00  0.00    +0.011 C 
ATOM     14  C   UNL     1      -1.288  -6.300  -3.330  0.00  0.00    +0.011 C 
ENDBRANCH   3  11
BRANCH   1  15
ATOM     15  N   UNL     1      -2.782  -2.549  -0.079  0.00  0.00    +0.379 N 
ATOM     16  C   UNL     1      -3.721  -1.978   0.896  0.00  0.00    -0.096 C 
ATOM     17  H   UNL     1      -3.051  -2.266  -1.010  0.00  0.00    -0.082 HD
BRANCH  15  18
ATOM     18  C   UNL     1      -1.425  -2.064   0.207  0.00  0.00    -0.076 C 
BRANCH  18  19
ATOM     19  C   UNL     1      -1.365  -0.552  -0.019  0.00  0.00    -0.031 C 
ATOM     20  C   UNL     1       0.006  -0.026   0.408  0.00  0.00    +0.005 C 
BRANCH  19  22
ATOM     21  C   UNL     1      -1.653   1.266  -1.709  0.00  0.00    +0.004 C 
ATOM     22  C   UNL     1      -1.588  -0.249  -1.502  0.00  0.00    -0.002 C 
ENDBRANCH  19  22
ENDBRANCH  18  19
ENDBRANCH  15  18
ENDBRANCH   1  15
TORSDOF 6
