REMARK  Name = ZINC36505173
REMARK  4 active torsions:
REMARK  status: ('A' for Active; 'I' for Inactive)
REMARK    1  A    between atoms: C_1  and  C_2
REMARK    2  A    between atoms: C_2  and  C_17
REMARK    3  A    between atoms: N_3  and  N_4
REMARK    4  A    between atoms: C_5  and  C_7
REMARK                            x       y       z     vdW  Elec       q    Type
REMARK                         _______ _______ _______ _____ _____    ______ ____
ROOT
ATOM      1  N   UNL     1      -0.286  -2.034   1.094  0.00  0.00    -0.203 N 
ATOM      2  C   UNL     1      -0.478  -2.697   2.252  0.00  0.00    +0.265 C 
ATOM      3  O   UNL     1      -0.476  -2.091   3.307  0.00  0.00    -0.268 OA
ATOM      4  H   UNL     1      -0.288  -2.517   0.253  0.00  0.00    +0.178 HD
ENDROOT
BRANCH   2   5
ATOM      5  C   UNL     1      -0.690  -4.150   2.240  0.00  0.00    +0.063 A 
ATOM      6  C   UNL     1      -0.713  -4.963   1.145  0.00  0.00    +0.096 A 
ATOM      7  N   UNL     1      -0.933  -6.243   1.529  0.00  0.00    -0.360 N 
ATOM      8  H   UNL     1      -0.991  -7.000   0.925  0.00  0.00    +0.165 HD
ATOM      9  C   UNL     1      -1.064  -6.319   2.901  0.00  0.00    +0.047 A 
ATOM     10  C   UNL     1      -0.913  -5.019   3.410  0.00  0.00    +0.012 A 
ATOM     11  C   UNL     1      -0.993  -4.793   4.782  0.00  0.00    +0.011 A 
ATOM     12  C   UNL     1      -1.218  -5.851   5.635  0.00  0.00    +0.001 A 
ATOM     13  C   UNL     1      -1.364  -7.136   5.134  0.00  0.00    +0.002 A 
ATOM     14  C   UNL     1      -1.294  -7.373   3.778  0.00  0.00    +0.026 A 
ENDBRANCH   2   5
BRANCH   1  17
ATOM     15  C   UNL     1       0.094   1.500   0.012  0.00  0.00    +0.062 C 
ATOM     16  C   UNL     1       0.003  -0.005   0.002  0.00  0.00    +0.037 C 
ATOM     17  N   UNL     1      -0.085  -0.648   1.106  0.00  0.00    -0.189 NA
BRANCH  16  18
ATOM     18  C   UNL     1       0.016  -0.752  -1.306  0.00  0.00    +0.038 C 
ATOM     19  C   UNL     1       1.343  -1.528  -1.471  0.00  0.00    +0.013 C 
ATOM     20  C   UNL     1       1.996  -0.924  -2.752  0.00  0.00    -0.010 C 
ATOM     21  C   UNL     1       1.109  -1.444  -3.924  0.00  0.00    +0.004 C 
ATOM     22  C   UNL     1      -0.227  -0.683  -3.772  0.00  0.00    +0.004 C 
ATOM     23  C   UNL     1      -0.011   0.247  -2.503  0.00  0.00    -0.002 C 
ATOM     24  C   UNL     1       1.523   0.568  -2.643  0.00  0.00    +0.007 C 
ENDBRANCH  16  18
ENDBRANCH   1  17
TORSDOF 3
