REMARK  Name = ZINC09874528
REMARK  5 active torsions:
REMARK  status: ('A' for Active; 'I' for Inactive)
REMARK    1  A    between atoms: C_1  and  C_2
REMARK    2  A    between atoms: C_7  and  C_14
REMARK    3  A    between atoms: C_11  and  C_12
REMARK    4  A    between atoms: C_14  and  S_15
REMARK    5  A    between atoms: S_15  and  C_16
REMARK                            x       y       z     vdW  Elec       q    Type
REMARK                         _______ _______ _______ _____ _____    ______ ____
ROOT
ATOM      1  C   UNL     1       2.413   0.979  -0.470  0.00  0.00    +0.044 C 
ATOM      2  C   UNL     1       1.144   1.750  -0.212  0.00  0.00    -0.045 A 
ATOM      3  C   UNL     1      -0.040   1.059   0.034  0.00  0.00    +0.004 A 
ATOM      4  C   UNL     1      -1.204   1.728   0.265  0.00  0.00    +0.010 A 
ATOM      5  C   UNL     1      -1.209   3.132   0.268  0.00  0.00    +0.001 A 
ATOM      6  C   UNL     1      -2.390   3.860   0.507  0.00  0.00    +0.017 A 
ATOM      7  C   UNL     1      -2.321   5.223   0.489  0.00  0.00    +0.000 A 
ATOM      8  C   UNL     1      -1.104   5.856   0.237  0.00  0.00    +0.134 A 
ATOM      9  N   UNL     1      -0.006   5.174   0.014  0.00  0.00    -0.235 NA
ATOM     10  C   UNL     1      -0.005   3.837   0.018  0.00  0.00    +0.076 A 
ATOM     11  C   UNL     1       1.175   3.111  -0.222  0.00  0.00    -0.022 A 
ATOM     12  C   UNL     1       2.468   3.837  -0.490  0.00  0.00    +0.046 C 
ATOM     13 CL   UNL     1      -1.040   7.590   0.219  0.00  0.00    -0.062 Cl
ENDROOT
BRANCH   7  14
ATOM     14  C   UNL     1      -3.560   6.044   0.740  0.00  0.00    +0.115 C 
BRANCH  14  15
ATOM     15  S   UNL     1      -4.399   6.367  -0.832  0.00  0.00    -0.080 S 
BRANCH  15  16
ATOM     16  C   UNL     1      -5.769   7.314  -0.258  0.00  0.00    +0.210 A 
ATOM     17  N   UNL     1      -6.754   7.842  -1.048  0.00  0.00    -0.144 NA
ATOM     18  H   UNL     1      -8.598   9.408   2.146  0.00  0.00    +0.145 HD
ATOM     19  N   UNL     1      -7.646   8.508  -0.191  0.00  0.00    -0.246 N 
ATOM     20  H   UNL     1      -8.534   9.011  -0.603  0.00  0.00    +0.192 HD
ATOM     21  C   UNL     1      -7.139   8.351   1.087  0.00  0.00    +0.209 A 
ATOM     22  N   UNL     1      -7.666   8.825   2.189  0.00  0.00    -0.328 N 
ATOM     23  N   UNL     1      -6.008   7.627   0.998  0.00  0.00    -0.188 NA
ATOM     24  H   UNL     1      -7.176   8.640   3.156  0.00  0.00    +0.145 HD
ENDBRANCH  15  16
ENDBRANCH  14  15
ENDBRANCH   7  14
TORSDOF 3
