REMARK  Name = ZINC39665145
REMARK  7 active torsions:
REMARK  status: ('A' for Active; 'I' for Inactive)
REMARK    1  A    between atoms: C_1  and  C_2
REMARK    2  A    between atoms: C_2  and  C_4
REMARK    3  A    between atoms: C_2  and  O_28
REMARK    4  A    between atoms: C_4  and  N_5
REMARK    5  A    between atoms: C_6  and  C_8
REMARK    6  A    between atoms: C_19  and  C_21
REMARK    7  A    between atoms: O_28  and  C_29
REMARK                            x       y       z     vdW  Elec       q    Type
REMARK                         _______ _______ _______ _____ _____    ______ ____
ROOT
ATOM      1  C   UNL     1      -3.360  -3.112   0.550  0.00  0.00    +0.100 C 
ATOM      2  C   UNL     1      -2.656  -3.722  -0.683  0.00  0.00    +0.121 C 
ATOM      3  N   UNL     1      -3.544  -4.828  -1.112  0.00  0.00    -0.296 N 
ATOM      4  C   UNL     1      -4.915  -4.293  -0.928  0.00  0.00    +0.115 C 
ATOM      5  C   UNL     1      -4.842  -3.487   0.385  0.00  0.00    -0.004 C 
ATOM      6  C   UNL     1      -5.697  -2.228   0.279  0.00  0.00    -0.010 C 
ATOM      7  C   UNL     1      -7.172  -2.627   0.175  0.00  0.00    -0.082 C 
ATOM      8  N   UNL     1      -7.556  -3.405   1.359  0.00  0.00    +0.379 N 
ATOM      9  C   UNL     1      -6.793  -4.659   1.402  0.00  0.00    -0.082 C 
ATOM     10  C   UNL     1      -5.303  -4.347   1.558  0.00  0.00    -0.010 C 
ATOM     11  C   UNL     1      -3.188  -6.046  -1.566  0.00  0.00    +0.247 C 
ATOM     12  O   UNL     1      -2.018  -6.379  -1.557  0.00  0.00    -0.270 OA
ATOM     13  H   UNL     1      -7.363  -2.867   2.190  0.00  0.00    -0.086 HD
ATOM     14  H   UNL     1      -8.542  -3.614   1.317  0.00  0.00    -0.086 HD
ENDROOT
BRANCH  11  15
ATOM     15  C   UNL     1      -4.218  -6.976  -2.074  0.00  0.00    +0.037 A 
ATOM     16  C   UNL     1      -5.439  -6.484  -2.538  0.00  0.00    +0.014 A 
ATOM     17  C   UNL     1      -6.396  -7.357  -3.010  0.00  0.00    +0.016 A 
ATOM     18  C   UNL     1      -6.148  -8.720  -3.025  0.00  0.00    +0.018 A 
ATOM     19  C   UNL     1      -4.938  -9.214  -2.566  0.00  0.00    +0.016 A 
ATOM     20  C   UNL     1      -3.971  -8.350  -2.096  0.00  0.00    +0.014 A 
ATOM     21 BR   UNL     1      -7.466  -9.910  -3.674  0.00  0.00    -0.050 Br
ENDBRANCH  11  15
BRANCH   1  23
ATOM     22  N   UNL     1      -3.157  -0.947   1.729  0.00  0.00    -0.312 N 
ATOM     23  C   UNL     1      -3.196  -1.614   0.559  0.00  0.00    +0.218 C 
ATOM     24  O   UNL     1      -3.098  -1.008  -0.488  0.00  0.00    -0.275 OA
ATOM     25  H   UNL     1      -3.235  -1.431   2.566  0.00  0.00    +0.149 HD
BRANCH  22  26
ATOM     26  C   UNL     1      -2.998   0.509   1.738  0.00  0.00    +0.148 C 
BRANCH  26  28
ATOM     27  C   UNL     1      -2.820   2.533   3.192  0.00  0.00    +0.053 C 
ATOM     28  C   UNL     1      -2.986   1.012   3.183  0.00  0.00    +0.187 C 
BRANCH  28  29
ATOM     29  O   UNL     1      -4.217   0.664   3.819  0.00  0.00    -0.488 OA
BRANCH  29  30
ATOM     30  C   UNL     1      -4.167   0.382   5.148  0.00  0.00    +0.121 A 
ATOM     31  C   UNL     1      -5.294  -0.099   5.799  0.00  0.00    +0.045 A 
ATOM     32  C   UNL     1      -5.240  -0.384   7.149  0.00  0.00    +0.004 A 
ATOM     33  C   UNL     1      -4.065  -0.191   7.852  0.00  0.00    +0.000 A 
ATOM     34  C   UNL     1      -2.941   0.288   7.205  0.00  0.00    +0.004 A 
ATOM     35  C   UNL     1      -2.988   0.570   5.854  0.00  0.00    +0.045 A 
ENDBRANCH  29  30
ENDBRANCH  28  29
ENDBRANCH  26  28
ENDBRANCH  22  26
ENDBRANCH   1  23
TORSDOF 6
