REMARK  Name = ZINC34991759
REMARK  8 active torsions:
REMARK  status: ('A' for Active; 'I' for Inactive)
REMARK    1  A    between atoms: C_1  and  C_2
REMARK    2  A    between atoms: C_8  and  N_10
REMARK    3  A    between atoms: N_10  and  C_11
REMARK    4  A    between atoms: C_11  and  C_12
REMARK    5  A    between atoms: C_14  and  O_21
REMARK    6  A    between atoms: C_15  and  O_19
REMARK    7  A    between atoms: O_19  and  C_20
REMARK    8  A    between atoms: O_21  and  C_22
REMARK                            x       y       z     vdW  Elec       q    Type
REMARK                         _______ _______ _______ _____ _____    ______ ____
ROOT
ATOM      1  C   UNL     1       0.830  -0.422   3.637  0.00  0.00    -0.046 C 
ENDROOT
BRANCH   1   2
ATOM      2  C   UNL     1       0.124   0.064   4.877  0.00  0.00    -0.059 A 
ATOM      3  C   UNL     1       0.403   1.321   5.381  0.00  0.00    +0.051 A 
ATOM      4  C   UNL     1      -0.244   1.770   6.521  0.00  0.00    +0.163 A 
ATOM      5  C   UNL     1      -1.174   0.953   7.157  0.00  0.00    +0.180 A 
ATOM      6  C   UNL     1      -1.449  -0.306   6.647  0.00  0.00    +0.086 A 
ATOM      7  C   UNL     1      -0.803  -0.746   5.505  0.00  0.00    +0.025 A 
ATOM      8 CL   UNL     1      -2.608  -1.329   7.437  0.00  0.00    -0.080 Cl
BRANCH   5   9
ATOM      9  O   UNL     1      -1.812   1.389   8.277  0.00  0.00    -0.490 OA
ATOM     10  C   UNL     1      -3.042   2.092   8.091  0.00  0.00    +0.277 C 
ENDBRANCH   5   9
BRANCH   4  11
ATOM     11  O   UNL     1       0.029   3.006   7.018  0.00  0.00    -0.491 OA
ATOM     12  C   UNL     1       0.995   3.789   6.313  0.00  0.00    +0.277 C 
ENDBRANCH   4  11
ENDBRANCH   1   2
BRANCH   1  13
ATOM     13  N   UNL     1       0.054  -0.037   2.450  0.00  0.00    +0.384 N 
ATOM     14  H   UNL     1      -0.032   0.968   2.416  0.00  0.00    -0.085 HD
ATOM     15  H   UNL     1      -0.864  -0.452   2.499  0.00  0.00    -0.085 HD
BRANCH  13  22
ATOM     16  C   UNL     1      -0.019   1.526   0.010  0.00  0.00    +0.006 C 
ATOM     17  C   UNL     1       0.002  -0.004   0.002  0.00  0.00    -0.028 C 
ATOM     18  C   UNL     1       0.718  -0.497  -1.257  0.00  0.00    +0.002 C 
ATOM     19  C   UNL     1       0.739  -2.027  -1.265  0.00  0.00    +0.000 C 
ATOM     20  C   UNL     1       1.479  -2.534  -0.026  0.00  0.00    -0.002 C 
ATOM     21  C   UNL     1       0.763  -2.041   1.233  0.00  0.00    -0.015 C 
ATOM     22  C   UNL     1       0.742  -0.511   1.242  0.00  0.00    -0.069 C 
ENDBRANCH  13  22
ENDBRANCH   1  13
TORSDOF 5
