REMARK  Name = ZINC17296147
REMARK  10 active torsions:
REMARK  status: ('A' for Active; 'I' for Inactive)
REMARK    1  A    between atoms: C_1  and  O_2
REMARK    2  A    between atoms: O_2  and  C_3
REMARK    3  A    between atoms: C_6  and  N_34
REMARK    4  A    between atoms: C_8  and  N_9
REMARK    5  A    between atoms: N_9  and  S_10
REMARK    6  A    between atoms: S_10  and  C_13
REMARK    7  A    between atoms: C_16  and  C_19
REMARK    8  A    between atoms: N_21  and  C_22
REMARK    9  A    between atoms: C_22  and  C_23
REMARK   10  A    between atoms: C_23  and  C_24
REMARK                            x       y       z     vdW  Elec       q    Type
REMARK                         _______ _______ _______ _____ _____    ______ ____
ROOT
ATOM      1  C   UNL     1      -4.845  -0.066   2.480  0.00  0.00    +0.109 A 
ATOM      2  C   UNL     1      -3.599  -0.073   3.082  0.00  0.00    +0.029 A 
ATOM      3  C   UNL     1      -3.486   0.120   4.443  0.00  0.00    +0.015 A 
ATOM      4  C   UNL     1      -4.632   0.313   5.215  0.00  0.00    +0.037 A 
ATOM      5  C   UNL     1      -5.886   0.314   4.603  0.00  0.00    +0.015 A 
ATOM      6  C   UNL     1      -5.985   0.125   3.240  0.00  0.00    +0.029 A 
ENDROOT
BRANCH   4   7
ATOM      7  C   UNL     1      -4.519   0.515   6.675  0.00  0.00    +0.244 C 
ATOM      8  O   UNL     1      -5.519   0.683   7.345  0.00  0.00    -0.270 OA
ATOM      9  N   UNL     1      -3.306   0.513   7.264  0.00  0.00    -0.311 N 
ATOM     10  H   UNL     1      -2.508   0.379   6.729  0.00  0.00    +0.149 HD
BRANCH   9  11
ATOM     11  C   UNL     1      -3.193   0.714   8.710  0.00  0.00    +0.109 C 
BRANCH  11  12
ATOM     12  C   UNL     1      -1.720   0.667   9.118  0.00  0.00    +0.056 C 
BRANCH  12  13
ATOM     13  C   UNL     1      -1.604   0.874  10.607  0.00  0.00    -0.021 A 
ATOM     14  C   UNL     1      -1.367   2.036  11.236  0.00  0.00    +0.087 A 
ATOM     15  N   UNL     1      -1.332   1.835  12.589  0.00  0.00    -0.360 N 
ATOM     16  H   UNL     1      -1.179   2.528  13.251  0.00  0.00    +0.165 HD
ATOM     17  C   UNL     1      -1.542   0.504  12.870  0.00  0.00    +0.047 A 
ATOM     18  C   UNL     1      -1.722  -0.157  11.641  0.00  0.00    +0.003 A 
ATOM     19  C   UNL     1      -1.956  -1.532  11.618  0.00  0.00    +0.010 A 
ATOM     20  C   UNL     1      -2.011  -2.231  12.791  0.00  0.00    +0.001 A 
ATOM     21  C   UNL     1      -1.835  -1.584  14.006  0.00  0.00    +0.002 A 
ATOM     22  C   UNL     1      -1.602  -0.227  14.052  0.00  0.00    +0.026 A 
ENDBRANCH  12  13
ENDBRANCH  11  12
ENDBRANCH   9  11
ENDBRANCH   4   7
BRANCH   1  23
ATOM     23  S   UNL     1      -4.980  -0.307   0.740  0.00  0.00    +0.072 S 
ATOM     24  O   UNL     1      -6.289  -0.807   0.500  0.00  0.00    -0.150 OA
ATOM     25  O   UNL     1      -3.812  -1.006   0.335  0.00  0.00    -0.150 OA
BRANCH  23  26
ATOM     26  N   UNL     1      -4.907   1.188   0.031  0.00  0.00    -0.213 N 
ATOM     27  H   UNL     1      -5.652   1.509  -0.501  0.00  0.00    +0.174 HD
BRANCH  26  33
ATOM     28  C   UNL     1      -3.899   3.371   0.303  0.00  0.00    +0.142 A 
ATOM     29  C   UNL     1      -2.771   4.157   0.469  0.00  0.00    +0.050 A 
ATOM     30  C   UNL     1      -1.521   3.568   0.539  0.00  0.00    +0.036 A 
ATOM     31  C   UNL     1      -1.393   2.196   0.431  0.00  0.00    +0.128 A 
ATOM     32  C   UNL     1      -2.513   1.404   0.265  0.00  0.00    +0.061 A 
ATOM     33  C   UNL     1      -3.771   1.987   0.200  0.00  0.00    +0.092 A 
BRANCH  31  34
ATOM     34  N   UNL     1      -0.052   1.573   0.500  0.00  0.00    +0.056 N 
ATOM     35  O   UNL     1       0.062   0.363   0.411  0.00  0.00    -0.126 OA
ATOM     36  O   UNL     1       0.937   2.269   0.642  0.00  0.00    -0.126 OA
ENDBRANCH  31  34
BRANCH  28  38
ATOM     37  C   UNL     1      -5.184   5.371   0.352  0.00  0.00    +0.277 C 
ATOM     38  O   UNL     1      -5.129   3.948   0.240  0.00  0.00    -0.493 OA
ENDBRANCH  28  38
ENDBRANCH  26  33
ENDBRANCH  23  26
ENDBRANCH   1  23
TORSDOF 9
