REMARK  Name = ZINC39597608
REMARK  7 active torsions:
REMARK  status: ('A' for Active; 'I' for Inactive)
REMARK    1  A    between atoms: C_1  and  O_2
REMARK    2  A    between atoms: O_2  and  C_3
REMARK    3  A    between atoms: C_8  and  C_9
REMARK    4  A    between atoms: C_13  and  C_22
REMARK    5  A    between atoms: N_24  and  C_25
REMARK    6  A    between atoms: C_25  and  C_26
REMARK    7  A    between atoms: C_26  and  C_27
REMARK                            x       y       z     vdW  Elec       q    Type
REMARK                         _______ _______ _______ _____ _____    ______ ____
ROOT
ATOM      1  C   UNL     1       0.011  -2.902   0.240  0.00  0.00    +0.250 C 
ATOM      2  O   UNL     1      -0.448  -2.466   1.278  0.00  0.00    -0.270 OA
ATOM      3  N   UNL     1       0.001  -4.229   0.003  0.00  0.00    -0.296 N 
ATOM      4  C   UNL     1       0.604  -4.952  -1.141  0.00  0.00    +0.121 C 
ATOM      5  C   UNL     1       1.195  -6.239  -0.523  0.00  0.00    +0.100 C 
ATOM      6  C   UNL     1       0.389  -6.459   0.769  0.00  0.00    -0.004 C 
ATOM      7  C   UNL     1      -0.611  -5.295   0.832  0.00  0.00    +0.115 C 
ATOM      8  C   UNL     1       1.313  -6.419   1.982  0.00  0.00    -0.010 C 
ATOM      9  C   UNL     1       0.498  -6.697   3.248  0.00  0.00    -0.082 C 
ATOM     10  N   UNL     1      -0.143  -8.013   3.140  0.00  0.00    +0.379 N 
ATOM     11  C   UNL     1      -1.100  -8.014   2.026  0.00  0.00    -0.082 C 
ATOM     12  C   UNL     1      -0.353  -7.791   0.709  0.00  0.00    -0.010 C 
ATOM     13  H   UNL     1       0.561  -8.717   2.977  0.00  0.00    -0.086 HD
ATOM     14  H   UNL     1      -0.630  -8.220   3.999  0.00  0.00    -0.086 HD
ENDROOT
BRANCH   1  20
ATOM     15  C   UNL     1       1.241  -0.814  -0.349  0.00  0.00    +0.132 A 
ATOM     16  C   UNL     1       1.777   0.044  -1.298  0.00  0.00    +0.046 A 
ATOM     17  C   UNL     1       1.654  -0.247  -2.642  0.00  0.00    +0.004 A 
ATOM     18  C   UNL     1       0.995  -1.394  -3.053  0.00  0.00    +0.001 A 
ATOM     19  C   UNL     1       0.457  -2.258  -2.124  0.00  0.00    +0.017 A 
ATOM     20  C   UNL     1       0.580  -1.979  -0.761  0.00  0.00    +0.078 A 
BRANCH  15  22
ATOM     21  C   UNL     1       2.049   0.675   1.316  0.00  0.00    +0.277 C 
ATOM     22  O   UNL     1       1.362  -0.530   0.972  0.00  0.00    -0.494 OA
ENDBRANCH  15  22
ENDBRANCH   1  20
BRANCH   5  23
ATOM     23  C   UNL     1       2.655  -6.046  -0.206  0.00  0.00    +0.218 C 
ATOM     24  O   UNL     1       3.073  -4.945   0.083  0.00  0.00    -0.275 OA
ATOM     25  N   UNL     1       3.498  -7.097  -0.244  0.00  0.00    -0.315 N 
ATOM     26  H   UNL     1       3.164  -7.978  -0.475  0.00  0.00    +0.149 HD
BRANCH  25  27
ATOM     27  C   UNL     1       4.918  -6.910   0.064  0.00  0.00    +0.109 C 
BRANCH  27  28
ATOM     28  C   UNL     1       5.646  -8.250  -0.051  0.00  0.00    +0.056 C 
BRANCH  28  29
ATOM     29  C   UNL     1       7.107  -8.057   0.266  0.00  0.00    -0.021 A 
ATOM     30  C   UNL     1       7.717  -8.060   1.598  0.00  0.00    +0.003 A 
ATOM     31  C   UNL     1       7.221  -8.225   2.892  0.00  0.00    +0.010 A 
ATOM     32  C   UNL     1       8.076  -8.174   3.958  0.00  0.00    +0.001 A 
ATOM     33  C   UNL     1       9.433  -7.960   3.763  0.00  0.00    +0.002 A 
ATOM     34  C   UNL     1       9.944  -7.795   2.494  0.00  0.00    +0.026 A 
ATOM     35  C   UNL     1       9.093  -7.844   1.395  0.00  0.00    +0.047 A 
ATOM     36  N   UNL     1       9.289  -7.720   0.038  0.00  0.00    -0.360 N 
ATOM     37  C   UNL     1       8.096  -7.855  -0.619  0.00  0.00    +0.087 A 
ATOM     38  H   UNL     1      10.145  -7.563  -0.390  0.00  0.00    +0.165 HD
ENDBRANCH  28  29
ENDBRANCH  27  28
ENDBRANCH  25  27
ENDBRANCH   5  23
TORSDOF 6
