REMARK  Name = ZINC04674085
REMARK  4 active torsions:
REMARK  status: ('A' for Active; 'I' for Inactive)
REMARK    1  A    between atoms: C_1  and  C_2
REMARK    2  A    between atoms: C_4  and  N_15
REMARK    3  A    between atoms: C_5  and  N_9
REMARK    4  A    between atoms: C_7  and  N_8
REMARK                            x       y       z     vdW  Elec       q    Type
REMARK                         _______ _______ _______ _____ _____    ______ ____
ROOT
ATOM      1  C   UNL     1       1.622  -0.669   5.892  0.00  0.00    +0.046 C 
ATOM      2  C   UNL     1       1.006  -0.079   4.649  0.00  0.00    -0.028 A 
ATOM      3  C   UNL     1       1.074   1.283   4.425  0.00  0.00    +0.039 A 
ATOM      4  C   UNL     1       0.516   1.827   3.285  0.00  0.00    +0.147 A 
ATOM      5  C   UNL     1      -0.127   1.007   2.364  0.00  0.00    +0.062 A 
ATOM      6  C   UNL     1      -0.197  -0.361   2.587  0.00  0.00    +0.048 A 
ATOM      7  C   UNL     1       0.370  -0.905   3.731  0.00  0.00    +0.029 A 
ENDROOT
BRANCH   5   8
ATOM      8  N   UNL     1      -0.695   1.559   1.214  0.00  0.00    -0.328 N 
ATOM      9  C   UNL     1      -2.153   1.381   1.211  0.00  0.00    +0.105 C 
ATOM     10  C   UNL     1      -2.756   2.121   0.014  0.00  0.00    +0.019 C 
ATOM     11  C   UNL     1      -2.152   1.567  -1.279  0.00  0.00    +0.003 C 
ATOM     12  C   UNL     1      -0.629   1.720  -1.229  0.00  0.00    +0.019 C 
ATOM     13  C   UNL     1      -0.088   0.992   0.003  0.00  0.00    +0.105 C 
ENDBRANCH   5   8
BRANCH   7  14
ATOM     14  N   UNL     1       0.301  -2.281   3.958  0.00  0.00    -0.358 N 
ATOM     15  H   UNL     1      -0.144  -2.857   3.317  0.00  0.00    +0.142 HD
ATOM     16  H   UNL     1       0.697  -2.661   4.758  0.00  0.00    +0.142 HD
ENDBRANCH   7  14
BRANCH   4  17
ATOM     17  N   UNL     1       0.597   3.285   3.045  0.00  0.00    +0.058 N 
ATOM     18  O   UNL     1       1.239   3.992   3.802  0.00  0.00    -0.126 OA
ATOM     19  O   UNL     1       0.022   3.779   2.092  0.00  0.00    -0.126 OA
ENDBRANCH   4  17
TORSDOF 3
