REMARK  Name = ZINC00416325
REMARK  7 active torsions:
REMARK  status: ('A' for Active; 'I' for Inactive)
REMARK    1  A    between atoms: C_1  and  C_2
REMARK    2  A    between atoms: C_2  and  N_3
REMARK    3  A    between atoms: C_7  and  S_8
REMARK    4  A    between atoms: S_8  and  C_9
REMARK    5  A    between atoms: C_9  and  C_10
REMARK    6  A    between atoms: N_13  and  C_20
REMARK    7  A    between atoms: N_16  and  C_19
REMARK                            x       y       z     vdW  Elec       q    Type
REMARK                         _______ _______ _______ _____ _____    ______ ____
ROOT
ATOM      1  N   UNL     1       0.711  -0.489   1.189  0.00  0.00    -0.313 N 
ATOM      2  C   UNL     1       2.072  -0.743   1.296  0.00  0.00    +0.152 A 
ATOM      3  C   UNL     1       2.288  -1.183   2.597  0.00  0.00    +0.169 A 
ATOM      4  N   UNL     1       1.109  -1.188   3.221  0.00  0.00    -0.204 NA
ATOM      5  C   UNL     1       0.163  -0.774   2.401  0.00  0.00    +0.172 A 
ATOM      6  N   UNL     1       3.576  -1.513   2.986  0.00  0.00    -0.280 N 
ATOM      7  C   UNL     1       4.593  -1.403   2.110  0.00  0.00    +0.333 A 
ATOM      8  O   UNL     1       5.718  -1.696   2.467  0.00  0.00    -0.246 OA
ATOM      9  N   UNL     1       4.395  -0.979   0.850  0.00  0.00    -0.262 N 
ATOM     10  C   UNL     1       3.163  -0.644   0.415  0.00  0.00    +0.282 A 
ATOM     11  O   UNL     1       2.997  -0.259  -0.730  0.00  0.00    -0.265 OA
ATOM     12  C   UNL     1       5.535  -0.877  -0.064  0.00  0.00    +0.157 C 
ATOM     13  C   UNL     1       3.833  -1.980   4.350  0.00  0.00    +0.155 C 
ENDROOT
BRANCH   1  15
ATOM     14  C   UNL     1      -0.019   1.526   0.010  0.00  0.00    +0.027 C 
ATOM     15  C   UNL     1       0.002  -0.004   0.002  0.00  0.00    +0.121 C 
ENDBRANCH   1  15
BRANCH   5  16
ATOM     16  S   UNL     1      -1.543  -0.617   2.811  0.00  0.00    -0.078 S 
BRANCH  16  17
ATOM     17  C   UNL     1      -1.628  -1.139   4.546  0.00  0.00    +0.172 C 
BRANCH  17  18
ATOM     18  C   UNL     1      -3.053  -1.052   5.028  0.00  0.00    +0.221 C 
ATOM     19  O   UNL     1      -3.926  -0.673   4.275  0.00  0.00    -0.275 OA
ATOM     20  N   UNL     1      -3.358  -1.393   6.296  0.00  0.00    -0.329 N 
ATOM     21  H   UNL     1      -2.660  -1.696   6.898  0.00  0.00    +0.145 HD
ATOM     22  H   UNL     1      -4.275  -1.337   6.606  0.00  0.00    +0.145 HD
ENDBRANCH  17  18
ENDBRANCH  16  17
ENDBRANCH   5  16
TORSDOF 4
