REMARK  Name = ZINC67226472
REMARK  10 active torsions:
REMARK  status: ('A' for Active; 'I' for Inactive)
REMARK    1  A    between atoms: C_1  and  C_2
REMARK    2  A    between atoms: C_5  and  C_11
REMARK    3  A    between atoms: C_6  and  C_10
REMARK    4  A    between atoms: C_7  and  O_8
REMARK    5  A    between atoms: O_8  and  C_9
REMARK    6  A    between atoms: C_11  and  N_12
REMARK    7  A    between atoms: N_15  and  C_18
REMARK    8  A    between atoms: C_18  and  C_20
REMARK    9  A    between atoms: C_18  and  C_21
REMARK   10  A    between atoms: N_23  and  C_24
REMARK                            x       y       z     vdW  Elec       q    Type
REMARK                         _______ _______ _______ _____ _____    ______ ____
ROOT
ATOM      1  N   UNL     1      -1.192  -5.479   0.958  0.00  0.00    -0.294 NA
ATOM      2  C   UNL     1      -1.415  -4.886   2.284  0.00  0.00    +0.100 C 
ATOM      3  C   UNL     1      -2.890  -5.034   2.664  0.00  0.00    +0.100 C 
ATOM      4  N   UNL     1      -3.254  -6.458   2.660  0.00  0.00    -0.289 NA
ATOM      5  C   UNL     1      -3.031  -7.051   1.334  0.00  0.00    +0.100 C 
ATOM      6  C   UNL     1      -1.556  -6.903   0.953  0.00  0.00    +0.100 C 
ENDROOT
BRANCH   4   7
ATOM      7  C   UNL     1      -4.644  -6.647   3.094  0.00  0.00    +0.140 C 
ATOM      8  C   UNL     1      -5.552  -5.675   2.338  0.00  0.00    +0.034 C 
BRANCH   7   9
ATOM      9  C   UNL     1      -4.749  -6.383   4.574  0.00  0.00    +0.230 C 
ATOM     10  O   UNL     1      -3.840  -5.830   5.157  0.00  0.00    -0.274 OA
ATOM     11  N   UNL     1      -5.851  -6.763   5.250  0.00  0.00    -0.311 N 
ATOM     12  H   UNL     1      -6.578  -7.205   4.784  0.00  0.00    +0.149 HD
BRANCH  11  13
ATOM     13  C   UNL     1      -5.952  -6.506   6.689  0.00  0.00    +0.073 C 
ATOM     14  C   UNL     1      -6.496  -7.632   7.571  0.00  0.00    +0.024 C 
ATOM     15  C   UNL     1      -7.355  -6.397   7.290  0.00  0.00    +0.024 C 
ENDBRANCH  11  13
ENDBRANCH   7   9
ENDBRANCH   4   7
BRANCH   1  16
ATOM     16  C   UNL     1       0.198  -5.290   0.523  0.00  0.00    +0.138 C 
BRANCH  16  21
ATOM     17  C   UNL     1       1.116   0.240  -0.698  0.00  0.00    +0.049 C 
ATOM     18  C   UNL     1       0.855  -1.216  -0.411  0.00  0.00    +0.007 A 
ATOM     19  C   UNL     1       1.337  -1.799   0.743  0.00  0.00    +0.089 A 
ATOM     20  N   UNL     1       1.113  -3.074   1.001  0.00  0.00    -0.363 N 
ATOM     21  C   UNL     1       0.424  -3.841   0.177  0.00  0.00    +0.037 A 
ATOM     22  C   UNL     1      -0.092  -3.333  -0.997  0.00  0.00    +0.012 A 
ATOM     23  C   UNL     1       0.118  -1.990  -1.304  0.00  0.00    +0.129 A 
ATOM     24  C   UNL     1      -0.878  -4.216  -1.931  0.00  0.00    +0.049 C 
ATOM     25  H   UNL     1       1.464  -3.457   1.820  0.00  0.00    +0.165 HD
BRANCH  23  26
ATOM     26  O   UNL     1      -0.378  -1.452  -2.447  0.00  0.00    -0.494 OA
ATOM     27  C   UNL     1       0.456  -1.508  -3.606  0.00  0.00    +0.277 C 
ENDBRANCH  23  26
ENDBRANCH  16  21
ENDBRANCH   1  16
TORSDOF 6
