REMARK  Name = ZINC62239991
REMARK  7 active torsions:
REMARK  status: ('A' for Active; 'I' for Inactive)
REMARK    1  A    between atoms: C_1  and  C_2
REMARK    2  A    between atoms: C_5  and  O_8
REMARK    3  A    between atoms: O_8  and  C_9
REMARK    4  A    between atoms: C_9  and  C_10
REMARK    5  A    between atoms: C_11  and  C_22
REMARK    6  A    between atoms: N_14  and  C_15
REMARK    7  A    between atoms: C_22  and  N_23
REMARK                            x       y       z     vdW  Elec       q    Type
REMARK                         _______ _______ _______ _____ _____    ______ ____
ROOT
ATOM      1  C   UNL     1       0.090  -6.277   1.043  0.00  0.00    +0.103 A 
ATOM      2  C   UNL     1      -0.982  -7.097   0.932  0.00  0.00    +0.072 A 
ATOM      3  N   UNL     1      -0.499  -8.333   0.760  0.00  0.00    -0.136 NA
ATOM      4  N   UNL     1       0.786  -8.287   0.764  0.00  0.00    -0.060 NA
ATOM      5  N   UNL     1       1.187  -7.074   0.926  0.00  0.00    -0.213 N 
ENDROOT
BRANCH   5   6
ATOM      6  C   UNL     1       2.523  -6.649   0.975  0.00  0.00    +0.070 A 
ATOM      7  C   UNL     1       2.878  -5.413   0.451  0.00  0.00    +0.028 A 
ATOM      8  C   UNL     1       4.194  -4.995   0.500  0.00  0.00    +0.005 A 
ATOM      9  C   UNL     1       5.158  -5.806   1.070  0.00  0.00    +0.038 A 
ATOM     10  C   UNL     1       4.807  -7.040   1.593  0.00  0.00    +0.125 A 
ATOM     11  C   UNL     1       3.490  -7.460   1.551  0.00  0.00    +0.066 A 
ATOM     12  F   UNL     1       5.751  -7.831   2.149  0.00  0.00    -0.205 F 
ENDBRANCH   5   6
BRANCH   1  13
ATOM     13  C   UNL     1       0.072  -4.785   1.249  0.00  0.00    +0.286 C 
BRANCH  13  14
ATOM     14  O   UNL     1       0.057  -4.129  -0.021  0.00  0.00    -0.486 OA
BRANCH  14  19
ATOM     15  C   UNL     1      -0.018   1.503   0.010  0.00  0.00    +0.044 C 
ATOM     16  C   UNL     1       0.002  -0.004   0.002  0.00  0.00    -0.050 A 
ATOM     17  C   UNL     1       0.006  -0.688  -1.200  0.00  0.00    +0.007 A 
ATOM     18  C   UNL     1       0.024  -2.069  -1.210  0.00  0.00    +0.046 A 
ATOM     19  C   UNL     1       0.039  -2.770  -0.013  0.00  0.00    +0.121 A 
ATOM     20  C   UNL     1       0.036  -2.082   1.191  0.00  0.00    +0.046 A 
ATOM     21  C   UNL     1       0.023  -0.701   1.196  0.00  0.00    +0.007 A 
ENDBRANCH  14  19
ENDBRANCH  13  14
ENDBRANCH   1  13
BRANCH   2  22
ATOM     22  C   UNL     1      -2.433  -6.696   0.992  0.00  0.00    -0.026 C 
BRANCH  22  23
ATOM     23  N   UNL     1      -2.908  -6.376  -0.361  0.00  0.00    +0.382 N 
ATOM     24  H   UNL     1      -2.364  -5.614  -0.737  0.00  0.00    -0.090 HD
ATOM     25  H   UNL     1      -2.807  -7.186  -0.954  0.00  0.00    -0.090 HD
ATOM     26  H   UNL     1      -3.880  -6.107  -0.321  0.00  0.00    -0.090 HD
ENDBRANCH  22  23
ENDBRANCH   2  22
TORSDOF 6
