REMARK  Name = ZINC36273630
REMARK  4 active torsions:
REMARK  status: ('A' for Active; 'I' for Inactive)
REMARK    1  A    between atoms: C_6  and  C_7
REMARK    2  A    between atoms: C_8  and  C_17
REMARK    3  A    between atoms: C_11  and  N_16
REMARK    4  A    between atoms: C_17  and  N_18
REMARK                            x       y       z     vdW  Elec       q    Type
REMARK                         _______ _______ _______ _____ _____    ______ ____
ROOT
ATOM      1  C   UNL     1      -1.372  -0.644  -0.160  0.00  0.00    +0.091 A 
ATOM      2  C   UNL     1      -2.386  -0.447   0.728  0.00  0.00    +0.035 A 
ATOM      3  N   UNL     1      -3.228  -1.519   0.621  0.00  0.00    -0.303 N 
ATOM      4  C   UNL     1      -4.391  -1.843   1.263  0.00  0.00    +0.115 A 
ATOM      5  C   UNL     1      -5.045  -2.992   0.964  0.00  0.00    +0.041 A 
ATOM      6  C   UNL     1      -4.530  -3.866  -0.015  0.00  0.00    +0.028 A 
ATOM      7  C   UNL     1      -3.374  -3.550  -0.657  0.00  0.00    +0.048 A 
ATOM      8  C   UNL     1      -2.706  -2.351  -0.334  0.00  0.00    +0.138 A 
ATOM      9  N   UNL     1      -1.590  -1.805  -0.797  0.00  0.00    -0.228 NA
ENDROOT
BRANCH   1  15
ATOM     10  C   UNL     1       1.062  -0.246  -0.523  0.00  0.00    +0.014 A 
ATOM     11  C   UNL     1       2.131   0.603  -0.734  0.00  0.00    +0.048 A 
ATOM     12  C   UNL     1       1.925   1.970  -0.811  0.00  0.00    +0.142 A 
ATOM     13  C   UNL     1       0.638   2.493  -0.675  0.00  0.00    +0.076 A 
ATOM     14  C   UNL     1      -0.435   1.646  -0.464  0.00  0.00    +0.037 A 
ATOM     15  C   UNL     1      -0.225   0.270  -0.387  0.00  0.00    +0.004 A 
ATOM     16  N   UNL     1       0.449   3.880  -0.753  0.00  0.00    -0.280 N 
ATOM     17  C   UNL     1       1.436   4.647  -1.266  0.00  0.00    +0.255 C 
ATOM     18  O   UNL     1       1.307   5.852  -1.317  0.00  0.00    -0.272 OA
ATOM     19  C   UNL     1       2.699   3.999  -1.775  0.00  0.00    +0.325 C 
ATOM     20  O   UNL     1       2.970   2.816  -1.019  0.00  0.00    -0.481 OA
ATOM     21  H   UNL     1      -0.377   4.283  -0.444  0.00  0.00    +0.155 HD
ENDBRANCH   1  15
BRANCH   5  22
ATOM     22  N   UNL     1      -6.236  -3.313   1.630  0.00  0.00    -0.357 N 
ATOM     23  H   UNL     1      -6.591  -2.713   2.304  0.00  0.00    +0.142 HD
ATOM     24  H   UNL     1      -6.704  -4.135   1.417  0.00  0.00    +0.142 HD
ENDBRANCH   5  22
BRANCH   2  25
ATOM     25  C   UNL     1      -2.550   0.730   1.655  0.00  0.00    -0.022 C 
BRANCH  25  26
ATOM     26  N   UNL     1      -2.028   0.384   2.983  0.00  0.00    +0.383 N 
ATOM     27  C   UNL     1      -0.582   0.148   2.893  0.00  0.00    -0.078 C 
ATOM     28  C   UNL     1      -0.048  -0.292   4.258  0.00  0.00    -0.019 C 
ATOM     29  C   UNL     1      -0.324   0.808   5.287  0.00  0.00    -0.004 C 
ATOM     30  C   UNL     1      -1.827   1.099   5.319  0.00  0.00    -0.019 C 
ATOM     31  C   UNL     1      -2.296   1.487   3.915  0.00  0.00    -0.078 C 
ATOM     32  H   UNL     1      -2.484  -0.453   3.315  0.00  0.00    -0.081 HD
ENDBRANCH  25  26
ENDBRANCH   2  25
TORSDOF 4
