REMARK  Name = ZINC12876842
REMARK  8 active torsions:
REMARK  status: ('A' for Active; 'I' for Inactive)
REMARK    1  A    between atoms: C_1  and  C_2
REMARK    2  A    between atoms: C_2  and  C_3
REMARK    3  A    between atoms: C_2  and  C_4
REMARK    4  A    between atoms: C_4  and  N_5
REMARK    5  A    between atoms: C_9  and  C_11
REMARK    6  A    between atoms: C_11  and  N_49
REMARK    7  A    between atoms: C_12  and  N_49
REMARK    8  A    between atoms: C_13  and  N_49
REMARK                            x       y       z     vdW  Elec       q    Type
REMARK                         _______ _______ _______ _____ _____    ______ ____
ROOT
ATOM      1  N   UNL     1       6.001   6.703   2.696  0.00  0.00    -0.299 N 
ATOM      2  C   UNL     1       4.737   6.255   2.565  0.00  0.00    +0.306 C 
ATOM      3  O   UNL     1       3.831   6.813   3.153  0.00  0.00    -0.252 OA
ATOM      4  N   UNL     1       4.477   5.189   1.782  0.00  0.00    -0.242 N 
ATOM      5  C   UNL     1       3.212   4.742   1.651  0.00  0.00    +0.204 C 
ATOM      6  O   UNL     1       2.309   5.298   2.238  0.00  0.00    -0.277 OA
ATOM      7  H   UNL     1       6.724   6.258   2.226  0.00  0.00    +0.150 HD
ATOM      8  H   UNL     1       5.200   4.744   1.313  0.00  0.00    +0.159 HD
ENDROOT
BRANCH   1   9
ATOM      9  C   UNL     1       6.284   7.862   3.546  0.00  0.00    +0.108 C 
BRANCH   9  11
ATOM     10  C   UNL     1       8.196   8.583   2.109  0.00  0.00    +0.009 C 
ATOM     11  C   UNL     1       7.785   8.159   3.520  0.00  0.00    -0.000 C 
ATOM     12  C   UNL     1       8.097   9.289   4.504  0.00  0.00    +0.009 C 
ENDBRANCH   9  11
ENDBRANCH   1   9
BRANCH   5  13
ATOM     13  C   UNL     1       2.922   3.550   0.776  0.00  0.00    +0.019 C 
BRANCH  13  15
ATOM     14  C   UNL     1       0.717   4.351   0.175  0.00  0.00    -0.095 C 
ATOM     15  N   UNL     1       1.473   3.262   0.829  0.00  0.00    +0.385 N 
ATOM     16  H   UNL     1       1.181   3.196   1.811  0.00  0.00    -0.081 HD
BRANCH  15  17
ATOM     17  C   UNL     1       1.188   1.977   0.157  0.00  0.00    -0.068 C 
ATOM     18  C   UNL     1       1.857   1.944  -1.191  0.00  0.00    -0.015 C 
ATOM     19  C   UNL     1       0.955   1.162  -2.167  0.00  0.00    -0.002 C 
ATOM     20  C   UNL     1       1.089  -0.279  -2.014  0.00  0.00    -0.000 C 
ATOM     21  C   UNL     1       0.669  -0.763  -0.611  0.00  0.00    -0.000 C 
ATOM     22  C   UNL     1       1.804  -0.508   0.343  0.00  0.00    -0.002 C 
ATOM     23  C   UNL     1       1.664   0.838   1.079  0.00  0.00    -0.015 C 
ENDBRANCH  15  17
ENDBRANCH  13  15
ENDBRANCH   5  13
TORSDOF 5
