REMARK  Name = ZINC50868783
REMARK  6 active torsions:
REMARK  status: ('A' for Active; 'I' for Inactive)
REMARK    1  A    between atoms: C_1  and  C_2
REMARK    2  A    between atoms: C_2  and  C_3
REMARK    3  A    between atoms: C_5  and  N_19
REMARK    4  A    between atoms: C_8  and  O_13
REMARK    5  A    between atoms: O_13  and  C_14
REMARK    6  A    between atoms: C_14  and  C_15
REMARK                            x       y       z     vdW  Elec       q    Type
REMARK                         _______ _______ _______ _____ _____    ______ ____
ROOT
ATOM      1  C   UNL     1      -1.412  -0.526   0.013  0.00  0.00    +0.018 A 
ATOM      2  C   UNL     1      -2.072  -0.661   1.227  0.00  0.00    +0.044 A 
ATOM      3  C   UNL     1      -3.372  -1.139   1.252  0.00  0.00    +0.036 A 
ATOM      4  C   UNL     1      -3.979  -1.473   0.017  0.00  0.00    +0.022 A 
ATOM      5  C   UNL     1      -5.291  -1.962  -0.041  0.00  0.00    +0.057 A 
ATOM      6  C   UNL     1      -5.842  -2.273  -1.253  0.00  0.00    +0.122 A 
ATOM      7  C   UNL     1      -5.111  -2.109  -2.432  0.00  0.00    +0.048 A 
ATOM      8  C   UNL     1      -3.836  -1.636  -2.406  0.00  0.00    +0.030 A 
ATOM      9  C   UNL     1      -3.238  -1.306  -1.177  0.00  0.00    +0.049 A 
ATOM     10  N   UNL     1      -1.986  -0.834  -1.126  0.00  0.00    -0.358 N 
ATOM     11  H   UNL     1      -1.490  -0.720  -1.952  0.00  0.00    +0.166 HD
ENDROOT
BRANCH   3  12
ATOM     12  N   UNL     1      -4.058  -1.286   2.449  0.00  0.00    -0.357 N 
ATOM     13  H   UNL     1      -3.627  -1.053   3.286  0.00  0.00    +0.142 HD
ATOM     14  H   UNL     1      -4.968  -1.622   2.448  0.00  0.00    +0.142 HD
ENDBRANCH   3  12
BRANCH   1  16
ATOM     15  C   UNL     1      -0.019   1.526   0.010  0.00  0.00    +0.010 C 
ATOM     16  C   UNL     1       0.002  -0.004   0.002  0.00  0.00    +0.050 C 
ENDBRANCH   1  16
BRANCH   6  17
ATOM     17  O   UNL     1      -7.114  -2.748  -1.310  0.00  0.00    -0.483 OA
BRANCH  17  18
ATOM     18  C   UNL     1      -7.634  -3.055  -2.606  0.00  0.00    +0.342 C 
BRANCH  18  19
ATOM     19  C   UNL     1      -9.068  -3.572  -2.470  0.00  0.00    +0.424 C 
ATOM     20  F   UNL     1      -9.863  -2.591  -1.869  0.00  0.00    -0.167 F 
ATOM     21  F   UNL     1      -9.577  -3.873  -3.738  0.00  0.00    -0.167 F 
ATOM     22  F   UNL     1      -9.075  -4.726  -1.680  0.00  0.00    -0.167 F 
ENDBRANCH  18  19
ENDBRANCH  17  18
ENDBRANCH   6  17
TORSDOF 5
