REMARK  Name = ZINC61195975
REMARK  3 active torsions:
REMARK  status: ('A' for Active; 'I' for Inactive)
REMARK    1  A    between atoms: C_8  and  C_11
REMARK    2  A    between atoms: N_13  and  N_14
REMARK    3  A    between atoms: N_14  and  C_15
REMARK                            x       y       z     vdW  Elec       q    Type
REMARK                         _______ _______ _______ _____ _____    ______ ____
ROOT
ATOM      1  C   UNL     1       2.611  -4.179   0.287  0.00  0.00    +0.259 C 
ATOM      2  O   UNL     1       1.656  -4.875  -0.008  0.00  0.00    -0.269 OA
ATOM      3  N   UNL     1       3.789  -4.752   0.603  0.00  0.00    -0.233 N 
ATOM      4  H   UNL     1       4.550  -4.198   0.838  0.00  0.00    +0.173 HD
ENDROOT
BRANCH   1  12
ATOM      5  C   UNL     1      -0.017   1.375   0.010  0.00  0.00    +0.001 A 
ATOM      6  C   UNL     1       1.169   2.092   0.002  0.00  0.00    +0.004 A 
ATOM      7  C   UNL     1       2.387   1.438  -0.014  0.00  0.00    +0.046 A 
ATOM      8  C   UNL     1       2.426   0.055  -0.022  0.00  0.00    +0.128 A 
ATOM      9  C   UNL     1       1.225  -0.674  -0.013  0.00  0.00    +0.017 A 
ATOM     10  C   UNL     1       0.002  -0.004   0.002  0.00  0.00    +0.011 A 
ATOM     11  C   UNL     1       1.296  -2.144  -0.021  0.00  0.00    +0.023 C 
ATOM     12  C   UNL     1       2.480  -2.723   0.297  0.00  0.00    +0.053 C 
ATOM     13  C   UNL     1       3.659  -1.860   0.662  0.00  0.00    +0.269 C 
ATOM     14  O   UNL     1       3.604  -0.617  -0.038  0.00  0.00    -0.487 OA
ENDBRANCH   1  12
BRANCH   3  15
ATOM     15  N   UNL     1       3.915  -6.147   0.593  0.00  0.00    -0.264 N 
ATOM     16  H   UNL     1       3.154  -6.701   0.358  0.00  0.00    +0.170 HD
BRANCH  15  17
ATOM     17  C   UNL     1       5.136  -6.741   0.921  0.00  0.00    +0.046 A 
ATOM     18  C   UNL     1       6.226  -5.949   1.263  0.00  0.00    +0.024 A 
ATOM     19  C   UNL     1       7.431  -6.538   1.587  0.00  0.00    +0.003 A 
ATOM     20  C   UNL     1       7.557  -7.915   1.572  0.00  0.00    +0.020 A 
ATOM     21  C   UNL     1       6.474  -8.707   1.232  0.00  0.00    +0.043 A 
ATOM     22  C   UNL     1       5.263  -8.124   0.911  0.00  0.00    +0.044 A 
ATOM     23 CL   UNL     1       6.636 -10.436   1.213  0.00  0.00    -0.083 Cl
ENDBRANCH  15  17
ENDBRANCH   3  15
TORSDOF 3
