REMARK  Name = ZINC33507349
REMARK  7 active torsions:
REMARK  status: ('A' for Active; 'I' for Inactive)
REMARK    1  A    between atoms: C_1  and  C_2
REMARK    2  A    between atoms: C_9  and  C_16
REMARK    3  A    between atoms: C_10  and  C_11
REMARK    4  A    between atoms: C_11  and  C_13
REMARK    5  A    between atoms: C_11  and  C_14
REMARK    6  A    between atoms: C_14  and  N_15
REMARK    7  A    between atoms: C_19  and  N_22
REMARK                            x       y       z     vdW  Elec       q    Type
REMARK                         _______ _______ _______ _____ _____    ______ ____
ROOT
ATOM      1  C   UNL     1       1.125   3.819  -6.149  0.00  0.00    +0.044 C 
ATOM      2  C   UNL     1       0.675   3.361  -4.785  0.00  0.00    -0.046 A 
ATOM      3  C   UNL     1       1.518   3.521  -3.673  0.00  0.00    +0.021 A 
ATOM      4  C   UNL     1       1.119   3.112  -2.451  0.00  0.00    +0.093 A 
ATOM      5  N   UNL     1      -0.108   2.538  -2.276  0.00  0.00    -0.303 N 
ATOM      6  C   UNL     1      -0.954   2.369  -3.343  0.00  0.00    +0.139 A 
ATOM      7  C   UNL     1      -0.549   2.791  -4.626  0.00  0.00    +0.050 A 
ATOM      8  N   UNL     1      -2.065   1.795  -2.905  0.00  0.00    -0.228 NA
ATOM      9  C   UNL     1      -1.959   1.583  -1.584  0.00  0.00    +0.093 A 
ATOM     10  C   UNL     1      -0.746   2.046  -1.172  0.00  0.00    +0.052 A 
ENDROOT
BRANCH   9  11
ATOM     11  C   UNL     1      -2.989   0.955  -0.720  0.00  0.00    +0.002 A 
ATOM     12  C   UNL     1      -2.617   0.020   0.245  0.00  0.00    +0.012 A 
ATOM     13  C   UNL     1      -3.579  -0.557   1.049  0.00  0.00    +0.033 A 
ATOM     14  C   UNL     1      -4.910  -0.217   0.893  0.00  0.00    +0.126 A 
ATOM     15  C   UNL     1      -5.285   0.707  -0.066  0.00  0.00    +0.033 A 
ATOM     16  C   UNL     1      -4.332   1.294  -0.873  0.00  0.00    +0.012 A 
BRANCH  14  17
ATOM     17  N   UNL     1      -5.937  -0.843   1.756  0.00  0.00    +0.056 N 
ATOM     18  O   UNL     1      -7.111  -0.545   1.620  0.00  0.00    -0.126 OA
ATOM     19  O   UNL     1      -5.609  -1.656   2.601  0.00  0.00    -0.126 OA
ENDBRANCH  14  17
ENDBRANCH   9  11
BRANCH  10  20
ATOM     20  C   UNL     1      -0.206   2.015   0.234  0.00  0.00    +0.018 C 
ATOM     21  C   UNL     1       1.058   1.153   0.277  0.00  0.00    +0.012 C 
BRANCH  20  22
ATOM     22  C   UNL     1       0.132   3.438   0.682  0.00  0.00    -0.077 C 
BRANCH  22  23
ATOM     23  N   UNL     1       0.537   3.424   2.094  0.00  0.00    +0.379 N 
ATOM     24  H   UNL     1       0.780   4.448   2.416  0.00  0.00    -0.090 HD
ATOM     25  H   UNL     1       1.422   2.782   2.215  0.00  0.00    -0.090 HD
ATOM     26  H   UNL     1      -0.287   3.033   2.708  0.00  0.00    -0.090 HD
ENDBRANCH  22  23
ENDBRANCH  20  22
ENDBRANCH  10  20
TORSDOF 5
