REMARK  Name = ZINC47963708
REMARK  9 active torsions:
REMARK  status: ('A' for Active; 'I' for Inactive)
REMARK    1  A    between atoms: C_1  and  N_2
REMARK    2  A    between atoms: N_2  and  C_3
REMARK    3  A    between atoms: N_2  and  C_4
REMARK    4  A    between atoms: C_4  and  C_6
REMARK    5  A    between atoms: C_4  and  C_21
REMARK    6  A    between atoms: C_6  and  N_7
REMARK    7  A    between atoms: C_8  and  C_10
REMARK    8  A    between atoms: N_12  and  C_13
REMARK    9  A    between atoms: C_14  and  C_18
REMARK                            x       y       z     vdW  Elec       q    Type
REMARK                         _______ _______ _______ _____ _____    ______ ____
ROOT
ATOM      1  N   UNL     1      -0.914  -2.531   0.563  0.00  0.00    -0.309 N 
ATOM      2  C   UNL     1      -0.976  -3.877   0.530  0.00  0.00    +0.299 C 
ATOM      3  O   UNL     1      -1.633  -4.434  -0.325  0.00  0.00    -0.265 OA
ATOM      4  H   UNL     1      -0.389  -2.087   1.247  0.00  0.00    +0.149 HD
ENDROOT
BRANCH   2   5
ATOM      5  C   UNL     1      -0.236  -4.684   1.545  0.00  0.00    +0.304 C 
ATOM      6  O   UNL     1       0.421  -4.128   2.401  0.00  0.00    -0.265 OA
ATOM      7  N   UNL     1      -0.298  -6.030   1.512  0.00  0.00    -0.272 N 
ATOM      8  H   UNL     1      -0.823  -6.474   0.828  0.00  0.00    +0.156 HD
BRANCH   7   9
ATOM      9  C   UNL     1       0.388  -6.778   2.453  0.00  0.00    +0.084 A 
ATOM     10  C   UNL     1       0.444  -8.160   2.569  0.00  0.00    +0.065 A 
ATOM     11  C   UNL     1       1.241  -8.685   3.653  0.00  0.00    +0.022 A 
ATOM     12  C   UNL     1       1.845  -7.770   4.435  0.00  0.00    +0.048 A 
ATOM     13  S   UNL     1       1.348  -6.222   3.712  0.00  0.00    -0.081 S 
BRANCH  10  14
ATOM     14  C   UNL     1      -0.270  -9.041   1.639  0.00  0.00    +0.244 C 
ATOM     15  O   UNL     1      -0.933  -8.565   0.737  0.00  0.00    -0.270 OA
ATOM     16  N   UNL     1      -0.191 -10.379   1.784  0.00  0.00    -0.325 N 
ATOM     17  H   UNL     1       0.337 -10.759   2.503  0.00  0.00    +0.145 HD
ATOM     18  H   UNL     1      -0.663 -10.962   1.169  0.00  0.00    +0.145 HD
ENDBRANCH  10  14
ENDBRANCH   7   9
ENDBRANCH   2   5
BRANCH   1  19
ATOM     19  C   UNL     1      -1.640  -1.740  -0.433  0.00  0.00    +0.097 C 
BRANCH  19  20
ATOM     20  C   UNL     1      -1.509  -0.253  -0.097  0.00  0.00    +0.016 C 
BRANCH  20  21
ATOM     21  C   UNL     1      -0.070   0.169  -0.239  0.00  0.00    +0.093 A 
ATOM     22  C   UNL     1       0.460   0.819  -1.291  0.00  0.00    +0.043 A 
ATOM     23  C   UNL     1       1.831   1.013  -1.006  0.00  0.00    +0.041 A 
ATOM     24  C   UNL     1       2.058   0.470   0.204  0.00  0.00    +0.195 A 
ATOM     25  O   UNL     1       0.902  -0.035   0.666  0.00  0.00    -0.469 OA
ENDBRANCH  20  21
BRANCH  20  27
ATOM     26  C   UNL     1      -1.819   1.404   1.610  0.00  0.00    -0.096 C 
ATOM     27  N   UNL     1      -1.953  -0.022   1.284  0.00  0.00    +0.384 N 
ATOM     28  C   UNL     1      -3.359  -0.425   1.421  0.00  0.00    -0.096 C 
ATOM     29  H   UNL     1      -1.385  -0.566   1.916  0.00  0.00    -0.082 HD
ENDBRANCH  20  27
ENDBRANCH  19  20
ENDBRANCH   1  19
TORSDOF 7
