REMARK  Name = ZINC36666290
REMARK  6 active torsions:
REMARK  status: ('A' for Active; 'I' for Inactive)
REMARK    1  A    between atoms: C_1  and  C_2
REMARK    2  A    between atoms: C_4  and  N_7
REMARK    3  A    between atoms: C_8  and  C_10
REMARK    4  A    between atoms: C_10  and  S_11
REMARK    5  A    between atoms: S_11  and  C_12
REMARK    6  A    between atoms: C_13  and  C_20
REMARK                            x       y       z     vdW  Elec       q    Type
REMARK                         _______ _______ _______ _____ _____    ______ ____
ROOT
ATOM      1  C   UNL     1       0.071  -5.679  -1.905  0.00  0.00    +0.172 C 
ENDROOT
BRANCH   1   3
ATOM      2  N   UNL     1       0.039  -3.231  -1.552  0.00  0.00    -0.254 N 
ATOM      3  C   UNL     1       0.059  -4.466  -1.011  0.00  0.00    +0.230 C 
ATOM      4  O   UNL     1       0.068  -4.600   0.194  0.00  0.00    -0.274 OA
ATOM      5  H   UNL     1       0.033  -3.124  -2.516  0.00  0.00    +0.158 HD
BRANCH   2   9
ATOM      6  C   UNL     1      -0.018   1.503   0.010  0.00  0.00    +0.069 C 
ATOM      7  C   UNL     1       0.002  -0.004   0.002  0.00  0.00    +0.082 A 
ATOM      8  C   UNL     1       0.008  -0.820  -1.138  0.00  0.00    +0.092 A 
ATOM      9  C   UNL     1       0.028  -2.114  -0.729  0.00  0.00    +0.224 A 
ATOM     10  O   UNL     1       0.035  -2.120   0.615  0.00  0.00    -0.339 OA
ATOM     11  N   UNL     1       0.023  -0.774   1.055  0.00  0.00    -0.081 NA
ENDBRANCH   2   9
ENDBRANCH   1   3
BRANCH   1  12
ATOM     12  S   UNL     1       0.098  -7.180  -0.886  0.00  0.00    -0.096 S 
BRANCH  12  13
ATOM     13  C   UNL     1       0.110  -8.493  -2.062  0.00  0.00    +0.107 A 
ATOM     14  C   UNL     1       0.125  -9.835  -1.626  0.00  0.00    -0.002 A 
ATOM     15  C   UNL     1       0.134 -10.823  -2.551  0.00  0.00    +0.093 A 
ATOM     16  N   UNL     1       0.128 -10.499  -3.875  0.00  0.00    -0.313 N 
ATOM     17  H   UNL     1       0.134 -11.201  -4.544  0.00  0.00    +0.170 HD
ATOM     18  C   UNL     1       0.113  -9.209  -4.259  0.00  0.00    +0.347 A 
ATOM     19  O   UNL     1       0.107  -8.937  -5.448  0.00  0.00    -0.245 OA
ATOM     20  N   UNL     1       0.099  -8.225  -3.362  0.00  0.00    -0.186 NA
ATOM     21  C   UNL     1       0.132 -10.162  -0.155  0.00  0.00    +0.048 C 
ENDBRANCH  12  13
ENDBRANCH   1  12
TORSDOF 4
