REMARK  Name = ZINC48971417
REMARK  10 active torsions:
REMARK  status: ('A' for Active; 'I' for Inactive)
REMARK    1  A    between atoms: C_1  and  N_2
REMARK    2  A    between atoms: N_2  and  C_3
REMARK    3  A    between atoms: N_2  and  C_10
REMARK    4  A    between atoms: C_3  and  C_4
REMARK    5  A    between atoms: C_10  and  C_11
REMARK    6  A    between atoms: C_11  and  C_13
REMARK    7  A    between atoms: C_11  and  O_22
REMARK    8  A    between atoms: C_13  and  O_14
REMARK    9  A    between atoms: O_14  and  C_15
REMARK   10  A    between atoms: C_20  and  N_21
REMARK                            x       y       z     vdW  Elec       q    Type
REMARK                         _______ _______ _______ _____ _____    ______ ____
ROOT
ATOM      1  C   UNL     1       2.126   0.157   1.211  0.00  0.00    +0.135 C 
ENDROOT
BRANCH   1   2
ATOM      2  O   UNL     1       2.102   1.580   1.332  0.00  0.00    -0.390 OA
ATOM      3  H   UNL     1       1.694   1.899   2.149  0.00  0.00    +0.210 HD
ENDBRANCH   1   2
BRANCH   1   4
ATOM      4  C   UNL     1       0.694  -0.382   1.242  0.00  0.00    -0.044 C 
BRANCH   4   6
ATOM      5  C   UNL     1      -1.448  -0.291   0.165  0.00  0.00    -0.096 C 
ATOM      6  N   UNL     1      -0.035   0.098   0.060  0.00  0.00    +0.383 N 
ATOM      7  H   UNL     1       0.034   1.103   0.007  0.00  0.00    -0.082 HD
BRANCH   6   8
ATOM      8  C   UNL     1       0.548  -0.497  -1.150  0.00  0.00    -0.036 C 
BRANCH   8   9
ATOM      9  C   UNL     1      -0.118   0.088  -2.369  0.00  0.00    -0.025 A 
ATOM     10  C   UNL     1       0.231   1.181  -3.090  0.00  0.00    +0.011 A 
ATOM     11  C   UNL     1      -0.536   1.536  -4.184  0.00  0.00    +0.028 A 
ATOM     12  C   UNL     1      -1.616   0.779  -4.502  0.00  0.00    +0.078 A 
ATOM     13  S   UNL     1      -1.567  -0.483  -3.241  0.00  0.00    -0.084 S 
ATOM     14 CL   UNL     1      -2.748   0.982  -5.803  0.00  0.00    -0.076 Cl
ENDBRANCH   8   9
ENDBRANCH   6   8
ENDBRANCH   4   6
ENDBRANCH   1   4
BRANCH   1  15
ATOM     15  C   UNL     1       2.920  -0.441   2.374  0.00  0.00    +0.258 C 
BRANCH  15  16
ATOM     16  O   UNL     1       4.285  -0.030   2.279  0.00  0.00    -0.488 OA
BRANCH  16  17
ATOM     17  C   UNL     1       5.133  -0.478   3.244  0.00  0.00    +0.141 A 
ATOM     18  C   UNL     1       4.663  -1.298   4.256  0.00  0.00    +0.047 A 
ATOM     19  C   UNL     1       5.526  -1.752   5.236  0.00  0.00    +0.004 A 
ATOM     20  C   UNL     1       6.860  -1.389   5.210  0.00  0.00    +0.002 A 
ATOM     21  C   UNL     1       7.338  -0.571   4.203  0.00  0.00    +0.026 A 
ATOM     22  C   UNL     1       6.479  -0.117   3.213  0.00  0.00    +0.067 A 
BRANCH  22  23
ATOM     23  N   UNL     1       6.961   0.707   2.190  0.00  0.00    -0.355 N 
ATOM     24  H   UNL     1       6.359   1.027   1.500  0.00  0.00    +0.142 HD
ATOM     25  H   UNL     1       7.898   0.958   2.170  0.00  0.00    +0.142 HD
ENDBRANCH  22  23
ENDBRANCH  16  17
ENDBRANCH  15  16
ENDBRANCH   1  15
TORSDOF 9
