REMARK  Name = ZINC63197331
REMARK  4 active torsions:
REMARK  status: ('A' for Active; 'I' for Inactive)
REMARK    1  A    between atoms: C_1  and  C_2
REMARK    2  A    between atoms: C_2  and  C_4
REMARK    3  A    between atoms: C_2  and  N_9
REMARK    4  A    between atoms: C_12  and  C_15
REMARK                            x       y       z     vdW  Elec       q    Type
REMARK                         _______ _______ _______ _____ _____    ______ ____
ROOT
ATOM      1  N   UNL     1      -1.358  -0.573   0.068  0.00  0.00    +0.382 N 
ATOM      2  C   UNL     1      -2.156  -0.086  -1.064  0.00  0.00    -0.078 C 
ATOM      3  C   UNL     1      -3.585  -0.625  -0.954  0.00  0.00    -0.017 C 
ATOM      4  C   UNL     1      -3.550  -2.156  -0.973  0.00  0.00    -0.029 C 
ATOM      5  C   UNL     1      -2.654  -2.651   0.166  0.00  0.00    -0.017 C 
ATOM      6  C   UNL     1      -1.260  -2.037   0.015  0.00  0.00    -0.078 C 
ATOM      7  H   UNL     1      -1.800  -0.297   0.932  0.00  0.00    -0.081 HD
ENDROOT
BRANCH   4   8
ATOM      8  C   UNL     1      -4.966  -2.702  -0.784  0.00  0.00    -0.069 C 
ATOM      9  C   UNL     1      -4.933  -4.245  -0.742  0.00  0.00    -0.017 C 
ATOM     10  C   UNL     1      -6.215  -4.644  -1.518  0.00  0.00    -0.021 C 
ATOM     11  C   UNL     1      -6.277  -3.544  -2.607  0.00  0.00    -0.082 C 
ATOM     12  N   UNL     1      -5.811  -2.312  -1.928  0.00  0.00    +0.381 N 
ATOM     13  H   UNL     1      -6.604  -1.782  -1.599  0.00  0.00    -0.086 HD
ATOM     14  H   UNL     1      -5.273  -1.751  -2.572  0.00  0.00    -0.086 HD
ENDBRANCH   4   8
BRANCH   1  16
ATOM     15  C   UNL     1      -0.111   1.534   0.055  0.00  0.00    -0.013 C 
ATOM     16  C   UNL     1      -0.011   0.009   0.001  0.00  0.00    -0.069 C 
BRANCH  16  17
ATOM     17  C   UNL     1       0.820  -0.491   1.185  0.00  0.00    -0.025 C 
ATOM     18  C   UNL     1       0.178  -0.033   2.511  0.00  0.00    +0.002 C 
ATOM     19  C   UNL     1       1.385   0.294   3.424  0.00  0.00    +0.000 C 
ATOM     20  C   UNL     1       2.392   0.943   2.441  0.00  0.00    +0.000 C 
ATOM     21  C   UNL     1       2.227   0.130   1.140  0.00  0.00    +0.002 C 
ENDBRANCH  16  17
ENDBRANCH   1  16
TORSDOF 3
