REMARK  Name = ZINC05817927
REMARK  4 active torsions:
REMARK  status: ('A' for Active; 'I' for Inactive)
REMARK    1  A    between atoms: C_1  and  O_2
REMARK    2  A    between atoms: O_2  and  C_3
REMARK    3  A    between atoms: C_6  and  C_9
REMARK    4  A    between atoms: C_11  and  C_20
REMARK                            x       y       z     vdW  Elec       q    Type
REMARK                         _______ _______ _______ _____ _____    ______ ____
ROOT
ATOM      1  C   UNL     1       2.494  -2.493  -4.364  0.00  0.00    -0.002 A 
ATOM      2  C   UNL     1       2.187  -2.125  -5.671  0.00  0.00    +0.037 A 
ATOM      3  C   UNL     1       2.829  -2.769  -6.729  0.00  0.00    +0.074 A 
ATOM      4  N   UNL     1       3.723  -3.723  -6.518  0.00  0.00    -0.228 NA
ATOM      5  C   UNL     1       4.054  -4.113  -5.293  0.00  0.00    +0.159 A 
ATOM      6  C   UNL     1       3.454  -3.507  -4.172  0.00  0.00    +0.067 A 
ATOM      7  C   UNL     1       4.033  -4.149  -2.995  0.00  0.00    +0.148 A 
ATOM      8  N   UNL     1       4.894  -5.040  -3.414  0.00  0.00    -0.157 NA
ATOM      9  N   UNL     1       4.926  -5.052  -4.812  0.00  0.00    -0.258 N 
ATOM     10  H   UNL     1       5.486  -5.628  -5.355  0.00  0.00    +0.191 HD
ATOM     11  N   UNL     1       3.725  -3.862  -1.662  0.00  0.00    -0.341 N 
ATOM     12  H   UNL     1       3.069  -3.179  -1.453  0.00  0.00    +0.144 HD
ATOM     13  H   UNL     1       4.166  -4.346  -0.947  0.00  0.00    +0.144 HD
ENDROOT
BRANCH   1  17
ATOM     14  C   UNL     1       0.606  -0.607  -1.055  0.00  0.00    +0.120 A 
ATOM     15  C   UNL     1       1.172   0.164  -2.062  0.00  0.00    +0.046 A 
ATOM     16  C   UNL     1       1.786  -0.444  -3.136  0.00  0.00    +0.012 A 
ATOM     17  C   UNL     1       1.836  -1.836  -3.211  0.00  0.00    -0.017 A 
ATOM     18  C   UNL     1       1.266  -2.608  -2.199  0.00  0.00    +0.012 A 
ATOM     19  C   UNL     1       0.659  -1.993  -1.125  0.00  0.00    +0.046 A 
BRANCH  14  21
ATOM     20  C   UNL     1      -0.017   1.425   0.010  0.00  0.00    +0.277 C 
ATOM     21  O   UNL     1       0.002  -0.004   0.002  0.00  0.00    -0.495 OA
ENDBRANCH  14  21
ENDBRANCH   1  17
BRANCH   3  22
ATOM     22  C   UNL     1       2.502  -2.377  -8.121  0.00  0.00    +0.000 A 
ATOM     23  C   UNL     1       1.567  -1.372  -8.364  0.00  0.00    +0.010 A 
ATOM     24  C   UNL     1       1.268  -1.011  -9.662  0.00  0.00    +0.001 A 
ATOM     25  C   UNL     1       1.893  -1.645 -10.721  0.00  0.00    +0.000 A 
ATOM     26  C   UNL     1       2.821  -2.643 -10.486  0.00  0.00    +0.001 A 
ATOM     27  C   UNL     1       3.132  -3.009  -9.192  0.00  0.00    +0.010 A 
ENDBRANCH   3  22
TORSDOF 3
