REMARK  Name = ZINC04989608
REMARK  7 active torsions:
REMARK  status: ('A' for Active; 'I' for Inactive)
REMARK    1  A    between atoms: C_1  and  C_2
REMARK    2  A    between atoms: C_2  and  C_28
REMARK    3  A    between atoms: C_4  and  N_5
REMARK    4  A    between atoms: N_5  and  N_6
REMARK    5  A    between atoms: C_7  and  C_9
REMARK    6  A    between atoms: C_17  and  C_19
REMARK    7  A    between atoms: C_25  and  O_26
REMARK                            x       y       z     vdW  Elec       q    Type
REMARK                         _______ _______ _______ _____ _____    ______ ____
ROOT
ATOM      1  N   UNL     1       1.927  -1.377  -3.560  0.00  0.00    -0.232 N 
ATOM      2  C   UNL     1       2.550  -1.808  -4.675  0.00  0.00    +0.262 C 
ATOM      3  O   UNL     1       3.761  -1.909  -4.694  0.00  0.00    -0.269 OA
ATOM      4  H   UNL     1       0.960  -1.296  -3.545  0.00  0.00    +0.173 HD
ENDROOT
BRANCH   2   5
ATOM      5  C   UNL     1       1.762  -2.155  -5.873  0.00  0.00    +0.062 A 
ATOM      6  C   UNL     1       0.373  -2.034  -5.858  0.00  0.00    +0.015 A 
ATOM      7  C   UNL     1      -0.373  -2.358  -6.977  0.00  0.00    +0.001 A 
ATOM      8  C   UNL     1       0.244  -2.806  -8.126  0.00  0.00    +0.010 A 
ATOM      9  C   UNL     1       1.635  -2.935  -8.166  0.00  0.00    +0.001 A 
ATOM     10  C   UNL     1       2.406  -2.604  -7.036  0.00  0.00    +0.059 A 
ATOM     11  N   UNL     1       3.724  -2.818  -7.357  0.00  0.00    -0.353 N 
ATOM     12  H   UNL     1       4.474  -2.674  -6.758  0.00  0.00    +0.166 HD
ATOM     13  C   UNL     1       3.823  -3.270  -8.654  0.00  0.00    +0.054 A 
ATOM     14  C   UNL     1       2.579  -3.369  -9.195  0.00  0.00    +0.036 A 
BRANCH  13  15
ATOM     15  C   UNL     1       5.079  -3.606  -9.344  0.00  0.00    +0.035 A 
ATOM     16  C   UNL     1       5.268  -4.054 -10.627  0.00  0.00    +0.017 A 
ATOM     17  C   UNL     1       6.551  -4.304 -11.058  0.00  0.00    +0.008 A 
ATOM     18  C   UNL     1       7.588  -4.102 -10.203  0.00  0.00    +0.046 A 
ATOM     19  S   UNL     1       6.754  -3.529  -8.732  0.00  0.00    -0.095 S 
ENDBRANCH  13  15
ENDBRANCH   2   5
BRANCH   1  20
ATOM     20  N   UNL     1       2.675  -1.047  -2.423  0.00  0.00    -0.264 N 
ATOM     21  H   UNL     1       3.641  -1.128  -2.438  0.00  0.00    +0.170 HD
BRANCH  20  25
ATOM     22  C   UNL     1      -0.019   1.526   0.010  0.00  0.00    +0.016 C 
ATOM     23  C   UNL     1       0.002  -0.004   0.002  0.00  0.00    -0.008 C 
ATOM     24  C   UNL     1       0.696  -0.488  -1.244  0.00  0.00    +0.004 C 
ATOM     25  C   UNL     1       2.030  -0.601  -1.268  0.00  0.00    +0.044 C 
ATOM     26  C   UNL     1       2.813  -0.253  -0.070  0.00  0.00    +0.065 C 
ATOM     27  C   UNL     1       2.211  -0.204   1.122  0.00  0.00    +0.097 C 
ATOM     28  C   UNL     1       0.741  -0.508   1.240  0.00  0.00    +0.084 C 
ATOM     29  C   UNL     1      -1.434  -0.532   0.018  0.00  0.00    +0.016 C 
BRANCH  27  30
ATOM     30  O   UNL     1       2.925   0.119   2.226  0.00  0.00    -0.511 OA
ATOM     31  H   UNL     1       3.860   0.297   2.052  0.00  0.00    +0.292 HD
ENDBRANCH  27  30
ENDBRANCH  20  25
ENDBRANCH   1  20
TORSDOF 5
