REMARK  Name = ZINC44552071
REMARK  8 active torsions:
REMARK  status: ('A' for Active; 'I' for Inactive)
REMARK    1  A    between atoms: C_1  and  C_2
REMARK    2  A    between atoms: C_7  and  C_9
REMARK    3  A    between atoms: C_7  and  C_10
REMARK    4  A    between atoms: C_17  and  C_19
REMARK    5  A    between atoms: N_20  and  N_21
REMARK    6  A    between atoms: N_21  and  C_22
REMARK    7  A    between atoms: C_22  and  N_24
REMARK    8  A    between atoms: N_27  and  C_30
REMARK                            x       y       z     vdW  Elec       q    Type
REMARK                         _______ _______ _______ _____ _____    ______ ____
ROOT
ATOM      1  C   UNL     1       2.481  -2.975  -5.446  0.00  0.00    +0.134 C 
ATOM      2  N   UNL     1       2.853  -1.741  -5.633  0.00  0.00    -0.291 N 
ATOM      3  N   UNL     1       2.880  -3.967  -6.338  0.00  0.00    -0.342 N 
ATOM      4  H   UNL     1       2.603  -4.886  -6.198  0.00  0.00    +0.144 HD
ATOM      5  H   UNL     1       3.436  -3.738  -7.099  0.00  0.00    +0.144 HD
ATOM      6  H   UNL     1       3.518  -1.533  -6.308  0.00  0.00    +0.186 HD
ENDROOT
BRANCH   1  22
ATOM      7  C   UNL     1       2.052   0.803   1.011  0.00  0.00    +0.013 C 
ATOM      8  C   UNL     1       1.794  -0.697   0.796  0.00  0.00    -0.014 C 
ATOM      9  C   UNL     1       0.307  -1.079   1.027  0.00  0.00    +0.030 C 
ATOM     10  C   UNL     1       0.273  -2.441   0.288  0.00  0.00    +0.076 C 
ATOM     11  C   UNL     1       0.970  -3.460   1.187  0.00  0.00    +0.029 C 
ATOM     12  C   UNL     1       2.382  -3.066   1.580  0.00  0.00    -0.033 C 
ATOM     13  C   UNL     1       2.640  -1.577   1.715  0.00  0.00    +0.014 C 
ATOM     14  C   UNL     1       2.666  -3.706   2.963  0.00  0.00    +0.011 C 
ATOM     15  C   UNL     1       3.387  -3.689   0.601  0.00  0.00    +0.011 C 
ATOM     16  N   UNL     1       1.084  -2.233  -0.928  0.00  0.00    -0.310 N 
ATOM     17  C   UNL     1       2.019  -1.127  -0.671  0.00  0.00    +0.113 C 
ATOM     18  C   UNL     1       0.978  -2.950  -2.114  0.00  0.00    +0.141 A 
ATOM     19  C   UNL     1       0.069  -4.003  -2.213  0.00  0.00    +0.154 A 
ATOM     20  N   UNL     1      -0.034  -4.686  -3.338  0.00  0.00    -0.258 NA
ATOM     21  C   UNL     1       0.722  -4.375  -4.376  0.00  0.00    +0.142 A 
ATOM     22  C   UNL     1       1.633  -3.323  -4.285  0.00  0.00    +0.123 A 
ATOM     23  N   UNL     1       1.736  -2.630  -3.152  0.00  0.00    -0.226 NA
ENDBRANCH   1  22
BRANCH   2  24
ATOM     24  N   UNL     1       2.294  -0.715  -4.861  0.00  0.00    -0.240 N 
ATOM     25  H   UNL     1       1.577  -0.913  -4.238  0.00  0.00    +0.174 HD
BRANCH  24  26
ATOM     26  C   UNL     1       2.751   0.547  -4.983  0.00  0.00    +0.151 C 
ATOM     27  S   UNL     1       3.928   0.919  -6.170  0.00  0.00    -0.017 S 
BRANCH  26  28
ATOM     28  N   UNL     1       2.282   1.515  -4.172  0.00  0.00    -0.308 N 
ATOM     29  C   UNL     1       2.676   2.917  -4.375  0.00  0.00    +0.125 C 
ATOM     30  C   UNL     1       1.407   3.765  -4.522  0.00  0.00    +0.124 C 
ATOM     31  N   UNL     1       0.493   3.439  -3.419  0.00  0.00    -0.327 N 
ATOM     32  C   UNL     1       0.099   2.038  -3.216  0.00  0.00    +0.124 C 
ATOM     33  C   UNL     1       1.364   1.190  -3.072  0.00  0.00    +0.125 C 
BRANCH  31  34
ATOM     34  C   UNL     1       0.007   4.443  -2.578  0.00  0.00    +0.030 A 
ATOM     35  C   UNL     1       0.283   5.776  -2.853  0.00  0.00    +0.023 A 
ATOM     36  C   UNL     1      -0.199   6.766  -2.020  0.00  0.00    +0.002 A 
ATOM     37  C   UNL     1      -0.956   6.431  -0.912  0.00  0.00    +0.000 A 
ATOM     38  C   UNL     1      -1.233   5.105  -0.635  0.00  0.00    +0.002 A 
ATOM     39  C   UNL     1      -0.759   4.110  -1.468  0.00  0.00    +0.023 A 
ENDBRANCH  31  34
ENDBRANCH  26  28
ENDBRANCH  24  26
ENDBRANCH   2  24
TORSDOF 5
