REMARK  Name = ZINC12530528
REMARK  5 active torsions:
REMARK  status: ('A' for Active; 'I' for Inactive)
REMARK    1  A    between atoms: C_4  and  N_7
REMARK    2  A    between atoms: N_10  and  C_11
REMARK    3  A    between atoms: C_20  and  C_23
REMARK    4  A    between atoms: C_23  and  C_24
REMARK    5  A    between atoms: C_24  and  C_25
REMARK                            x       y       z     vdW  Elec       q    Type
REMARK                         _______ _______ _______ _____ _____    ______ ____
ROOT
ATOM      1  C   UNL     1      -4.264  -1.932  -2.922  0.00  0.00    +0.057 C 
ATOM      2  C   UNL     1      -4.891  -3.307  -2.572  0.00  0.00    +0.014 C 
ATOM      3  C   UNL     1      -4.221  -3.692  -1.252  0.00  0.00    +0.021 C 
ATOM      4  C   UNL     1      -3.974  -5.151  -1.050  0.00  0.00    +0.200 C 
ATOM      5  O   UNL     1      -4.745  -5.972  -1.499  0.00  0.00    -0.278 OA
ATOM      6  N   UNL     1      -2.884  -5.542  -0.362  0.00  0.00    -0.318 N 
ATOM      7  C   UNL     1      -1.837  -4.645   0.108  0.00  0.00    +0.089 C 
ATOM      8  C   UNL     1      -2.227  -3.168  -0.046  0.00  0.00    -0.050 C 
ATOM      9  C   UNL     1      -3.214  -1.675  -1.805  0.00  0.00    -0.055 C 
ATOM     10  H   UNL     1      -2.790  -6.487  -0.166  0.00  0.00    +0.149 HD
ATOM     11  N   UNL     1      -2.940  -3.054  -1.370  0.00  0.00    +0.391 N 
ATOM     12  H   UNL     1      -2.373  -3.523  -2.087  0.00  0.00    -0.080 HD
ENDROOT
BRANCH   1  16
ATOM     13  N   UNL     1      -2.849  -0.914  -6.160  0.00  0.00    -0.269 N 
ATOM     14  C   UNL     1      -3.450  -0.862  -4.955  0.00  0.00    +0.304 C 
ATOM     15  O   UNL     1      -3.848   0.201  -4.519  0.00  0.00    -0.253 OA
ATOM     16  N   UNL     1      -3.610  -1.988  -4.232  0.00  0.00    -0.298 N 
ATOM     17  H   UNL     1      -2.596  -1.770  -6.539  0.00  0.00    +0.156 HD
ATOM     18  H   UNL     1      -3.293  -2.837  -4.579  0.00  0.00    +0.150 HD
BRANCH  13  22
ATOM     19  C   UNL     1      -2.078   2.602  -8.257  0.00  0.00    +0.000 A 
ATOM     20  C   UNL     1      -1.188   1.547  -8.329  0.00  0.00    +0.002 A 
ATOM     21  C   UNL     1      -1.440   0.380  -7.635  0.00  0.00    +0.023 A 
ATOM     22  C   UNL     1      -2.590   0.267  -6.864  0.00  0.00    +0.035 A 
ATOM     23  C   UNL     1      -3.485   1.327  -6.799  0.00  0.00    +0.023 A 
ATOM     24  C   UNL     1      -3.224   2.493  -7.490  0.00  0.00    +0.002 A 
ENDBRANCH  13  22
ENDBRANCH   1  16
BRANCH   8  25
ATOM     25  C   UNL     1      -0.972  -2.292  -0.011  0.00  0.00    -0.005 C 
BRANCH  25  26
ATOM     26  C   UNL     1      -0.311  -2.404   1.365  0.00  0.00    +0.094 C 
BRANCH  26  27
ATOM     27  C   UNL     1       0.983  -1.632   1.364  0.00  0.00    +0.216 C 
ATOM     28  O   UNL     1       1.341  -1.049   0.363  0.00  0.00    -0.276 OA
ATOM     29  N   UNL     1       1.742  -1.588   2.477  0.00  0.00    -0.297 N 
ATOM     30  C   UNL     1       1.325  -2.282   3.706  0.00  0.00    +0.136 C 
ATOM     31  C   UNL     1       2.504  -3.137   4.197  0.00  0.00    +0.179 C 
ATOM     32  O   UNL     1       3.670  -2.316   4.297  0.00  0.00    -0.377 OA
ATOM     33  C   UNL     1       4.104  -1.762   3.052  0.00  0.00    +0.179 C 
ATOM     34  C   UNL     1       3.009  -0.841   2.501  0.00  0.00    +0.136 C 
ENDBRANCH  26  27
ENDBRANCH  25  26
ENDBRANCH   8  25
TORSDOF 5
