REMARK  Name = ZINC65380901
REMARK  8 active torsions:
REMARK  status: ('A' for Active; 'I' for Inactive)
REMARK    1  A    between atoms: C_1  and  C_2
REMARK    2  A    between atoms: C_2  and  C_4
REMARK    3  A    between atoms: C_2  and  N_7
REMARK    4  A    between atoms: C_10  and  C_13
REMARK    5  A    between atoms: N_16  and  C_18
REMARK    6  A    between atoms: C_21  and  C_24
REMARK    7  A    between atoms: C_24  and  C_25
REMARK    8  A    between atoms: C_24  and  C_26
REMARK                            x       y       z     vdW  Elec       q    Type
REMARK                         _______ _______ _______ _____ _____    ______ ____
ROOT
ATOM      1  N   UNL     1       0.690  -0.478  -1.207  0.00  0.00    +0.390 N 
ATOM      2  C   UNL     1      -0.027  -0.001  -2.400  0.00  0.00    -0.073 C 
ATOM      3  C   UNL     1       0.837  -0.280  -3.633  0.00  0.00    +0.017 C 
ATOM      4  C   UNL     1       1.298  -1.711  -3.611  0.00  0.00    -0.045 C 
ATOM      5  C   UNL     1       1.242  -2.453  -2.526  0.00  0.00    -0.041 C 
ATOM      6  C   UNL     1       0.711  -1.945  -1.216  0.00  0.00    -0.050 C 
ATOM      7  H   UNL     1       1.635  -0.127  -1.217  0.00  0.00    -0.080 HD
ENDROOT
BRANCH   4   8
ATOM      8  C   UNL     1       1.834  -2.307  -4.854  0.00  0.00    +0.016 A 
ATOM      9  C   UNL     1       3.015  -1.921  -5.522  0.00  0.00    +0.143 A 
ATOM     10  N   UNL     1       3.151  -2.679  -6.577  0.00  0.00    -0.174 NA
ATOM     11  N   UNL     1       2.074  -3.572  -6.628  0.00  0.00    -0.239 N 
ATOM     12  C   UNL     1       1.278  -3.335  -5.562  0.00  0.00    +0.122 A 
BRANCH  11  13
ATOM     13  C   UNL     1       1.861  -4.547  -7.612  0.00  0.00    +0.065 A 
ATOM     14  C   UNL     1       0.743  -5.368  -7.547  0.00  0.00    +0.028 A 
ATOM     15  C   UNL     1       0.535  -6.327  -8.518  0.00  0.00    +0.006 A 
ATOM     16  C   UNL     1       1.439  -6.471  -9.555  0.00  0.00    -0.045 A 
ATOM     17  C   UNL     1       2.553  -5.655  -9.622  0.00  0.00    +0.006 A 
ATOM     18  C   UNL     1       2.764  -4.690  -8.657  0.00  0.00    +0.028 A 
BRANCH  16  19
ATOM     19  C   UNL     1       1.210  -7.520 -10.612  0.00  0.00    +0.013 C 
ATOM     20  C   UNL     1       1.093  -6.846 -11.981  0.00  0.00    +0.012 C 
ATOM     21  C   UNL     1       2.386  -8.498 -10.624  0.00  0.00    +0.012 C 
ENDBRANCH  16  19
ENDBRANCH  11  13
ENDBRANCH   4   8
BRANCH   1  23
ATOM     22  C   UNL     1      -0.019   1.526   0.010  0.00  0.00    -0.004 C 
ATOM     23  C   UNL     1       0.002  -0.004   0.002  0.00  0.00    +0.016 C 
BRANCH  23  24
ATOM     24  C   UNL     1       0.731  -0.503   1.223  0.00  0.00    +0.197 C 
ATOM     25  O   UNL     1       1.725  -1.187   1.099  0.00  0.00    -0.278 OA
ATOM     26  N   UNL     1       0.278  -0.191   2.453  0.00  0.00    -0.331 N 
ATOM     27  H   UNL     1      -0.517   0.356   2.553  0.00  0.00    +0.145 HD
ATOM     28  H   UNL     1       0.747  -0.512   3.239  0.00  0.00    +0.145 HD
ENDBRANCH  23  24
ENDBRANCH   1  23
TORSDOF 5
