REMARK  Name = ZINC32934704
REMARK  8 active torsions:
REMARK  status: ('A' for Active; 'I' for Inactive)
REMARK    1  A    between atoms: C_1  and  C_2
REMARK    2  A    between atoms: C_10  and  C_12
REMARK    3  A    between atoms: C_12  and  C_14
REMARK    4  A    between atoms: C_12  and  N_21
REMARK    5  A    between atoms: C_14  and  C_15
REMARK    6  A    between atoms: C_22  and  C_24
REMARK    7  A    between atoms: N_29  and  C_31
REMARK    8  A    between atoms: C_31  and  C_32
REMARK                            x       y       z     vdW  Elec       q    Type
REMARK                         _______ _______ _______ _____ _____    ______ ____
ROOT
ATOM      1  C   UNL     1      -0.018   1.503   0.010  0.00  0.00    +0.068 C 
ATOM      2  C   UNL     1       0.002  -0.004   0.002  0.00  0.00    +0.073 A 
ATOM      3  C   UNL     1       0.008  -0.823  -1.148  0.00  0.00    +0.083 A 
ATOM      4  C   UNL     1       0.028  -2.147  -0.712  0.00  0.00    +0.157 A 
ATOM      5  N   UNL     1       0.034  -2.936  -1.821  0.00  0.00    -0.259 N 
ATOM      6  H   UNL     1       0.047  -3.906  -1.820  0.00  0.00    +0.191 HD
ATOM      7  N   UNL     1       0.018  -2.128  -2.963  0.00  0.00    -0.156 NA
ATOM      8  C   UNL     1       0.002  -0.869  -2.609  0.00  0.00    +0.158 A 
ATOM      9  N   UNL     1      -0.017   0.232  -3.472  0.00  0.00    -0.267 N 
ATOM     10  C   UNL     1      -0.021   0.043  -4.806  0.00  0.00    +0.239 C 
ATOM     11  O   UNL     1      -0.007  -1.081  -5.260  0.00  0.00    -0.273 OA
ATOM     12  N   UNL     1       0.034  -2.112   0.651  0.00  0.00    -0.242 N 
ATOM     13  N   UNL     1       0.023  -0.771   1.055  0.00  0.00    -0.174 NA
ATOM     14  H   UNL     1      -0.028   1.132  -3.109  0.00  0.00    +0.156 HD
ENDROOT
BRANCH  10  15
ATOM     15  C   UNL     1      -0.041   1.230  -5.735  0.00  0.00    +0.164 C 
BRANCH  15  16
ATOM     16  N   UNL     1      -0.041   0.763  -7.124  0.00  0.00    -0.297 N 
ATOM     17  C   UNL     1       0.437   1.558  -8.102  0.00  0.00    +0.280 C 
ATOM     18  O   UNL     1       0.869   2.663  -7.832  0.00  0.00    -0.267 OA
ATOM     19  H   UNL     1      -0.385  -0.118  -7.339  0.00  0.00    +0.150 HD
BRANCH  17  20
ATOM     20  C   UNL     1       0.437   1.090  -9.492  0.00  0.00    +0.189 A 
ATOM     21  C   UNL     1       0.895   1.788 -10.573  0.00  0.00    +0.054 A 
ATOM     22  C   UNL     1       0.704   0.965 -11.694  0.00  0.00    +0.042 A 
ATOM     23  C   UNL     1       0.145  -0.184 -11.254  0.00  0.00    +0.196 A 
ATOM     24  O   UNL     1      -0.009  -0.107  -9.926  0.00  0.00    -0.458 OA
ENDBRANCH  17  20
ENDBRANCH  15  16
BRANCH  15  25
ATOM     25  C   UNL     1      -1.300   2.059  -5.476  0.00  0.00    +0.067 C 
BRANCH  25  26
ATOM     26  C   UNL     1      -1.261   3.309  -6.317  0.00  0.00    -0.045 A 
ATOM     27  C   UNL     1      -0.676   4.458  -5.820  0.00  0.00    +0.004 A 
ATOM     28  C   UNL     1      -0.639   5.605  -6.591  0.00  0.00    +0.000 A 
ATOM     29  C   UNL     1      -1.188   5.602  -7.860  0.00  0.00    +0.000 A 
ATOM     30  C   UNL     1      -1.773   4.452  -8.357  0.00  0.00    +0.000 A 
ATOM     31  C   UNL     1      -1.805   3.304  -7.588  0.00  0.00    +0.004 A 
ENDBRANCH  25  26
ENDBRANCH  15  25
ENDBRANCH  10  15
BRANCH  12  32
ATOM     32  C   UNL     1       0.053  -3.276   1.539  0.00  0.00    +0.181 C 
BRANCH  32  33
ATOM     33  C   UNL     1       1.481  -3.657   1.837  0.00  0.00    -0.026 A 
ATOM     34  C   UNL     1       2.143  -4.553   1.019  0.00  0.00    +0.008 A 
ATOM     35  C   UNL     1       3.452  -4.902   1.291  0.00  0.00    +0.038 A 
ATOM     36  C   UNL     1       4.101  -4.353   2.384  0.00  0.00    +0.123 A 
ATOM     37  C   UNL     1       3.437  -3.456   3.204  0.00  0.00    +0.038 A 
ATOM     38  C   UNL     1       2.130  -3.104   2.926  0.00  0.00    +0.008 A 
ATOM     39  F   UNL     1       5.380  -4.694   2.651  0.00  0.00    -0.205 F 
ENDBRANCH  32  33
ENDBRANCH  12  32
TORSDOF 7
