REMARK  Name = ZINC07340188
REMARK  10 active torsions:
REMARK  status: ('A' for Active; 'I' for Inactive)
REMARK    1  A    between atoms: C_1  and  C_2
REMARK    2  A    between atoms: C_2  and  C_3
REMARK    3  A    between atoms: C_3  and  C_4
REMARK    4  A    between atoms: C_4  and  N_5
REMARK    5  A    between atoms: C_6  and  N_29
REMARK    6  A    between atoms: C_7  and  N_14
REMARK    7  A    between atoms: N_14  and  C_15
REMARK    8  A    between atoms: C_15  and  C_16
REMARK    9  A    between atoms: C_22  and  C_24
REMARK   10  A    between atoms: C_24  and  N_58
REMARK                            x       y       z     vdW  Elec       q    Type
REMARK                         _______ _______ _______ _____ _____    ______ ____
ROOT
ATOM      1  N   UNL     1       2.372   3.856   0.082  0.00  0.00    -0.261 N 
ATOM      2  C   UNL     1       2.164   5.188   0.135  0.00  0.00    +0.204 C 
ATOM      3  O   UNL     1       1.086   5.647  -0.177  0.00  0.00    -0.277 OA
ENDROOT
BRANCH   1   6
ATOM      4  N   UNL     1      -0.229   1.275   0.360  0.00  0.00    -0.280 N 
ATOM      5  C   UNL     1       0.810   2.110   0.702  0.00  0.00    +0.127 A 
ATOM      6  C   UNL     1       1.307   2.988  -0.238  0.00  0.00    +0.140 A 
ATOM      7  C   UNL     1       0.733   3.004  -1.524  0.00  0.00    +0.277 A 
ATOM      8  O   UNL     1       1.153   3.770  -2.374  0.00  0.00    -0.266 OA
ATOM      9  N   UNL     1      -0.283   2.166  -1.808  0.00  0.00    -0.273 N 
ATOM     10  H   UNL     1      -0.689   2.173  -2.721  0.00  0.00    +0.173 HD
ATOM     11  C   UNL     1      -0.758   1.320  -0.876  0.00  0.00    +0.331 A 
ATOM     12  O   UNL     1      -1.679   0.578  -1.158  0.00  0.00    -0.246 OA
BRANCH   5  13
ATOM     13  N   UNL     1       1.348   2.068   1.967  0.00  0.00    -0.343 N 
ATOM     14  H   UNL     1       2.017   2.718   2.231  0.00  0.00    +0.144 HD
ATOM     15  H   UNL     1       1.057   1.388   2.595  0.00  0.00    +0.144 HD
ENDBRANCH   5  13
BRANCH   4  16
ATOM     16  C   UNL     1      -0.766   0.338   1.349  0.00  0.00    +0.128 C 
BRANCH  16  17
ATOM     17  C   UNL     1      -1.898   1.011   2.127  0.00  0.00    +0.021 C 
BRANCH  17  19
ATOM     18  C   UNL     1      -3.592   0.704   3.938  0.00  0.00    +0.004 C 
ATOM     19  C   UNL     1      -2.460   0.031   3.160  0.00  0.00    -0.002 C 
ENDBRANCH  17  19
ENDBRANCH  16  17
ENDBRANCH   4  16
ENDBRANCH   1   6
BRANCH   1  20
ATOM     20  C   UNL     1       3.704   3.311   0.358  0.00  0.00    +0.149 C 
BRANCH  20  21
ATOM     21  C   UNL     1       4.463   3.161  -0.936  0.00  0.00    -0.030 A 
ATOM     22  C   UNL     1       4.299   2.024  -1.705  0.00  0.00    +0.005 A 
ATOM     23  C   UNL     1       4.991   1.888  -2.894  0.00  0.00    +0.000 A 
ATOM     24  C   UNL     1       5.855   2.885  -3.308  0.00  0.00    +0.000 A 
ATOM     25  C   UNL     1       6.022   4.019  -2.536  0.00  0.00    +0.000 A 
ATOM     26  C   UNL     1       5.326   4.157  -1.350  0.00  0.00    +0.005 A 
ENDBRANCH  20  21
ENDBRANCH   1  20
BRANCH   2  27
ATOM     27  C   UNL     1       3.273   6.107   0.583  0.00  0.00    +0.019 C 
BRANCH  27  32
ATOM     28  C   UNL     1       1.540   7.520   1.545  0.00  0.00    -0.078 C 
ATOM     29  C   UNL     1       1.460   9.006   1.976  0.00  0.00    -0.020 C 
ATOM     30  C   UNL     1       2.945   9.386   2.185  0.00  0.00    -0.020 C 
ATOM     31  C   UNL     1       3.742   8.361   1.356  0.00  0.00    -0.078 C 
ATOM     32  N   UNL     1       2.751   7.500   0.709  0.00  0.00    +0.385 N 
ATOM     33  H   UNL     1       2.533   7.865  -0.226  0.00  0.00    -0.081 HD
ENDBRANCH  27  32
ENDBRANCH   2  27
TORSDOF 9
