REMARK  Name = ZINC63177057
REMARK  4 active torsions:
REMARK  status: ('A' for Active; 'I' for Inactive)
REMARK    1  A    between atoms: C_3  and  N_16
REMARK    2  A    between atoms: C_6  and  N_7
REMARK    3  A    between atoms: N_7  and  C_8
REMARK    4  A    between atoms: C_13  and  N_15
REMARK                            x       y       z     vdW  Elec       q    Type
REMARK                         _______ _______ _______ _____ _____    ______ ____
ROOT
ATOM      1  N   UNL     1      -1.197  -0.720   0.010  0.00  0.00    -0.343 N 
ATOM      2  H   UNL     1      -2.044  -0.248   0.021  0.00  0.00    +0.146 HD
ENDROOT
BRANCH   1   8
ATOM      3  C   UNL     1      -0.017   1.385   0.010  0.00  0.00    +0.025 A 
ATOM      4  C   UNL     1       1.171   2.090   0.002  0.00  0.00    +0.034 A 
ATOM      5  C   UNL     1       2.377   1.415  -0.013  0.00  0.00    +0.126 A 
ATOM      6  C   UNL     1       2.400   0.032  -0.022  0.00  0.00    +0.034 A 
ATOM      7  C   UNL     1       1.216  -0.679  -0.014  0.00  0.00    +0.025 A 
ATOM      8  C   UNL     1       0.002  -0.004   0.002  0.00  0.00    +0.027 A 
BRANCH   5   9
ATOM      9  N   UNL     1       3.648   2.174  -0.022  0.00  0.00    +0.056 N 
ATOM     10  O   UNL     1       3.630   3.383  -0.015  0.00  0.00    -0.126 OA
ATOM     11  O   UNL     1       4.704   1.585  -0.036  0.00  0.00    -0.126 OA
ENDBRANCH   5   9
ENDBRANCH   1   8
BRANCH   1  12
ATOM     12  C   UNL     1      -1.175  -2.185   0.002  0.00  0.00    +0.056 C 
ATOM     13  C   UNL     1      -1.108  -2.705  -1.449  0.00  0.00    +0.020 C 
ATOM     14  C   UNL     1      -1.997  -3.973  -1.440  0.00  0.00    +0.000 C 
ATOM     15  C   UNL     1      -3.159  -3.570  -0.499  0.00  0.00    -0.014 C 
ATOM     16  C   UNL     1      -2.479  -2.735   0.607  0.00  0.00    -0.055 C 
BRANCH  16  17
ATOM     17  N   UNL     1      -3.353  -1.626   1.011  0.00  0.00    +0.381 N 
ATOM     18  H   UNL     1      -3.574  -1.061   0.205  0.00  0.00    -0.090 HD
ATOM     19  H   UNL     1      -4.205  -1.996   1.406  0.00  0.00    -0.090 HD
ATOM     20  H   UNL     1      -2.881  -1.059   1.700  0.00  0.00    -0.090 HD
ENDBRANCH  16  17
ENDBRANCH   1  12
TORSDOF 4
