REMARK  Name = ZINC13544026
REMARK  7 active torsions:
REMARK  status: ('A' for Active; 'I' for Inactive)
REMARK    1  A    between atoms: C_1  and  N_2
REMARK    2  A    between atoms: N_7  and  C_10
REMARK    3  A    between atoms: N_13  and  C_14
REMARK    4  A    between atoms: C_14  and  C_15
REMARK    5  A    between atoms: C_15  and  N_17
REMARK    6  A    between atoms: N_18  and  C_19
REMARK    7  A    between atoms: C_28  and  O_29
REMARK                            x       y       z     vdW  Elec       q    Type
REMARK                         _______ _______ _______ _____ _____    ______ ____
ROOT
ATOM      1  C   UNL     1      -3.094   1.544  -1.390  0.00  0.00    +0.274 C 
ATOM      2  O   UNL     1      -2.741   0.841  -2.315  0.00  0.00    -0.270 OA
ENDROOT
BRANCH   1   3
ATOM      3  N   UNL     1      -3.548   2.783  -1.625  0.00  0.00    -0.078 NA
ATOM      4  N   UNL     1      -3.609   3.229  -2.834  0.00  0.00    -0.151 NA
BRANCH   4   5
ATOM      5  C   UNL     1      -4.061   4.462  -3.069  0.00  0.00    +0.152 A 
ATOM      6  C   UNL     1      -4.202   5.122  -4.383  0.00  0.00    +0.030 A 
ATOM      7  C   UNL     1      -3.939   4.726  -5.691  0.00  0.00    +0.012 A 
ATOM      8  C   UNL     1      -4.184   5.599  -6.731  0.00  0.00    +0.001 A 
ATOM      9  C   UNL     1      -4.689   6.864  -6.476  0.00  0.00    +0.002 A 
ATOM     10  C   UNL     1      -4.953   7.267  -5.184  0.00  0.00    +0.026 A 
ATOM     11  C   UNL     1      -4.713   6.402  -4.122  0.00  0.00    +0.051 A 
ATOM     12  N   UNL     1      -4.878   6.528  -2.752  0.00  0.00    -0.324 N 
ATOM     13  H   UNL     1      -5.219   7.321  -2.308  0.00  0.00    +0.169 HD
ATOM     14  C   UNL     1      -4.504   5.392  -2.119  0.00  0.00    +0.219 A 
BRANCH  14  15
ATOM     15  O   UNL     1      -4.548   5.189  -0.786  0.00  0.00    -0.492 OA
ATOM     16  H   UNL     1      -3.739   5.445  -0.322  0.00  0.00    +0.294 HD
ENDBRANCH  14  15
ENDBRANCH   4   5
ENDBRANCH   1   3
BRANCH   1  17
ATOM     17  C   UNL     1      -3.022   1.024   0.022  0.00  0.00    +0.224 C 
BRANCH  17  30
ATOM     18  C   UNL     1      -0.018   1.461   0.010  0.00  0.00    +0.155 C 
ATOM     19  N   UNL     1       0.002  -0.004   0.002  0.00  0.00    -0.281 N 
ATOM     20  C   UNL     1      -1.185  -0.700   0.004  0.00  0.00    +0.150 A 
ATOM     21  C   UNL     1      -1.156  -2.089  -0.004  0.00  0.00    +0.171 A 
ATOM     22  C   UNL     1       0.147  -2.756  -0.014  0.00  0.00    +0.284 A 
ATOM     23  O   UNL     1       0.225  -3.971  -0.021  0.00  0.00    -0.265 OA
ATOM     24  N   UNL     1       1.262  -1.993  -0.015  0.00  0.00    -0.262 N 
ATOM     25  C   UNL     1       1.180  -0.652  -0.013  0.00  0.00    +0.333 A 
ATOM     26  O   UNL     1       2.208  -0.002  -0.019  0.00  0.00    -0.246 OA
ATOM     27  C   UNL     1       2.578  -2.637  -0.024  0.00  0.00    +0.157 C 
ATOM     28  N   UNL     1      -2.440  -2.521   0.001  0.00  0.00    -0.229 NA
ATOM     29  C   UNL     1      -3.235  -1.491   0.010  0.00  0.00    +0.202 A 
ATOM     30  N   UNL     1      -2.497  -0.344   0.013  0.00  0.00    -0.307 N 
ENDBRANCH  17  30
ENDBRANCH   1  17
TORSDOF 5
