REMARK  Name = ZINC41624459
REMARK  7 active torsions:
REMARK  status: ('A' for Active; 'I' for Inactive)
REMARK    1  A    between atoms: C_1  and  O_2
REMARK    2  A    between atoms: O_2  and  C_3
REMARK    3  A    between atoms: C_3  and  C_5
REMARK    4  A    between atoms: N_16  and  C_17
REMARK    5  A    between atoms: C_17  and  C_18
REMARK    6  A    between atoms: N_20  and  C_21
REMARK    7  A    between atoms: C_22  and  C_26
REMARK                            x       y       z     vdW  Elec       q    Type
REMARK                         _______ _______ _______ _____ _____    ______ ____
ROOT
ATOM      1  C   UNL     1       2.573  -3.257  -2.016  0.00  0.00    +0.020 C 
ENDROOT
BRANCH   1  10
ATOM      2  C   UNL     1       0.657  -2.104  -1.120  0.00  0.00    +0.044 C 
ATOM      3  C   UNL     1      -0.775  -2.684  -1.178  0.00  0.00    -0.002 C 
ATOM      4  C   UNL     1      -0.971  -2.918  -2.690  0.00  0.00    -0.026 C 
ATOM      5  C   UNL     1      -2.058  -3.921  -2.986  0.00  0.00    +0.002 C 
ATOM      6  C   UNL     1      -1.706  -5.308  -2.451  0.00  0.00    +0.000 C 
ATOM      7  C   UNL     1      -0.393  -5.754  -3.106  0.00  0.00    -0.002 C 
ATOM      8  C   UNL     1       0.714  -4.801  -2.663  0.00  0.00    -0.015 C 
ATOM      9  C   UNL     1       0.425  -3.393  -3.132  0.00  0.00    -0.064 C 
ATOM     10  N   UNL     1       1.351  -2.516  -2.356  0.00  0.00    +0.396 N 
ATOM     11  H   UNL     1       1.587  -1.702  -2.902  0.00  0.00    -0.080 HD
BRANCH   2  12
ATOM     12  C   UNL     1       0.598  -0.600  -1.043  0.00  0.00    +0.293 C 
ATOM     13  O   UNL     1       1.088   0.070  -1.921  0.00  0.00    -0.253 OA
BRANCH  12  15
ATOM     14  C   UNL     1      -0.017   1.425   0.010  0.00  0.00    +0.280 C 
ATOM     15  O   UNL     1       0.002  -0.004   0.002  0.00  0.00    -0.469 OA
ENDBRANCH  12  15
ENDBRANCH   2  12
ENDBRANCH   1  10
BRANCH   1  16
ATOM     16  C   UNL     1       3.550  -2.330  -1.341  0.00  0.00    +0.201 C 
ATOM     17  O   UNL     1       3.258  -1.167  -1.161  0.00  0.00    -0.278 OA
ATOM     18  N   UNL     1       4.750  -2.794  -0.937  0.00  0.00    -0.281 N 
ATOM     19  H   UNL     1       4.984  -3.725  -1.081  0.00  0.00    +0.155 HD
BRANCH  18  20
ATOM     20  C   UNL     1       5.650  -1.942  -0.316  0.00  0.00    +0.084 A 
ATOM     21  C   UNL     1       6.920  -2.239   0.157  0.00  0.00    +0.065 A 
ATOM     22  C   UNL     1       7.652  -1.154   0.768  0.00  0.00    +0.022 A 
ATOM     23  C   UNL     1       7.017   0.032   0.810  0.00  0.00    +0.048 A 
ATOM     24  S   UNL     1       5.455  -0.311   0.030  0.00  0.00    -0.081 S 
BRANCH  21  25
ATOM     25  C   UNL     1       7.489  -3.585   0.042  0.00  0.00    +0.244 C 
ATOM     26  O   UNL     1       6.844  -4.477  -0.478  0.00  0.00    -0.270 OA
ATOM     27  N   UNL     1       8.727  -3.836   0.513  0.00  0.00    -0.325 N 
ATOM     28  H   UNL     1       9.241  -3.125   0.928  0.00  0.00    +0.145 HD
ATOM     29  H   UNL     1       9.103  -4.726   0.438  0.00  0.00    +0.145 HD
ENDBRANCH  21  25
ENDBRANCH  18  20
ENDBRANCH   1  16
TORSDOF 6
