REMARK  Name = ZINC09576519
REMARK  4 active torsions:
REMARK  status: ('A' for Active; 'I' for Inactive)
REMARK    1  A    between atoms: C_9  and  C_11
REMARK    2  A    between atoms: C_18  and  O_28
REMARK    3  A    between atoms: C_19  and  C_22
REMARK    4  A    between atoms: C_22  and  N_23
REMARK                            x       y       z     vdW  Elec       q    Type
REMARK                         _______ _______ _______ _____ _____    ______ ____
ROOT
ATOM      1  C   UNL     1       5.906   0.865  -0.049  0.00  0.00    +0.096 C 
ATOM      2  C   UNL     1       6.530   2.076  -0.049  0.00  0.00    +0.179 C 
ATOM      3  C   UNL     1       7.980   2.304  -0.067  0.00  0.00    +0.232 C 
ATOM      4  O   UNL     1       8.867   1.468  -0.085  0.00  0.00    -0.283 OA
ATOM      5  C   UNL     1       8.123   3.772  -0.058  0.00  0.00    +0.068 A 
ATOM      6  C   UNL     1       9.229   4.623  -0.067  0.00  0.00    +0.019 A 
ATOM      7  C   UNL     1       9.046   5.976  -0.055  0.00  0.00    +0.046 A 
ATOM      8  C   UNL     1       7.760   6.508  -0.033  0.00  0.00    +0.122 A 
ATOM      9  C   UNL     1       6.653   5.675  -0.024  0.00  0.00    +0.020 A 
ATOM     10  C   UNL     1       6.821   4.296  -0.037  0.00  0.00    +0.144 A 
ATOM     11  O   UNL     1       5.924   3.286  -0.037  0.00  0.00    -0.451 OA
ENDROOT
BRANCH   1  20
ATOM     12  C   UNL     1      -0.017   1.384   0.010  0.00  0.00    +0.019 A 
ATOM     13  C   UNL     1       1.160   2.104   0.002  0.00  0.00    +0.048 A 
ATOM     14  C   UNL     1       2.378   1.438  -0.013  0.00  0.00    +0.136 A 
ATOM     15  C   UNL     1       2.394   0.030  -0.021  0.00  0.00    +0.022 A 
ATOM     16  C   UNL     1       1.190  -0.681  -0.013  0.00  0.00    +0.027 A 
ATOM     17  C   UNL     1       0.002  -0.004   0.002  0.00  0.00    +0.019 A 
ATOM     18 BR   UNL     1      -1.627  -0.965   0.012  0.00  0.00    -0.050 Br
ATOM     19  C   UNL     1       3.759  -0.353  -0.036  0.00  0.00    +0.058 A 
ATOM     20  C   UNL     1       4.492   0.796  -0.036  0.00  0.00    +0.133 A 
ATOM     21  O   UNL     1       3.660   1.860  -0.023  0.00  0.00    -0.455 OA
ENDBRANCH   1  20
BRANCH   8  22
ATOM     22  O   UNL     1       7.588   7.855  -0.020  0.00  0.00    -0.506 OA
ATOM     23  H   UNL     1       7.527   8.252  -0.899  0.00  0.00    +0.292 HD
ENDBRANCH   8  22
BRANCH   9  24
ATOM     24  C   UNL     1       5.266   6.265   0.000  0.00  0.00    -0.036 C 
BRANCH  24  25
ATOM     25  N   UNL     1       4.796   6.468  -1.377  0.00  0.00    +0.383 N 
ATOM     26  C   UNL     1       4.563   5.157  -2.037  0.00  0.00    -0.078 C 
ATOM     27  C   UNL     1       3.583   5.508  -3.184  0.00  0.00    -0.020 C 
ATOM     28  C   UNL     1       2.670   6.579  -2.544  0.00  0.00    -0.020 C 
ATOM     29  C   UNL     1       3.487   7.156  -1.373  0.00  0.00    -0.078 C 
ATOM     30  H   UNL     1       5.471   7.006  -1.899  0.00  0.00    -0.081 HD
ENDBRANCH  24  25
ENDBRANCH   9  24
TORSDOF 4
