REMARK  Name = ZINC03595431
REMARK  10 active torsions:
REMARK  status: ('A' for Active; 'I' for Inactive)
REMARK    1  A    between atoms: C_1  and  C_2
REMARK    2  A    between atoms: C_2  and  C_20
REMARK    3  A    between atoms: N_5  and  C_9
REMARK    4  A    between atoms: C_9  and  C_10
REMARK    5  A    between atoms: N_15  and  C_16
REMARK    6  A    between atoms: C_16  and  C_17
REMARK    7  A    between atoms: C_16  and  C_18
REMARK    8  A    between atoms: C_16  and  C_19
REMARK    9  A    between atoms: C_23  and  O_26
REMARK   10  A    between atoms: O_26  and  C_27
REMARK                            x       y       z     vdW  Elec       q    Type
REMARK                         _______ _______ _______ _____ _____    ______ ____
ROOT
ATOM      1  C   UNL     1      -6.665   2.695  -1.064  0.00  0.00    +0.047 C 
ATOM      2  C   UNL     1      -5.299   3.195  -0.590  0.00  0.00    +0.135 C 
ATOM      3  C   UNL     1      -4.196   2.280  -1.081  0.00  0.00    +0.251 C 
ATOM      4  O   UNL     1      -3.902   2.039  -2.232  0.00  0.00    -0.272 OA
ATOM      5  N   UNL     1      -3.608   1.789   0.029  0.00  0.00    -0.215 N 
ATOM      6  C   UNL     1      -4.185   2.260   1.141  0.00  0.00    +0.310 C 
ATOM      7  O   UNL     1      -3.832   1.958   2.264  0.00  0.00    -0.252 OA
ATOM      8  N   UNL     1      -5.196   3.107   0.877  0.00  0.00    -0.281 N 
ATOM      9  H   UNL     1      -5.751   3.567   1.526  0.00  0.00    +0.152 HD
ENDROOT
BRANCH   2  10
ATOM     10  C   UNL     1      -5.060   4.609  -1.053  0.00  0.00    -0.015 A 
ATOM     11  C   UNL     1      -4.391   4.843  -2.240  0.00  0.00    +0.010 A 
ATOM     12  C   UNL     1      -4.176   6.138  -2.670  0.00  0.00    +0.046 A 
ATOM     13  C   UNL     1      -4.622   7.205  -1.904  0.00  0.00    +0.127 A 
ATOM     14  C   UNL     1      -5.288   6.968  -0.711  0.00  0.00    +0.046 A 
ATOM     15  C   UNL     1      -5.506   5.671  -0.288  0.00  0.00    +0.010 A 
BRANCH  13  16
ATOM     16  O   UNL     1      -4.406   8.480  -2.322  0.00  0.00    -0.434 OA
BRANCH  16  17
ATOM     17  C   UNL     1      -3.713   8.648  -3.561  0.00  0.00    +0.541 C 
ATOM     18  F   UNL     1      -2.445   8.062  -3.469  0.00  0.00    -0.166 F 
ATOM     19  F   UNL     1      -4.437   8.034  -4.588  0.00  0.00    -0.166 F 
ENDBRANCH  16  17
ENDBRANCH  13  16
ENDBRANCH   2  10
BRANCH   5  20
ATOM     20  C   UNL     1      -2.482   0.853   0.018  0.00  0.00    +0.214 C 
BRANCH  20  21
ATOM     21  C   UNL     1      -1.187   1.624   0.017  0.00  0.00    +0.238 C 
ATOM     22  O   UNL     1      -1.204   2.836   0.023  0.00  0.00    -0.274 OA
ATOM     23  N   UNL     1      -0.011   0.966   0.007  0.00  0.00    -0.239 N 
ATOM     24  C   UNL     1       1.147   1.655   0.000  0.00  0.00    +0.306 C 
ATOM     25  O   UNL     1       1.130   2.871   0.007  0.00  0.00    -0.252 OA
ATOM     26  N   UNL     1       2.323   0.998  -0.015  0.00  0.00    -0.294 N 
ATOM     27  H   UNL     1       0.002  -0.004   0.002  0.00  0.00    +0.159 HD
ATOM     28  H   UNL     1       2.336   0.028  -0.020  0.00  0.00    +0.151 HD
BRANCH  26  29
ATOM     29  C   UNL     1       3.582   1.747  -0.023  0.00  0.00    +0.028 C 
ATOM     30  C   UNL     1       3.663   2.621   1.230  0.00  0.00    +0.031 C 
ATOM     31  C   UNL     1       4.758   0.769  -0.039  0.00  0.00    +0.031 C 
ATOM     32  C   UNL     1       3.639   2.635  -1.268  0.00  0.00    +0.031 C 
ENDBRANCH  26  29
ENDBRANCH  20  21
ENDBRANCH   5  20
TORSDOF 6
