REMARK  Name = ZINC43737049
REMARK  11 active torsions:
REMARK  status: ('A' for Active; 'I' for Inactive)
REMARK    1  A    between atoms: C_1  and  C_2
REMARK    2  A    between atoms: C_2  and  C_4
REMARK    3  A    between atoms: C_4  and  O_40
REMARK    4  A    between atoms: C_9  and  C_39
REMARK    5  A    between atoms: N_21  and  O_22
REMARK    6  A    between atoms: O_22  and  C_23
REMARK    7  A    between atoms: C_23  and  C_24
REMARK    8  A    between atoms: N_26  and  C_27
REMARK    9  A    between atoms: C_27  and  C_28
REMARK   10  A    between atoms: C_28  and  C_29
REMARK   11  A    between atoms: C_37  and  C_38
REMARK                            x       y       z     vdW  Elec       q    Type
REMARK                         _______ _______ _______ _____ _____    ______ ____
ROOT
ATOM      1  C   UNL     1      -1.314  -0.917   0.216  0.00  0.00    +0.129 C 
ATOM      2  C   UNL     1      -1.727  -1.505   1.581  0.00  0.00    +0.043 C 
ATOM      3  C   UNL     1      -1.566  -3.036   1.464  0.00  0.00    +0.008 C 
ATOM      4  C   UNL     1      -1.732  -3.335  -0.048  0.00  0.00    +0.002 C 
ATOM      5  C   UNL     1      -1.107  -2.108  -0.719  0.00  0.00    +0.007 C 
ATOM      6  C   UNL     1      -1.545  -1.883  -2.143  0.00  0.00    +0.010 C 
ATOM      7  C   UNL     1      -3.057  -2.025  -2.321  0.00  0.00    +0.005 C 
ATOM      8  C   UNL     1      -3.464  -3.426  -1.863  0.00  0.00    +0.002 C 
ATOM      9  C   UNL     1      -3.208  -3.538  -0.362  0.00  0.00    -0.003 C 
ATOM     10  C   UNL     1      -4.088  -2.561   0.410  0.00  0.00    +0.008 C 
ATOM     11  C   UNL     1      -5.562  -2.918   0.179  0.00  0.00    +0.031 C 
ATOM     12  C   UNL     1      -5.829  -2.911  -1.315  0.00  0.00    -0.062 C 
ATOM     13  C   UNL     1      -6.839  -2.173  -1.758  0.00  0.00    +0.026 C 
ATOM     14  C   UNL     1      -7.177  -2.157  -3.190  0.00  0.00    +0.080 C 
ATOM     15  N   UNL     1      -7.910  -1.226  -3.712  0.00  0.00    -0.089 NA
ATOM     16  C   UNL     1      -6.646  -3.310  -4.020  0.00  0.00    +0.059 C 
ATOM     17  C   UNL     1      -5.165  -3.481  -3.690  0.00  0.00    +0.017 C 
ATOM     18  C   UNL     1      -4.927  -3.708  -2.207  0.00  0.00    -0.007 C 
ATOM     19  C   UNL     1      -5.196  -5.194  -1.936  0.00  0.00    +0.016 C 
ATOM     20  C   UNL     1       0.419  -2.362  -0.775  0.00  0.00    +0.015 C 
ENDROOT
BRANCH   1  22
ATOM     21  C   UNL     1       0.344   0.938  -0.594  0.00  0.00    +0.089 C 
ATOM     22  C   UNL     1      -0.011  -0.163   0.373  0.00  0.00    +0.162 C 
ATOM     23  O   UNL     1       0.745  -0.443   1.272  0.00  0.00    -0.295 OA
ENDBRANCH   1  22
BRANCH   1  24
ATOM     24  O   UNL     1      -2.315  -0.029  -0.276  0.00  0.00    -0.381 OA
ATOM     25  H   UNL     1      -2.481   0.733   0.295  0.00  0.00    +0.211 HD
ENDBRANCH   1  24
BRANCH  15  26
ATOM     26  O   UNL     1      -8.412  -0.181  -2.898  0.00  0.00    -0.384 OA
BRANCH  26  27
ATOM     27  C   UNL     1      -9.204   0.776  -3.605  0.00  0.00    +0.358 C 
BRANCH  27  28
ATOM     28  C   UNL     1      -9.684   1.836  -2.647  0.00  0.00    +0.253 C 
ATOM     29  O   UNL     1      -9.378   1.778  -1.475  0.00  0.00    -0.272 OA
ATOM     30  N   UNL     1     -10.453   2.849  -3.093  0.00  0.00    -0.312 N 
ATOM     31  H   UNL     1     -10.698   2.896  -4.031  0.00  0.00    +0.149 HD
BRANCH  30  32
ATOM     32  C   UNL     1     -10.919   3.879  -2.162  0.00  0.00    +0.110 C 
BRANCH  32  33
ATOM     33  C   UNL     1     -11.767   4.904  -2.919  0.00  0.00    +0.073 C 
BRANCH  33  34
ATOM     34  C   UNL     1     -12.247   5.964  -1.961  0.00  0.00    +0.035 A 
ATOM     35  C   UNL     1     -13.341   5.888  -1.179  0.00  0.00    +0.105 A 
ATOM     36  N   UNL     1     -13.405   7.058  -0.472  0.00  0.00    -0.352 N 
ATOM     37  H   UNL     1     -14.083   7.302   0.177  0.00  0.00    +0.166 HD
ATOM     38  C   UNL     1     -12.347   7.809  -0.846  0.00  0.00    +0.171 A 
ATOM     39  N   UNL     1     -11.656   7.147  -1.733  0.00  0.00    -0.350 N 
ATOM     40  H   UNL     1     -10.844   7.460  -2.162  0.00  0.00    +0.166 HD
ENDBRANCH  33  34
ENDBRANCH  32  33
ENDBRANCH  30  32
ENDBRANCH  27  28
ENDBRANCH  26  27
ENDBRANCH  15  26
TORSDOF 8
