REMARK  Name = ZINC45583611
REMARK  9 active torsions:
REMARK  status: ('A' for Active; 'I' for Inactive)
REMARK    1  A    between atoms: C_1  and  C_2
REMARK    2  A    between atoms: C_2  and  C_3
REMARK    3  A    between atoms: C_2  and  N_4
REMARK    4  A    between atoms: N_4  and  C_5
REMARK    5  A    between atoms: C_5  and  C_7
REMARK    6  A    between atoms: C_5  and  C_19
REMARK    7  A    between atoms: C_7  and  S_8
REMARK    8  A    between atoms: S_8  and  C_9
REMARK    9  A    between atoms: N_13  and  C_14
REMARK                            x       y       z     vdW  Elec       q    Type
REMARK                         _______ _______ _______ _____ _____    ______ ____
ROOT
ATOM      1  C   UNL     1       2.142  -0.280  -1.047  0.00  0.00    +0.026 C 
ENDROOT
BRANCH   1   2
ATOM      2  C   UNL     1       2.340   1.214  -1.035  0.00  0.00    +0.197 C 
ATOM      3  O   UNL     1       1.393   1.953  -1.196  0.00  0.00    -0.278 OA
ATOM      4  N   UNL     1       3.572   1.728  -0.846  0.00  0.00    -0.331 N 
ATOM      5  H   UNL     1       4.330   1.137  -0.717  0.00  0.00    +0.145 HD
ATOM      6  H   UNL     1       3.700   2.689  -0.838  0.00  0.00    +0.145 HD
ENDBRANCH   1   2
BRANCH   1   7
ATOM      7  N   UNL     1       0.776  -0.596  -0.607  0.00  0.00    +0.389 N 
ATOM      8  H   UNL     1       0.616  -1.589  -0.692  0.00  0.00    -0.084 HD
ATOM      9  H   UNL     1       0.114  -0.098  -1.183  0.00  0.00    -0.084 HD
BRANCH   7  11
ATOM     10  C   UNL     1      -0.855  -0.374   1.206  0.00  0.00    -0.014 C 
ATOM     11  C   UNL     1       0.608  -0.192   0.795  0.00  0.00    -0.077 C 
ATOM     12  C   UNL     1       1.500  -1.058   1.687  0.00  0.00    -0.014 C 
ENDBRANCH   7  11
ENDBRANCH   1   7
BRANCH   1  13
ATOM     13  C   UNL     1       2.356  -0.812  -2.466  0.00  0.00    +0.071 C 
BRANCH  13  14
ATOM     14  S   UNL     1       2.117  -2.610  -2.480  0.00  0.00    -0.086 S 
BRANCH  14  15
ATOM     15  C   UNL     1       2.394  -3.063  -4.160  0.00  0.00    +0.210 A 
ATOM     16  N   UNL     1       2.709  -2.252  -5.147  0.00  0.00    -0.102 NA
ATOM     17  N   UNL     1       2.840  -2.907  -6.244  0.00  0.00    -0.022 NA
ATOM     18  N   UNL     1       2.623  -4.162  -6.044  0.00  0.00    -0.043 NA
ATOM     19  N   UNL     1       2.330  -4.313  -4.677  0.00  0.00    -0.217 N 
BRANCH  19  20
ATOM     20  C   UNL     1       2.020  -5.555  -3.966  0.00  0.00    +0.112 C 
ATOM     21  C   UNL     1       3.172  -6.566  -4.140  0.00  0.00    +0.027 C 
ATOM     22  C   UNL     1       2.460  -7.937  -4.259  0.00  0.00    +0.002 C 
ATOM     23  C   UNL     1       1.199  -7.596  -5.091  0.00  0.00    +0.002 C 
ATOM     24  C   UNL     1       0.765  -6.210  -4.570  0.00  0.00    +0.027 C 
ENDBRANCH  19  20
ENDBRANCH  14  15
ENDBRANCH  13  14
ENDBRANCH   1  13
TORSDOF 7
