REMARK  Name = ZINC53255379
REMARK  4 active torsions:
REMARK  status: ('A' for Active; 'I' for Inactive)
REMARK    1  A    between atoms: C_8  and  N_15
REMARK    2  A    between atoms: C_9  and  N_12
REMARK    3  A    between atoms: N_15  and  C_16
REMARK    4  A    between atoms: C_16  and  C_17
REMARK                            x       y       z     vdW  Elec       q    Type
REMARK                         _______ _______ _______ _____ _____    ______ ____
ROOT
ATOM      1  C   UNL     1       4.271   2.625  -1.677  0.00  0.00    +0.017 A 
ATOM      2  C   UNL     1       3.166   2.053  -2.229  0.00  0.00    +0.029 A 
ATOM      3  C   UNL     1       2.749   0.783  -1.798  0.00  0.00    +0.073 A 
ATOM      4  C   UNL     1       3.491   0.119  -0.792  0.00  0.00    +0.024 A 
ATOM      5  C   UNL     1       4.624   0.736  -0.244  0.00  0.00    +0.027 A 
ATOM      6  C   UNL     1       5.000   1.970  -0.686  0.00  0.00    +0.019 A 
ATOM      7 BR   UNL     1       6.529   2.801   0.053  0.00  0.00    -0.050 Br
ATOM      8  C   UNL     1       3.068  -1.161  -0.360  0.00  0.00    +0.068 A 
ATOM      9  C   UNL     1       1.938  -1.703  -0.950  0.00  0.00    +0.165 A 
ATOM     10  C   UNL     1       1.264  -0.988  -1.931  0.00  0.00    +0.146 A 
ATOM     11  N   UNL     1       1.666   0.198  -2.324  0.00  0.00    -0.253 NA
ENDROOT
BRANCH   9  12
ATOM     12  N   UNL     1       1.451  -3.039  -0.537  0.00  0.00    +0.060 N 
ATOM     13  O   UNL     1       0.537  -3.560  -1.132  0.00  0.00    -0.126 OA
ATOM     14  O   UNL     1       1.968  -3.608   0.396  0.00  0.00    -0.126 OA
ENDBRANCH   9  12
BRANCH   8  15
ATOM     15  N   UNL     1       3.763  -1.850   0.623  0.00  0.00    -0.343 N 
ATOM     16  H   UNL     1       3.468  -1.807   1.546  0.00  0.00    +0.146 HD
BRANCH  15  17
ATOM     17  C   UNL     1       4.942  -2.643   0.267  0.00  0.00    +0.086 C 
BRANCH  17  18
ATOM     18  C   UNL     1       4.708  -4.105   0.649  0.00  0.00    -0.055 C 
ATOM     19  C   UNL     1       6.009  -4.926   0.468  0.00  0.00    -0.016 C 
ATOM     20  C   UNL     1       5.775  -6.106   1.447  0.00  0.00    -0.021 C 
ATOM     21  C   UNL     1       5.015  -5.443   2.615  0.00  0.00    -0.082 C 
ATOM     22  N   UNL     1       4.386  -4.216   2.088  0.00  0.00    +0.382 N 
ATOM     23  H   UNL     1       4.748  -3.412   2.579  0.00  0.00    -0.085 HD
ATOM     24  H   UNL     1       3.386  -4.265   2.210  0.00  0.00    -0.085 HD
ENDBRANCH  17  18
ENDBRANCH  15  17
ENDBRANCH   8  15
TORSDOF 4
