REMARK  Name = ZINC53244685
REMARK  5 active torsions:
REMARK  status: ('A' for Active; 'I' for Inactive)
REMARK    1  A    between atoms: C_1  and  N_2
REMARK    2  A    between atoms: C_6  and  N_9
REMARK    3  A    between atoms: N_9  and  C_10
REMARK    4  A    between atoms: C_11  and  C_13
REMARK    5  A    between atoms: C_19  and  C_21
REMARK                            x       y       z     vdW  Elec       q    Type
REMARK                         _______ _______ _______ _____ _____    ______ ____
ROOT
ATOM      1  N   UNL     1       1.615  -2.387   2.353  0.00  0.00    -0.303 N 
ATOM      2  C   UNL     1       1.146  -2.029   3.694  0.00  0.00    +0.132 C 
ATOM      3  C   UNL     1       2.600  -3.295   2.204  0.00  0.00    +0.219 C 
ATOM      4  O   UNL     1       3.042  -3.874   3.173  0.00  0.00    -0.275 OA
ENDROOT
BRANCH   1  10
ATOM      5  C   UNL     1       0.833   1.842   0.124  0.00  0.00    -0.096 C 
ATOM      6  N   UNL     1       0.591   0.394   0.079  0.00  0.00    +0.379 N 
ATOM      7  C   UNL     1      -0.855   0.141   0.062  0.00  0.00    -0.079 C 
ATOM      8  C   UNL     1      -1.112  -1.362  -0.068  0.00  0.00    -0.017 C 
ATOM      9  C   UNL     1      -0.479  -2.087   1.123  0.00  0.00    +0.019 C 
ATOM     10  C   UNL     1       1.015  -1.757   1.174  0.00  0.00    +0.059 C 
ATOM     11  C   UNL     1       1.194  -0.239   1.258  0.00  0.00    -0.057 C 
ATOM     12  H   UNL     1       1.007   0.010  -0.757  0.00  0.00    -0.082 HD
ENDBRANCH   1  10
BRANCH   3  13
ATOM     13  C   UNL     1       3.151  -3.591   0.833  0.00  0.00    +0.089 C 
ATOM     14  C   UNL     1       2.123  -4.392   0.032  0.00  0.00    +0.013 C 
ATOM     15  C   UNL     1       1.824  -5.706   0.755  0.00  0.00    +0.001 C 
ATOM     16  C   UNL     1       3.113  -6.519   0.888  0.00  0.00    +0.001 C 
ATOM     17  C   UNL     1       4.141  -5.718   1.689  0.00  0.00    +0.015 C 
ATOM     18  C   UNL     1       4.440  -4.404   0.965  0.00  0.00    +0.114 C 
BRANCH  18  19
ATOM     19  C   UNL     1       5.453  -3.615   1.754  0.00  0.00    +0.360 C 
ATOM     20  O   UNL     1       6.281  -4.195   2.435  0.00  0.00    -0.246 OA
ATOM     21  O   UNL     1       5.444  -2.396   1.711  0.00  0.00    -0.246 OA
ENDBRANCH  18  19
ENDBRANCH   3  13
TORSDOF 3
