REMARK  Name = ZINC24122067
REMARK  5 active torsions:
REMARK  status: ('A' for Active; 'I' for Inactive)
REMARK    1  A    between atoms: C_1  and  C_2
REMARK    2  A    between atoms: C_5  and  C_9
REMARK    3  A    between atoms: C_6  and  O_8
REMARK    4  A    between atoms: N_11  and  N_12
REMARK    5  A    between atoms: C_13  and  C_15
REMARK                            x       y       z     vdW  Elec       q    Type
REMARK                         _______ _______ _______ _____ _____    ______ ____
ROOT
ATOM      1  C   UNL     1       0.058  -4.252  -0.036  0.00  0.00    +0.264 C 
ATOM      2  O   UNL     1       0.071  -4.870   1.011  0.00  0.00    -0.269 OA
ATOM      3  N   UNL     1       0.061  -4.915  -1.209  0.00  0.00    -0.230 N 
ATOM      4  H   UNL     1       0.050  -4.423  -2.045  0.00  0.00    +0.173 HD
ENDROOT
BRANCH   1   9
ATOM      5  C   UNL     1      -0.018   1.503   0.010  0.00  0.00    +0.044 C 
ATOM      6  C   UNL     1       0.002  -0.004   0.002  0.00  0.00    -0.047 A 
ATOM      7  C   UNL     1       0.006  -0.686  -1.204  0.00  0.00    +0.004 A 
ATOM      8  C   UNL     1       0.024  -2.064  -1.224  0.00  0.00    +0.017 A 
ATOM      9  C   UNL     1       0.039  -2.777  -0.022  0.00  0.00    +0.079 A 
ATOM     10  C   UNL     1       0.036  -2.084   1.195  0.00  0.00    +0.129 A 
ATOM     11  C   UNL     1       0.023  -0.697   1.196  0.00  0.00    +0.049 A 
BRANCH  10  12
ATOM     12  O   UNL     1       0.051  -2.766   2.368  0.00  0.00    -0.506 OA
ATOM     13  H   UNL     1       0.938  -2.952   2.704  0.00  0.00    +0.292 HD
ENDBRANCH  10  12
ENDBRANCH   1   9
BRANCH   3  14
ATOM     14  N   UNL     1       0.079  -6.316  -1.222  0.00  0.00    -0.229 N 
ATOM     15  C   UNL     1       0.081  -6.979  -2.396  0.00  0.00    +0.276 C 
ATOM     16  O   UNL     1       0.068  -6.362  -3.444  0.00  0.00    -0.267 OA
ATOM     17  H   UNL     1       0.089  -6.809  -0.387  0.00  0.00    +0.173 HD
BRANCH  15  18
ATOM     18  C   UNL     1       0.100  -8.446  -2.409  0.00  0.00    +0.104 A 
ATOM     19  C   UNL     1       0.111  -9.251  -3.529  0.00  0.00    +0.047 A 
ATOM     20  C   UNL     1       0.128 -10.576  -3.083  0.00  0.00    +0.036 A 
ATOM     21  C   UNL     1       0.128 -10.558  -1.728  0.00  0.00    +0.098 A 
ATOM     22  N   UNL     1       0.117  -9.270  -1.306  0.00  0.00    -0.356 N 
ATOM     23  H   UNL     1       0.117  -8.977  -0.382  0.00  0.00    +0.166 HD
ATOM     24 BR   UNL     1       0.149 -12.119  -4.176  0.00  0.00    -0.049 Br
ENDBRANCH  15  18
ENDBRANCH   3  14
TORSDOF 4
