REMARK  Name = ZINC36103655
REMARK  6 active torsions:
REMARK  status: ('A' for Active; 'I' for Inactive)
REMARK    1  A    between atoms: C_1  and  C_2
REMARK    2  A    between atoms: C_3  and  S_9
REMARK    3  A    between atoms: C_4  and  C_8
REMARK    4  A    between atoms: S_9  and  N_12
REMARK    5  A    between atoms: C_15  and  C_18
REMARK    6  A    between atoms: C_18  and  N_19
REMARK                            x       y       z     vdW  Elec       q    Type
REMARK                         _______ _______ _______ _____ _____    ______ ____
ROOT
ATOM      1  N   UNL     1       1.560   0.004  -3.175  0.00  0.00    -0.176 NA
ATOM      2  C   UNL     1       2.310   1.266  -3.115  0.00  0.00    +0.110 C 
ATOM      3  C   UNL     1       3.619   1.026  -2.355  0.00  0.00    +0.022 C 
ATOM      4  C   UNL     1       4.380  -0.129  -3.011  0.00  0.00    +0.006 C 
ATOM      5  C   UNL     1       3.538  -1.404  -2.938  0.00  0.00    +0.022 C 
ATOM      6  C   UNL     1       2.231  -1.193  -3.699  0.00  0.00    +0.110 C 
ENDROOT
BRANCH   1   7
ATOM      7  S   UNL     1      -0.011  -0.069  -2.655  0.00  0.00    +0.064 S 
ATOM      8  O   UNL     1      -0.608  -1.174  -3.320  0.00  0.00    -0.153 OA
ATOM      9  O   UNL     1      -0.532   1.250  -2.751  0.00  0.00    -0.153 OA
BRANCH   7  12
ATOM     10  C   UNL     1       0.111   1.911  -0.037  0.00  0.00    +0.067 C 
ATOM     11  C   UNL     1       0.076   0.409   0.084  0.00  0.00    +0.060 A 
ATOM     12  C   UNL     1       0.026  -0.473  -0.941  0.00  0.00    +0.148 A 
ATOM     13  C   UNL     1       0.008  -1.762  -0.398  0.00  0.00    +0.086 A 
ATOM     14  N   UNL     1       0.046  -1.658   0.905  0.00  0.00    -0.177 NA
ATOM     15  N   UNL     1       0.095  -0.297   1.234  0.00  0.00    -0.280 N 
ATOM     16  H   UNL     1       0.133   0.073   2.130  0.00  0.00    +0.189 HD
ATOM     17  C   UNL     1      -0.046  -3.049  -1.181  0.00  0.00    +0.069 C 
ENDBRANCH   7  12
ENDBRANCH   1   7
BRANCH   4  18
ATOM     18  C   UNL     1       5.704  -0.349  -2.275  0.00  0.00    +0.088 C 
BRANCH  18  19
ATOM     19  N   UNL     1       6.491  -1.371  -2.978  0.00  0.00    -0.298 NA
ATOM     20  C   UNL     1       7.521  -1.941  -2.098  0.00  0.00    +0.112 C 
ATOM     21  C   UNL     1       8.276  -3.040  -2.850  0.00  0.00    +0.175 C 
ATOM     22  O   UNL     1       8.831  -2.495  -4.050  0.00  0.00    -0.377 OA
ATOM     23  C   UNL     1       7.856  -1.931  -4.931  0.00  0.00    +0.175 C 
ATOM     24  C   UNL     1       7.096  -0.821  -4.200  0.00  0.00    +0.112 C 
ENDBRANCH  18  19
ENDBRANCH   4  18
TORSDOF 4
